data_image0
_cell_length_a       6.3778
_cell_length_b       9.1886
_cell_length_c       14.2064
_cell_angle_alpha    90
_cell_angle_beta     93.633
_cell_angle_gamma    90

_symmetry_space_group_name_H-M    "P 1"
_symmetry_int_tables_number       1

loop_
  _symmetry_equiv_pos_as_xyz
  'x, y, z'

loop_
  _atom_site_label
  _atom_site_occupancy
  _atom_site_fract_x
  _atom_site_fract_y
  _atom_site_fract_z
  _atom_site_thermal_displace_type
  _atom_site_B_iso_or_equiv
  _atom_site_type_symbol
  Cu1      1.0000 0.06861  0.12974  0.24909  Biso   1.000  Cu
  Cu2      1.0000 0.43139  0.62974  0.25091  Biso   1.000  Cu
  Cu3      1.0000 0.93139  0.87026  0.75091  Biso   1.000  Cu
  Cu4      1.0000 0.56861  0.37026  0.74909  Biso   1.000  Cu
  N1       1.0000 0.82100  0.00870  0.20525  Biso   1.000  N
  N2       1.0000 0.67900  0.50870  0.29475  Biso   1.000  N
  N3       1.0000 0.17900  0.99130  0.79475  Biso   1.000  N
  N4       1.0000 0.32100  0.49130  0.70525  Biso   1.000  N
  N5       1.0000 0.73060  0.90549  0.25715  Biso   1.000  N
  N6       1.0000 0.76940  0.40549  0.24285  Biso   1.000  N
  N7       1.0000 0.26940  0.09451  0.74285  Biso   1.000  N
  N8       1.0000 0.23060  0.59451  0.75715  Biso   1.000  N
  N9       1.0000 0.57090  0.85081  0.20701  Biso   1.000  N
  N10      1.0000 0.92910  0.35081  0.29299  Biso   1.000  N
  N11      1.0000 0.42910  0.14919  0.79299  Biso   1.000  N
  N12      1.0000 0.07090  0.64919  0.70701  Biso   1.000  N
  N13      1.0000 0.55060  0.91530  0.12059  Biso   1.000  N
  N14      1.0000 0.94940  0.41530  0.37941  Biso   1.000  N
  N15      1.0000 0.44940  0.08470  0.87941  Biso   1.000  N
  N16      1.0000 0.05060  0.58470  0.62059  Biso   1.000  N
  N17      1.0000 0.74730  0.09810  0.04823  Biso   1.000  N
  N18      1.0000 0.75270  0.59810  0.45177  Biso   1.000  N
  N19      1.0000 0.25270  0.90190  0.95177  Biso   1.000  N
  N20      1.0000 0.24730  0.40190  0.54823  Biso   1.000  N
  H1       1.0000 0.66700  0.09300  0.00000  Biso   1.000  H
  H2       1.0000 0.83300  0.59300  0.50000  Biso   1.000  H
  H3       1.0000 0.33300  0.90700  0.00000  Biso   1.000  H
  H4       1.0000 0.16700  0.40700  0.50000  Biso   1.000  H
  N21      1.0000 0.97490  0.25450  0.97038  Biso   1.000  N
  N22      1.0000 0.52510  0.75450  0.52962  Biso   1.000  N
  N23      1.0000 0.02510  0.74550  0.02962  Biso   1.000  N
  N24      1.0000 0.47490  0.24550  0.47038  Biso   1.000  N
  N25      1.0000 0.16210  0.31740  0.99602  Biso   1.000  N
  N26      1.0000 0.33790  0.81740  0.50398  Biso   1.000  N
  N27      1.0000 0.83790  0.68260  0.00398  Biso   1.000  N
  N28      1.0000 0.66210  0.18260  0.49602  Biso   1.000  N
  N29      1.0000 0.22200  0.28010  0.08190  Biso   1.000  N
  N30      1.0000 0.27800  0.78010  0.41810  Biso   1.000  N
  N31      1.0000 0.77800  0.71990  0.91810  Biso   1.000  N
  N32      1.0000 0.72200  0.21990  0.58190  Biso   1.000  N
  N33      1.0000 0.07370  0.19163  0.11596  Biso   1.000  N
  N34      1.0000 0.42630  0.69163  0.38404  Biso   1.000  N
  N35      1.0000 0.92630  0.80837  0.88404  Biso   1.000  N
  N36      1.0000 0.57370  0.30837  0.61596  Biso   1.000  N
  N37      1.0000 0.04560  0.06610  0.38306  Biso   1.000  N
  N38      1.0000 0.45440  0.56610  0.11694  Biso   1.000  N
  N39      1.0000 0.95440  0.93390  0.61694  Biso   1.000  N
  N40      1.0000 0.54560  0.43390  0.88306  Biso   1.000  N
  H5       1.0000 0.92300  0.09400  0.40700  Biso   1.000  H
  H6       1.0000 0.57700  0.59400  0.09300  Biso   1.000  H
  H7       1.0000 0.07700  0.90600  0.59300  Biso   1.000  H
  H8       1.0000 0.42300  0.40600  0.90700  Biso   1.000  H
  H9       1.0000 0.04800  0.97500  0.39000  Biso   1.000  H
  H10      1.0000 0.45200  0.47500  0.11000  Biso   1.000  H
  H11      1.0000 0.95200  0.02500  0.61000  Biso   1.000  H
  H12      1.0000 0.54800  0.52500  0.89000  Biso   1.000  H
  H13      1.0000 0.14200  0.09900  0.41800  Biso   1.000  H
  H14      1.0000 0.35800  0.59900  0.08200  Biso   1.000  H
  H15      1.0000 0.85800  0.90100  0.58200  Biso   1.000  H
  H16      1.0000 0.64200  0.40100  0.91800  Biso   1.000  H
  N41      1.0000 0.37610  0.17280  0.27195  Biso   1.000  N
  N42      1.0000 0.12390  0.67280  0.22805  Biso   1.000  N
  N43      1.0000 0.62390  0.82720  0.72805  Biso   1.000  N
  N44      1.0000 0.87610  0.32720  0.77195  Biso   1.000  N
  H17      1.0000 0.41800  0.21600  0.23000  Biso   1.000  H
  H18      1.0000 0.08200  0.71600  0.27000  Biso   1.000  H
  H19      1.0000 0.58200  0.78400  0.77000  Biso   1.000  H
  H20      1.0000 0.91800  0.28400  0.73000  Biso   1.000  H
  H21      1.0000 0.40700  0.22400  0.32700  Biso   1.000  H
  H22      1.0000 0.09300  0.72400  0.17300  Biso   1.000  H
  H23      1.0000 0.59300  0.77600  0.67300  Biso   1.000  H
  H24      1.0000 0.90700  0.27600  0.82700  Biso   1.000  H
  H25      1.0000 0.44100  0.10000  0.27700  Biso   1.000  H
  H26      1.0000 0.05900  0.60000  0.22300  Biso   1.000  H
  H27      1.0000 0.55900  0.90000  0.72300  Biso   1.000  H
  H28      1.0000 0.94100  0.40000  0.77700  Biso   1.000  H
  C1       1.0000 0.70740  0.01010  0.12216  Biso   1.000  C
  C2       1.0000 0.79260  0.51010  0.37784  Biso   1.000  C
  C3       1.0000 0.29260  0.98990  0.87784  Biso   1.000  C
  C4       1.0000 0.20740  0.48990  0.62216  Biso   1.000  C
  C5       1.0000 0.92720  0.17890  0.04552  Biso   1.000  C
  C6       1.0000 0.57280  0.67890  0.45448  Biso   1.000  C
  C7       1.0000 0.07280  0.82110  0.95448  Biso   1.000  C
  C8       1.0000 0.42720  0.32110  0.54552  Biso   1.000  C
