data_image0
_cell_length_a       9.4174
_cell_length_b       10.0025
_cell_length_c       11.446
_cell_angle_alpha    94.035
_cell_angle_beta     108.04
_cell_angle_gamma    114.221

_symmetry_space_group_name_H-M    "P 1"
_symmetry_int_tables_number       1

loop_
  _symmetry_equiv_pos_as_xyz
  'x, y, z'

loop_
  _atom_site_label
  _atom_site_occupancy
  _atom_site_fract_x
  _atom_site_fract_y
  _atom_site_fract_z
  _atom_site_thermal_displace_type
  _atom_site_B_iso_or_equiv
  _atom_site_type_symbol
  Cu1      1.0000 0.50189  0.16532  0.97158  Biso   1.000  Cu
  Cu2      1.0000 0.49811  0.83468  0.02842  Biso   1.000  Cu
  Br1      1.0000 0.89230  0.84340  0.71388  Biso   1.000  Br
  Br2      1.0000 0.10770  0.15660  0.28612  Biso   1.000  Br
  Br3      1.0000 0.15520  0.94960  0.54170  Biso   1.000  Br
  Br4      1.0000 0.84480  0.05040  0.45830  Biso   1.000  Br
  O1       1.0000 0.33620  0.91660  0.98660  Biso   1.000  O
  O2       1.0000 0.66380  0.08340  0.01340  Biso   1.000  O
  O3       1.0000 0.09970  0.70800  0.89140  Biso   1.000  O
  O4       1.0000 0.90030  0.29200  0.10860  Biso   1.000  O
  O5       1.0000 0.44080  0.08330  0.79290  Biso   1.000  O
  O6       1.0000 0.55920  0.91670  0.20710  Biso   1.000  O
  O7       1.0000 0.67110  0.27310  0.79800  Biso   1.000  O
  O8       1.0000 0.32890  0.72690  0.20200  Biso   1.000  O
  O9       1.0000 0.83460  0.48090  0.67290  Biso   1.000  O
  O10      1.0000 0.16540  0.51910  0.32710  Biso   1.000  O
  N1       1.0000 0.34860  0.26120  0.92850  Biso   1.000  N
  N2       1.0000 0.65140  0.73880  0.07150  Biso   1.000  N
  N3       1.0000 0.55420  0.27260  0.14690  Biso   1.000  N
  N4       1.0000 0.44580  0.72740  0.85310  Biso   1.000  N
  C1       1.0000 0.24470  0.24820  0.81120  Biso   1.000  C
  C2       1.0000 0.75530  0.75180  0.18880  Biso   1.000  C
  H1       1.0000 0.24070  0.18930  0.74250  Biso   1.000  H
  H2       1.0000 0.75930  0.81070  0.25750  Biso   1.000  H
  C3       1.0000 0.14500  0.31990  0.79100  Biso   1.000  C
  C4       1.0000 0.85500  0.68010  0.20900  Biso   1.000  C
  H3       1.0000 0.07560  0.31170  0.70990  Biso   1.000  H
  H4       1.0000 0.92440  0.68830  0.29010  Biso   1.000  H
  C5       1.0000 0.15120  0.40630  0.89710  Biso   1.000  C
  C6       1.0000 0.84880  0.59370  0.10290  Biso   1.000  C
  H5       1.0000 0.08530  0.45610  0.88650  Biso   1.000  H
  H6       1.0000 0.91470  0.54390  0.11350  Biso   1.000  H
  C7       1.0000 0.25260  0.41640  0.01350  Biso   1.000  C
  C8       1.0000 0.74740  0.58360  0.98650  Biso   1.000  C
  H7       1.0000 0.25660  0.47260  0.08380  Biso   1.000  H
  H8       1.0000 0.74340  0.52740  0.91620  Biso   1.000  H
  C9       1.0000 0.35030  0.34290  0.02770  Biso   1.000  C
  C10      1.0000 0.64970  0.65710  0.97230  Biso   1.000  C
  C11      1.0000 0.46640  0.34890  0.15000  Biso   1.000  C
  C12      1.0000 0.53360  0.65110  0.85000  Biso   1.000  C
  C13      1.0000 0.48980  0.42810  0.26630  Biso   1.000  C
  C14      1.0000 0.51020  0.57190  0.73370  Biso   1.000  C
  H9       1.0000 0.42770  0.47960  0.26910  Biso   1.000  H
  H10      1.0000 0.57230  0.52040  0.73090  Biso   1.000  H
  C15      1.0000 0.60230  0.42940  0.37370  Biso   1.000  C
  C16      1.0000 0.39770  0.57060  0.62630  Biso   1.000  C
  H11      1.0000 0.61930  0.48300  0.45060  Biso   1.000  H
  H12      1.0000 0.38070  0.51700  0.54940  Biso   1.000  H
  C17      1.0000 0.69370  0.35010  0.36940  Biso   1.000  C
  C18      1.0000 0.30630  0.64990  0.63060  Biso   1.000  C
  H13      1.0000 0.77280  0.35050  0.44250  Biso   1.000  H
  H14      1.0000 0.22720  0.64950  0.55750  Biso   1.000  H
  C19      1.0000 0.66210  0.27030  0.25190  Biso   1.000  C
  C20      1.0000 0.33790  0.72970  0.74810  Biso   1.000  C
  H15      1.0000 0.71870  0.21390  0.24720  Biso   1.000  H
  H16      1.0000 0.28130  0.78610  0.75280  Biso   1.000  H
  C21      1.0000 0.17720  0.83970  0.94540  Biso   1.000  C
  C22      1.0000 0.82280  0.16030  0.05460  Biso   1.000  C
  C23      1.0000 0.08670  0.92490  0.97170  Biso   1.000  C
  C24      1.0000 0.91330  0.07510  0.02830  Biso   1.000  C
  C25      1.0000 0.94960  0.92410  0.87700  Biso   1.000  C
  C26      1.0000 0.05040  0.07590  0.12300  Biso   1.000  C
  C27      1.0000 0.86450  0.99850  0.90530  Biso   1.000  C
  C28      1.0000 0.13550  0.00150  0.09470  Biso   1.000  C
  H17      1.0000 0.77390  0.99730  0.84160  Biso   1.000  H
  H18      1.0000 0.22610  0.00270  0.15840  Biso   1.000  H
  C29      1.0000 0.54770  0.15340  0.74620  Biso   1.000  C
  C30      1.0000 0.45230  0.84660  0.25380  Biso   1.000  C
  C31      1.0000 0.51670  0.07120  0.61630  Biso   1.000  C
  C32      1.0000 0.48330  0.92880  0.38370  Biso   1.000  C
  C33      1.0000 0.36120  0.98290  0.52720  Biso   1.000  C
  C34      1.0000 0.63880  0.01710  0.47280  Biso   1.000  C
  C35      1.0000 0.34200  0.91150  0.40950  Biso   1.000  C
  C36      1.0000 0.65800  0.08850  0.59050  Biso   1.000  C
  H19      1.0000 0.23530  0.85280  0.34860  Biso   1.000  H
  H20      1.0000 0.76470  0.14720  0.65140  Biso   1.000  H
  H21      1.0000 0.78690  0.41540  0.70950  Biso   1.000  H
  H22      1.0000 0.21310  0.58460  0.29050  Biso   1.000  H
  H23      1.0000 0.90480  0.56150  0.72920  Biso   1.000  H
  H24      1.0000 0.09520  0.43850  0.27080  Biso   1.000  H
