data_image0
_cell_length_a       8.187
_cell_length_b       12.67
_cell_length_c       9.766
_cell_angle_alpha    90
_cell_angle_beta     91.6
_cell_angle_gamma    90

_symmetry_space_group_name_H-M    "P 1"
_symmetry_int_tables_number       1

loop_
  _symmetry_equiv_pos_as_xyz
  'x, y, z'

loop_
  _atom_site_label
  _atom_site_occupancy
  _atom_site_fract_x
  _atom_site_fract_y
  _atom_site_fract_z
  _atom_site_thermal_displace_type
  _atom_site_B_iso_or_equiv
  _atom_site_type_symbol
  Cu1      1.0000 0.58820  0.08845  0.17810  Biso   1.000  Cu
  Cu2      1.0000 0.58820  0.91155  0.67810  Biso   1.000  Cu
  Cu3      1.0000 0.08820  0.58845  0.17810  Biso   1.000  Cu
  Cu4      1.0000 0.08820  0.41155  0.67810  Biso   1.000  Cu
  C1       1.0000 0.59000  0.72860  0.18670  Biso   1.000  C
  C2       1.0000 0.59000  0.27140  0.68670  Biso   1.000  C
  C3       1.0000 0.09000  0.22860  0.18670  Biso   1.000  C
  C4       1.0000 0.09000  0.77140  0.68670  Biso   1.000  C
  H1       1.0000 0.59570  0.65530  0.18740  Biso   1.000  H
  H2       1.0000 0.59570  0.34470  0.68740  Biso   1.000  H
  H3       1.0000 0.09570  0.15530  0.18740  Biso   1.000  H
  H4       1.0000 0.09570  0.84470  0.68740  Biso   1.000  H
  O1       1.0000 0.73840  0.06660  0.33960  Biso   1.000  O
  O2       1.0000 0.73840  0.93340  0.83960  Biso   1.000  O
  O3       1.0000 0.23840  0.56660  0.33960  Biso   1.000  O
  O4       1.0000 0.23840  0.43340  0.83960  Biso   1.000  O
  C5       1.0000 0.67640  0.29670  0.27570  Biso   1.000  C
  C6       1.0000 0.67640  0.70330  0.77570  Biso   1.000  C
  C7       1.0000 0.17640  0.79670  0.27570  Biso   1.000  C
  C8       1.0000 0.17640  0.20330  0.77570  Biso   1.000  C
  H5       1.0000 0.74030  0.26940  0.34750  Biso   1.000  H
  H6       1.0000 0.74030  0.73060  0.84750  Biso   1.000  H
  H7       1.0000 0.24030  0.76940  0.34750  Biso   1.000  H
  H8       1.0000 0.24030  0.23060  0.84750  Biso   1.000  H
  C9       1.0000 0.49800  0.88740  0.07850  Biso   1.000  C
  C10      1.0000 0.49800  0.11260  0.57850  Biso   1.000  C
  C11      1.0000 0.99800  0.38740  0.07850  Biso   1.000  C
  C12      1.0000 0.99800  0.61260  0.57850  Biso   1.000  C
  N1       1.0000 0.58500  0.23830  0.18590  Biso   1.000  N
  N2       1.0000 0.58500  0.76170  0.68590  Biso   1.000  N
  N3       1.0000 0.08500  0.73830  0.18590  Biso   1.000  N
  N4       1.0000 0.08500  0.26170  0.68590  Biso   1.000  N
  C13      1.0000 0.67000  0.89280  0.27530  Biso   1.000  C
  C14      1.0000 0.67000  0.10720  0.77530  Biso   1.000  C
  C15      1.0000 0.17000  0.39280  0.27530  Biso   1.000  C
  C16      1.0000 0.17000  0.60720  0.77530  Biso   1.000  C
  O5       1.0000 0.84600  0.93720  0.46560  Biso   1.000  O
  O6       1.0000 0.84600  0.06280  0.96560  Biso   1.000  O
  O7       1.0000 0.34600  0.43720  0.46560  Biso   1.000  O
  O8       1.0000 0.34600  0.56280  0.96560  Biso   1.000  O
  N5       1.0000 0.66110  0.39930  0.24610  Biso   1.000  N
  N6       1.0000 0.66110  0.60070  0.74610  Biso   1.000  N
  N7       1.0000 0.16110  0.89930  0.24610  Biso   1.000  N
  N8       1.0000 0.16110  0.10070  0.74610  Biso   1.000  N
  H9       1.0000 0.70850  0.45080  0.28860  Biso   1.000  H
  H10      1.0000 0.70850  0.54920  0.78860  Biso   1.000  H
  H11      1.0000 0.20850  0.95080  0.28860  Biso   1.000  H
  H12      1.0000 0.20850  0.04920  0.78860  Biso   1.000  H
  O9       1.0000 0.42920  0.06130  0.01660  Biso   1.000  O
  O10      1.0000 0.42920  0.93870  0.51660  Biso   1.000  O
  O11      1.0000 0.92920  0.56130  0.01660  Biso   1.000  O
  O12      1.0000 0.92920  0.43870  0.51660  Biso   1.000  O
  N9       1.0000 0.58900  0.93910  0.18300  Biso   1.000  N
  N10      1.0000 0.58900  0.06090  0.68300  Biso   1.000  N
  N11      1.0000 0.08900  0.43910  0.18300  Biso   1.000  N
  N12      1.0000 0.08900  0.56090  0.68300  Biso   1.000  N
  O13      1.0000 0.36270  0.92790  0.87040  Biso   1.000  O
  O14      1.0000 0.36270  0.07210  0.37040  Biso   1.000  O
  O15      1.0000 0.86270  0.42790  0.87040  Biso   1.000  O
  O16      1.0000 0.86270  0.57210  0.37040  Biso   1.000  O
  C17      1.0000 0.51700  0.30870  0.09520  Biso   1.000  C
  C18      1.0000 0.51700  0.69130  0.59520  Biso   1.000  C
  C19      1.0000 0.01700  0.80870  0.09520  Biso   1.000  C
  C20      1.0000 0.01700  0.19130  0.59520  Biso   1.000  C
  H13      1.0000 0.45360  0.29190  0.01770  Biso   1.000  H
  H14      1.0000 0.45360  0.70810  0.51770  Biso   1.000  H
  H15      1.0000 0.95360  0.79190  0.01770  Biso   1.000  H
  H16      1.0000 0.95360  0.20810  0.51770  Biso   1.000  H
  C21      1.0000 0.49360  0.78080  0.07700  Biso   1.000  C
  C22      1.0000 0.49360  0.21920  0.57700  Biso   1.000  C
  C23      1.0000 0.99360  0.28080  0.07700  Biso   1.000  C
  C24      1.0000 0.99360  0.71920  0.57700  Biso   1.000  C
  H17      1.0000 0.43380  0.74310  0.01110  Biso   1.000  H
  H18      1.0000 0.43380  0.25690  0.51110  Biso   1.000  H
  H19      1.0000 0.93380  0.24310  0.01110  Biso   1.000  H
  H20      1.0000 0.93380  0.75690  0.51110  Biso   1.000  H
  C25      1.0000 0.66550  0.78070  0.28200  Biso   1.000  C
  C26      1.0000 0.66550  0.21930  0.78200  Biso   1.000  C
  C27      1.0000 0.16550  0.28070  0.28200  Biso   1.000  C
  C28      1.0000 0.16550  0.71930  0.78200  Biso   1.000  C
  H21      1.0000 0.71700  0.74530  0.35420  Biso   1.000  H
  H22      1.0000 0.71700  0.25470  0.85420  Biso   1.000  H
  H23      1.0000 0.21700  0.24530  0.35420  Biso   1.000  H
  H24      1.0000 0.21700  0.75470  0.85420  Biso   1.000  H
  C29      1.0000 0.41200  0.96910  0.98040  Biso   1.000  C
  C30      1.0000 0.41200  0.03090  0.48040  Biso   1.000  C
  C31      1.0000 0.91200  0.46910  0.98040  Biso   1.000  C
  C32      1.0000 0.91200  0.53090  0.48040  Biso   1.000  C
  C33      1.0000 0.55740  0.40670  0.13730  Biso   1.000  C
  C34      1.0000 0.55740  0.59330  0.63730  Biso   1.000  C
  C35      1.0000 0.05740  0.90670  0.13730  Biso   1.000  C
  C36      1.0000 0.05740  0.09330  0.63730  Biso   1.000  C
  H25      1.0000 0.51980  0.46920  0.09770  Biso   1.000  H
  H26      1.0000 0.51980  0.53080  0.59770  Biso   1.000  H
  H27      1.0000 0.01980  0.96920  0.09770  Biso   1.000  H
  H28      1.0000 0.01980  0.03080  0.59770  Biso   1.000  H
  C37      1.0000 0.74910  0.96310  0.37090  Biso   1.000  C
  C38      1.0000 0.74910  0.03690  0.87090  Biso   1.000  C
  C39      1.0000 0.24910  0.46310  0.37090  Biso   1.000  C
  C40      1.0000 0.24910  0.53690  0.87090  Biso   1.000  C
