data_image0
_cell_length_a       11.148
_cell_length_b       7.071
_cell_length_c       14.751
_cell_angle_alpha    90
_cell_angle_beta     104.23
_cell_angle_gamma    90

_symmetry_space_group_name_H-M    "P 1"
_symmetry_int_tables_number       1

loop_
  _symmetry_equiv_pos_as_xyz
  'x, y, z'

loop_
  _atom_site_label
  _atom_site_occupancy
  _atom_site_fract_x
  _atom_site_fract_y
  _atom_site_fract_z
  _atom_site_thermal_displace_type
  _atom_site_B_iso_or_equiv
  _atom_site_type_symbol
  C1       1.0000 0.08650  0.76240  0.55580  Biso   1.000  C
  C2       1.0000 0.41350  0.26240  0.94420  Biso   1.000  C
  C3       1.0000 0.91350  0.23760  0.44420  Biso   1.000  C
  C4       1.0000 0.58650  0.73760  0.05580  Biso   1.000  C
  H1       1.0000 0.08320  0.67080  0.51000  Biso   1.000  H
  H2       1.0000 0.41680  0.17080  0.99000  Biso   1.000  H
  H3       1.0000 0.91680  0.32920  0.49000  Biso   1.000  H
  H4       1.0000 0.58320  0.82920  0.01000  Biso   1.000  H
  C5       1.0000 0.19020  0.84600  0.60870  Biso   1.000  C
  C6       1.0000 0.30980  0.34600  0.89130  Biso   1.000  C
  C7       1.0000 0.80980  0.15400  0.39130  Biso   1.000  C
  C8       1.0000 0.69020  0.65400  0.10870  Biso   1.000  C
  H5       1.0000 0.27150  0.82390  0.60630  Biso   1.000  H
  H6       1.0000 0.22850  0.32390  0.89370  Biso   1.000  H
  H7       1.0000 0.72850  0.17610  0.39370  Biso   1.000  H
  H8       1.0000 0.77150  0.67610  0.10630  Biso   1.000  H
  C9       1.0000 0.14910  0.97210  0.66770  Biso   1.000  C
  C10      1.0000 0.35090  0.47210  0.83230  Biso   1.000  C
  C11      1.0000 0.85090  0.02790  0.33230  Biso   1.000  C
  C12      1.0000 0.64910  0.52790  0.16770  Biso   1.000  C
  H9       1.0000 0.20060  0.04830  0.71210  Biso   1.000  H
  H10      1.0000 0.29940  0.54830  0.78790  Biso   1.000  H
  H11      1.0000 0.79940  0.95170  0.28790  Biso   1.000  H
  H12      1.0000 0.70060  0.45170  0.21210  Biso   1.000  H
  C13      1.0000 0.86180  0.80310  0.55400  Biso   1.000  C
  C14      1.0000 0.63820  0.30310  0.94600  Biso   1.000  C
  C15      1.0000 0.13820  0.19690  0.44600  Biso   1.000  C
  C16      1.0000 0.36180  0.69690  0.05400  Biso   1.000  C
  C17      1.0000 0.70060  0.65420  0.46260  Biso   1.000  C
  C18      1.0000 0.79940  0.15420  0.03740  Biso   1.000  C
  C19      1.0000 0.29940  0.34580  0.53740  Biso   1.000  C
  C20      1.0000 0.20060  0.84580  0.96260  Biso   1.000  C
  H13      1.0000 0.66700  0.57180  0.41390  Biso   1.000  H
  H14      1.0000 0.83300  0.07180  0.08610  Biso   1.000  H
  H15      1.0000 0.33300  0.42820  0.58610  Biso   1.000  H
  H16      1.0000 0.16700  0.92820  0.91390  Biso   1.000  H
  C21      1.0000 0.62200  0.74040  0.50800  Biso   1.000  C
  C22      1.0000 0.87800  0.24040  0.99200  Biso   1.000  C
  C23      1.0000 0.37800  0.25960  0.49200  Biso   1.000  C
  C24      1.0000 0.12200  0.75960  0.00800  Biso   1.000  C
  H17      1.0000 0.53750  0.71530  0.49190  Biso   1.000  H
  H18      1.0000 0.96250  0.21530  0.00810  Biso   1.000  H
  H19      1.0000 0.46250  0.28470  0.50810  Biso   1.000  H
  H20      1.0000 0.03750  0.78470  0.99190  Biso   1.000  H
  C25      1.0000 0.67210  0.86420  0.57760  Biso   1.000  C
  C26      1.0000 0.82790  0.36420  0.92240  Biso   1.000  C
  C27      1.0000 0.32790  0.13580  0.42240  Biso   1.000  C
  C28      1.0000 0.17210  0.63580  0.07760  Biso   1.000  C
  H21      1.0000 0.62100  0.92560  0.60940  Biso   1.000  H
  H22      1.0000 0.87900  0.42560  0.89060  Biso   1.000  H
  H23      1.0000 0.37900  0.07440  0.39060  Biso   1.000  H
  H24      1.0000 0.12100  0.57440  0.10940  Biso   1.000  H
  N1       1.0000 0.02680  0.96840  0.65181  Biso   1.000  N
  N2       1.0000 0.47320  0.46840  0.84819  Biso   1.000  N
  N3       1.0000 0.97320  0.03160  0.34819  Biso   1.000  N
  N4       1.0000 0.52680  0.53160  0.15181  Biso   1.000  N
  N5       1.0000 0.98890  0.83860  0.58271  Biso   1.000  N
  N6       1.0000 0.51110  0.33860  0.91729  Biso   1.000  N
  N7       1.0000 0.01110  0.16140  0.41729  Biso   1.000  N
  N8       1.0000 0.48890  0.66140  0.08271  Biso   1.000  N
  N9       1.0000 0.79450  0.89920  0.60103  Biso   1.000  N
  N10      1.0000 0.70550  0.39920  0.89897  Biso   1.000  N
  N11      1.0000 0.20550  0.10080  0.39897  Biso   1.000  N
  N12      1.0000 0.29450  0.60080  0.10103  Biso   1.000  N
  N13      1.0000 0.82320  0.68230  0.48486  Biso   1.000  N
  N14      1.0000 0.67680  0.18230  0.01514  Biso   1.000  N
  N15      1.0000 0.17680  0.31770  0.51514  Biso   1.000  N
  N16      1.0000 0.32320  0.81770  0.98486  Biso   1.000  N
  N17      1.0000 0.67730  0.31380  0.65053  Biso   1.000  N
  N18      1.0000 0.82270  0.81380  0.84947  Biso   1.000  N
  N19      1.0000 0.32270  0.68620  0.34947  Biso   1.000  N
  N20      1.0000 0.17730  0.18620  0.15053  Biso   1.000  N
  N21      1.0000 0.00240  0.42140  0.73700  Biso   1.000  N
  N22      1.0000 0.49760  0.92140  0.76300  Biso   1.000  N
  N23      1.0000 0.99760  0.57860  0.26300  Biso   1.000  N
  N24      1.0000 0.50240  0.07860  0.23700  Biso   1.000  N
  O1       1.0000 0.74512  0.22020  0.71911  Biso   1.000  O
  O2       1.0000 0.75488  0.72020  0.78089  Biso   1.000  O
  O3       1.0000 0.25488  0.77980  0.28089  Biso   1.000  O
  O4       1.0000 0.24512  0.27980  0.21911  Biso   1.000  O
  O5       1.0000 0.59994  0.42550  0.66746  Biso   1.000  O
  O6       1.0000 0.90006  0.92550  0.83254  Biso   1.000  O
  O7       1.0000 0.40006  0.57450  0.33254  Biso   1.000  O
  O8       1.0000 0.09994  0.07450  0.16746  Biso   1.000  O
  O9       1.0000 0.68930  0.28850  0.57087  Biso   1.000  O
  O10      1.0000 0.81070  0.78850  0.92913  Biso   1.000  O
  O11      1.0000 0.31070  0.71150  0.42913  Biso   1.000  O
  O12      1.0000 0.18930  0.21150  0.07087  Biso   1.000  O
  O13      1.0000 0.00146  0.26200  0.77860  Biso   1.000  O
  O14      1.0000 0.49854  0.76200  0.72140  Biso   1.000  O
  O15      1.0000 0.99854  0.73800  0.22140  Biso   1.000  O
  O16      1.0000 0.50146  0.23800  0.27860  Biso   1.000  O
  O17      1.0000 0.94680  0.43400  0.65419  Biso   1.000  O
  O18      1.0000 0.55320  0.93400  0.84581  Biso   1.000  O
  O19      1.0000 0.05320  0.56600  0.34581  Biso   1.000  O
  O20      1.0000 0.44680  0.06600  0.15419  Biso   1.000  O
  O21      1.0000 0.05590  0.55540  0.78220  Biso   1.000  O
  O22      1.0000 0.44410  0.05540  0.71780  Biso   1.000  O
  O23      1.0000 0.94410  0.44460  0.21780  Biso   1.000  O
  O24      1.0000 0.55590  0.94460  0.28220  Biso   1.000  O
  Cu1      1.0000 0.88928  0.08597  0.69379  Biso   1.000  Cu
  Cu2      1.0000 0.61072  0.58597  0.80621  Biso   1.000  Cu
  Cu3      1.0000 0.11072  0.91403  0.30621  Biso   1.000  Cu
  Cu4      1.0000 0.38928  0.41403  0.19379  Biso   1.000  Cu
