data_image0
_cell_length_a       10.341
_cell_length_b       46.622
_cell_length_c       8.7572
_cell_angle_alpha    90
_cell_angle_beta     107.047
_cell_angle_gamma    90

_symmetry_space_group_name_H-M    "P 1"
_symmetry_int_tables_number       1

loop_
  _symmetry_equiv_pos_as_xyz
  'x, y, z'

loop_
  _atom_site_label
  _atom_site_occupancy
  _atom_site_fract_x
  _atom_site_fract_y
  _atom_site_fract_z
  _atom_site_thermal_displace_type
  _atom_site_B_iso_or_equiv
  _atom_site_type_symbol
  Cu1      1.0000 0.24076  0.06277  0.26026  Biso   1.000  Cu
  Cu2      1.0000 0.75924  0.56277  0.23974  Biso   1.000  Cu
  Cu3      1.0000 0.75924  0.93723  0.73974  Biso   1.000  Cu
  Cu4      1.0000 0.24076  0.43723  0.76026  Biso   1.000  Cu
  O1       1.0000 0.39489  0.08885  0.26240  Biso   1.000  O
  O2       1.0000 0.60511  0.58885  0.23760  Biso   1.000  O
  O3       1.0000 0.60511  0.91115  0.73760  Biso   1.000  O
  O4       1.0000 0.39489  0.41115  0.76240  Biso   1.000  O
  O5       1.0000 0.09364  0.08817  0.28670  Biso   1.000  O
  O6       1.0000 0.90636  0.58817  0.21330  Biso   1.000  O
  O7       1.0000 0.90636  0.91183  0.71330  Biso   1.000  O
  O8       1.0000 0.09364  0.41183  0.78670  Biso   1.000  O
  N1       1.0000 0.24600  0.01797  0.25140  Biso   1.000  N
  N2       1.0000 0.75400  0.51797  0.24860  Biso   1.000  N
  N3       1.0000 0.75400  0.98203  0.74860  Biso   1.000  N
  N4       1.0000 0.24600  0.48203  0.75140  Biso   1.000  N
  O9       1.0000 0.65360  0.18039  0.33040  Biso   1.000  O
  O10      1.0000 0.34640  0.68039  0.16960  Biso   1.000  O
  O11      1.0000 0.34640  0.81961  0.66960  Biso   1.000  O
  O12      1.0000 0.65360  0.31961  0.83040  Biso   1.000  O
  N5       1.0000 0.16280  0.05290  0.00910  Biso   1.000  N
  N6       1.0000 0.83720  0.55290  0.49090  Biso   1.000  N
  N7       1.0000 0.83720  0.94710  0.99090  Biso   1.000  N
  N8       1.0000 0.16280  0.44710  0.50910  Biso   1.000  N
  O13      1.0000 0.98491  0.04742  0.29090  Biso   1.000  O
  O14      1.0000 0.01509  0.54742  0.20910  Biso   1.000  O
  O15      1.0000 0.01509  0.95258  0.70910  Biso   1.000  O
  O16      1.0000 0.98491  0.45258  0.79090  Biso   1.000  O
  N9       1.0000 0.31420  0.04902  0.50790  Biso   1.000  N
  N10      1.0000 0.68580  0.54902  0.99210  Biso   1.000  N
  N11      1.0000 0.68580  0.95098  0.49210  Biso   1.000  N
  N12      1.0000 0.31420  0.45098  0.00790  Biso   1.000  N
  O17      1.0000 0.49000  0.05027  0.19430  Biso   1.000  O
  O18      1.0000 0.51000  0.55027  0.30570  Biso   1.000  O
  O19      1.0000 0.51000  0.94973  0.80570  Biso   1.000  O
  O20      1.0000 0.49000  0.44973  0.69430  Biso   1.000  O
  O21      1.0000 0.87690  0.17920  0.39530  Biso   1.000  O
  O22      1.0000 0.12310  0.67920  0.10470  Biso   1.000  O
  O23      1.0000 0.12310  0.82080  0.60470  Biso   1.000  O
  O24      1.0000 0.87690  0.32080  0.89530  Biso   1.000  O
  C1       1.0000 0.86770  0.09087  0.30060  Biso   1.000  C
  C2       1.0000 0.13230  0.59087  0.19940  Biso   1.000  C
  C3       1.0000 0.13230  0.90913  0.69940  Biso   1.000  C
  C4       1.0000 0.86770  0.40913  0.80060  Biso   1.000  C
  C5       1.0000 0.62540  0.09212  0.26140  Biso   1.000  C
  C6       1.0000 0.37460  0.59212  0.23860  Biso   1.000  C
  C7       1.0000 0.37460  0.90788  0.73860  Biso   1.000  C
  C8       1.0000 0.62540  0.40788  0.76140  Biso   1.000  C
  C9       1.0000 0.33380  0.02066  0.53360  Biso   1.000  C
  C10      1.0000 0.66620  0.52066  0.96640  Biso   1.000  C
  C11      1.0000 0.66620  0.97934  0.46640  Biso   1.000  C
  C12      1.0000 0.33380  0.47934  0.03360  Biso   1.000  C
  C13      1.0000 0.74290  0.07707  0.26860  Biso   1.000  C
  C14      1.0000 0.25710  0.57707  0.23140  Biso   1.000  C
  C15      1.0000 0.25710  0.92293  0.73140  Biso   1.000  C
  C16      1.0000 0.74290  0.42293  0.76860  Biso   1.000  C
  H1       1.0000 0.73830  0.05740  0.25160  Biso   1.000  H
  H2       1.0000 0.26170  0.55740  0.24840  Biso   1.000  H
  H3       1.0000 0.26170  0.94260  0.74840  Biso   1.000  H
  H4       1.0000 0.73830  0.44260  0.75160  Biso   1.000  H
  C17      1.0000 0.20430  0.00483  0.10920  Biso   1.000  C
  C18      1.0000 0.79570  0.50483  0.39080  Biso   1.000  C
  C19      1.0000 0.79570  0.99517  0.89080  Biso   1.000  C
  C20      1.0000 0.20430  0.49517  0.60920  Biso   1.000  C
  C21      1.0000 0.29240  0.00276  0.38560  Biso   1.000  C
  C22      1.0000 0.70760  0.50276  0.11440  Biso   1.000  C
  C23      1.0000 0.70760  0.99724  0.61440  Biso   1.000  C
  C24      1.0000 0.29240  0.49724  0.88560  Biso   1.000  C
  C25      1.0000 0.25770  0.95866  0.23550  Biso   1.000  C
  C26      1.0000 0.74230  0.45866  0.26450  Biso   1.000  C
  C27      1.0000 0.74230  0.04134  0.76450  Biso   1.000  C
  C28      1.0000 0.25770  0.54134  0.73550  Biso   1.000  C
  C29      1.0000 0.87360  0.12027  0.32790  Biso   1.000  C
  C30      1.0000 0.12640  0.62027  0.17210  Biso   1.000  C
  C31      1.0000 0.12640  0.87973  0.67210  Biso   1.000  C
  C32      1.0000 0.87360  0.37973  0.82790  Biso   1.000  C
  H5       1.0000 0.95630  0.12970  0.35080  Biso   1.000  H
  H6       1.0000 0.04370  0.62970  0.14920  Biso   1.000  H
  H7       1.0000 0.04370  0.87030  0.64920  Biso   1.000  H
  H8       1.0000 0.95630  0.37030  0.85080  Biso   1.000  H
  C33      1.0000 0.26610  0.92669  0.22660  Biso   1.000  C
  C34      1.0000 0.73390  0.42669  0.27340  Biso   1.000  C
  C35      1.0000 0.73390  0.07331  0.77340  Biso   1.000  C
  C36      1.0000 0.26610  0.57331  0.72660  Biso   1.000  C
  C37      1.0000 0.15250  0.02479  0.97070  Biso   1.000  C
  C38      1.0000 0.84750  0.52479  0.52930  Biso   1.000  C
  C39      1.0000 0.84750  0.97521  0.02930  Biso   1.000  C
  C40      1.0000 0.15250  0.47521  0.47070  Biso   1.000  C
  C41      1.0000 0.34590  0.06682  0.63420  Biso   1.000  C
  C42      1.0000 0.65410  0.56682  0.86580  Biso   1.000  C
  C43      1.0000 0.65410  0.93318  0.36580  Biso   1.000  C
  C44      1.0000 0.34590  0.43318  0.13420  Biso   1.000  C
  H9       1.0000 0.33070  0.08640  0.61690  Biso   1.000  H
  H10      1.0000 0.66930  0.58640  0.88310  Biso   1.000  H
  H11      1.0000 0.66930  0.91360  0.38310  Biso   1.000  H
  H12      1.0000 0.33070  0.41360  0.11690  Biso   1.000  H
  C45      1.0000 0.20980  0.97522  0.09710  Biso   1.000  C
  C46      1.0000 0.79020  0.47522  0.40290  Biso   1.000  C
  C47      1.0000 0.79020  0.02478  0.90290  Biso   1.000  C
  C48      1.0000 0.20980  0.52478  0.59710  Biso   1.000  C
  H13      1.0000 0.18180  0.96640  0.99750  Biso   1.000  H
  H14      1.0000 0.81820  0.46640  0.50250  Biso   1.000  H
  H15      1.0000 0.81820  0.03360  0.00250  Biso   1.000  H
  H16      1.0000 0.18180  0.53360  0.49750  Biso   1.000  H
  N13      1.0000 0.28430  0.86641  0.20380  Biso   1.000  N
  N14      1.0000 0.71570  0.36641  0.29620  Biso   1.000  N
  N15      1.0000 0.71570  0.13359  0.79620  Biso   1.000  N
  N16      1.0000 0.28430  0.63359  0.70380  Biso   1.000  N
  C49      1.0000 0.75700  0.13565  0.32100  Biso   1.000  C
  C50      1.0000 0.24300  0.63565  0.17900  Biso   1.000  C
  C51      1.0000 0.24300  0.86435  0.67900  Biso   1.000  C
  C52      1.0000 0.75700  0.36435  0.82100  Biso   1.000  C
  C53      1.0000 0.42230  0.02826  0.81460  Biso   1.000  C
  C54      1.0000 0.57770  0.52826  0.68540  Biso   1.000  C
  C55      1.0000 0.57770  0.97174  0.18540  Biso   1.000  C
  C56      1.0000 0.42230  0.47174  0.31460  Biso   1.000  C
  H17      1.0000 0.45970  0.02130  0.91760  Biso   1.000  H
  H18      1.0000 0.54030  0.52130  0.58240  Biso   1.000  H
  H19      1.0000 0.54030  0.97870  0.08240  Biso   1.000  H
  H20      1.0000 0.45970  0.47870  0.41760  Biso   1.000  H
  C57      1.0000 0.09860  0.01556  0.81520  Biso   1.000  C
  C58      1.0000 0.90140  0.51556  0.68480  Biso   1.000  C
  C59      1.0000 0.90140  0.98444  0.18480  Biso   1.000  C
  C60      1.0000 0.09860  0.48444  0.31520  Biso   1.000  C
  H21      1.0000 0.09170  0.99610  0.79170  Biso   1.000  H
  H22      1.0000 0.90830  0.49610  0.70830  Biso   1.000  H
  H23      1.0000 0.90830  0.00390  0.20830  Biso   1.000  H
  H24      1.0000 0.09170  0.50390  0.29170  Biso   1.000  H
  C61      1.0000 0.06720  0.06432  0.73330  Biso   1.000  C
  C62      1.0000 0.93280  0.56432  0.76670  Biso   1.000  C
  C63      1.0000 0.93280  0.93568  0.26670  Biso   1.000  C
  C64      1.0000 0.06720  0.43568  0.23330  Biso   1.000  C
  H25      1.0000 0.03940  0.07820  0.65440  Biso   1.000  H
  H26      1.0000 0.96060  0.57820  0.84560  Biso   1.000  H
  H27      1.0000 0.96060  0.92180  0.34560  Biso   1.000  H
  H28      1.0000 0.03940  0.42180  0.15440  Biso   1.000  H
  C65      1.0000 0.35600  0.91067  0.34410  Biso   1.000  C
  C66      1.0000 0.64400  0.41067  0.15590  Biso   1.000  C
  C67      1.0000 0.64400  0.08933  0.65590  Biso   1.000  C
  C68      1.0000 0.35600  0.58933  0.84410  Biso   1.000  C
  H29      1.0000 0.41230  0.91970  0.43400  Biso   1.000  H
  H30      1.0000 0.58770  0.41970  0.06600  Biso   1.000  H
  H31      1.0000 0.58770  0.08030  0.56600  Biso   1.000  H
  H32      1.0000 0.41230  0.58030  0.93400  Biso   1.000  H
  C69      1.0000 0.05490  0.03569  0.69420  Biso   1.000  C
  C70      1.0000 0.94510  0.53569  0.80580  Biso   1.000  C
  C71      1.0000 0.94510  0.96431  0.30580  Biso   1.000  C
  C72      1.0000 0.05490  0.46431  0.19420  Biso   1.000  C
  H33      1.0000 0.01790  0.02990  0.58870  Biso   1.000  H
  H34      1.0000 0.98210  0.52990  0.91130  Biso   1.000  H
  H35      1.0000 0.98210  0.97010  0.41130  Biso   1.000  H
  H36      1.0000 0.01790  0.47010  0.08870  Biso   1.000  H
  C73      1.0000 0.38810  0.00959  0.68490  Biso   1.000  C
  C74      1.0000 0.61190  0.50959  0.81510  Biso   1.000  C
  C75      1.0000 0.61190  0.99041  0.31510  Biso   1.000  C
  C76      1.0000 0.38810  0.49041  0.18490  Biso   1.000  C
  H37      1.0000 0.40170  0.98990  0.70000  Biso   1.000  H
  H38      1.0000 0.59830  0.48990  0.80000  Biso   1.000  H
  H39      1.0000 0.59830  0.01010  0.30000  Biso   1.000  H
  H40      1.0000 0.40170  0.51010  0.20000  Biso   1.000  H
  C77      1.0000 0.63270  0.12152  0.28640  Biso   1.000  C
  C78      1.0000 0.36730  0.62152  0.21360  Biso   1.000  C
  C79      1.0000 0.36730  0.87848  0.71360  Biso   1.000  C
  C80      1.0000 0.63270  0.37848  0.78640  Biso   1.000  C
  H41      1.0000 0.55440  0.13190  0.28010  Biso   1.000  H
  H42      1.0000 0.44560  0.63190  0.21990  Biso   1.000  H
  H43      1.0000 0.44560  0.86810  0.71990  Biso   1.000  H
  H44      1.0000 0.55440  0.36810  0.78010  Biso   1.000  H
  C81      1.0000 0.40010  0.05713  0.78840  Biso   1.000  C
  C82      1.0000 0.59990  0.55713  0.71160  Biso   1.000  C
  C83      1.0000 0.59990  0.94287  0.21160  Biso   1.000  C
  C84      1.0000 0.40010  0.44287  0.28840  Biso   1.000  C
  H45      1.0000 0.42140  0.06990  0.87350  Biso   1.000  H
  H46      1.0000 0.57860  0.56990  0.62650  Biso   1.000  H
  H47      1.0000 0.57860  0.93010  0.12650  Biso   1.000  H
  H48      1.0000 0.42140  0.43010  0.37350  Biso   1.000  H
  C85      1.0000 0.12130  0.07212  0.89050  Biso   1.000  C
  C86      1.0000 0.87870  0.57212  0.60950  Biso   1.000  C
  C87      1.0000 0.87870  0.92788  0.10950  Biso   1.000  C
  C88      1.0000 0.12130  0.42788  0.39050  Biso   1.000  C
  H49      1.0000 0.12950  0.09150  0.91590  Biso   1.000  H
  H50      1.0000 0.87050  0.59150  0.58410  Biso   1.000  H
  H51      1.0000 0.87050  0.90850  0.08410  Biso   1.000  H
  H52      1.0000 0.12950  0.40850  0.41590  Biso   1.000  H
  C89      1.0000 0.19880  0.88203  0.09390  Biso   1.000  C
  C90      1.0000 0.80120  0.38203  0.40610  Biso   1.000  C
  C91      1.0000 0.80120  0.11797  0.90610  Biso   1.000  C
  C92      1.0000 0.19880  0.61797  0.59390  Biso   1.000  C
  H53      1.0000 0.14310  0.87240  0.00600  Biso   1.000  H
  H54      1.0000 0.85690  0.37240  0.49400  Biso   1.000  H
  H55      1.0000 0.85690  0.12760  0.99400  Biso   1.000  H
  H56      1.0000 0.14310  0.62760  0.50600  Biso   1.000  H
  C93      1.0000 0.49390  0.07560  0.23590  Biso   1.000  C
  C94      1.0000 0.50610  0.57560  0.26410  Biso   1.000  C
  C95      1.0000 0.50610  0.92440  0.76410  Biso   1.000  C
  C96      1.0000 0.49390  0.42440  0.73590  Biso   1.000  C
  C97      1.0000 0.29950  0.97303  0.38220  Biso   1.000  C
  C98      1.0000 0.70050  0.47303  0.11780  Biso   1.000  C
  C99      1.0000 0.70050  0.02697  0.61780  Biso   1.000  C
  C100     1.0000 0.29950  0.52697  0.88220  Biso   1.000  C
  H57      1.0000 0.33190  0.96270  0.47670  Biso   1.000  H
  H58      1.0000 0.66810  0.46270  0.02330  Biso   1.000  H
  H59      1.0000 0.66810  0.03730  0.52330  Biso   1.000  H
  H60      1.0000 0.33190  0.53730  0.97670  Biso   1.000  H
  C101     1.0000 0.99030  0.07392  0.29480  Biso   1.000  C
  C102     1.0000 0.00970  0.57392  0.20520  Biso   1.000  C
  C103     1.0000 0.00970  0.92608  0.70520  Biso   1.000  C
  C104     1.0000 0.99030  0.42608  0.79480  Biso   1.000  C
  C105     1.0000 0.18530  0.91147  0.09870  Biso   1.000  C
  C106     1.0000 0.81470  0.41147  0.40130  Biso   1.000  C
  C107     1.0000 0.81470  0.08853  0.90130  Biso   1.000  C
  C108     1.0000 0.18530  0.58853  0.59870  Biso   1.000  C
  H61      1.0000 0.12220  0.92100  0.01650  Biso   1.000  H
  H62      1.0000 0.87780  0.42100  0.48350  Biso   1.000  H
  H63      1.0000 0.87780  0.07900  0.98350  Biso   1.000  H
  H64      1.0000 0.12220  0.57900  0.51650  Biso   1.000  H
  C109     1.0000 0.76960  0.16734  0.35250  Biso   1.000  C
  C110     1.0000 0.23040  0.66734  0.14750  Biso   1.000  C
  C111     1.0000 0.23040  0.83266  0.64750  Biso   1.000  C
  C112     1.0000 0.76960  0.33266  0.85250  Biso   1.000  C
  C113     1.0000 0.36180  0.88118  0.32730  Biso   1.000  C
  C114     1.0000 0.63820  0.38118  0.17270  Biso   1.000  C
  C115     1.0000 0.63820  0.11882  0.67270  Biso   1.000  C
  C116     1.0000 0.36180  0.61882  0.82730  Biso   1.000  C
  H65      1.0000 0.42380  0.87100  0.40750  Biso   1.000  H
  H66      1.0000 0.57620  0.37100  0.09250  Biso   1.000  H
  H67      1.0000 0.57620  0.12900  0.59250  Biso   1.000  H
  H68      1.0000 0.42380  0.62900  0.90750  Biso   1.000  H
  H69      1.0000 0.66600  0.20100  0.34600  Biso   1.000  H
  H70      1.0000 0.33400  0.70100  0.15400  Biso   1.000  H
  H71      1.0000 0.33400  0.79900  0.65400  Biso   1.000  H
  H72      1.0000 0.66600  0.29900  0.84600  Biso   1.000  H
  N17      1.0000 0.16650  0.29515  0.70020  Biso   1.000  N
  N18      1.0000 0.83350  0.79515  0.79980  Biso   1.000  N
  N19      1.0000 0.83350  0.70485  0.29980  Biso   1.000  N
  N20      1.0000 0.16650  0.20485  0.20020  Biso   1.000  N
  C117     1.0000 0.26880  0.29855  0.83390  Biso   1.000  C
  C118     1.0000 0.73120  0.79855  0.66610  Biso   1.000  C
  C119     1.0000 0.73120  0.70145  0.16610  Biso   1.000  C
  C120     1.0000 0.26880  0.20145  0.33390  Biso   1.000  C
  N21      1.0000 0.43690  0.27601  0.04790  Biso   1.000  N
  N22      1.0000 0.56310  0.77601  0.45210  Biso   1.000  N
  N23      1.0000 0.56310  0.72399  0.95210  Biso   1.000  N
  N24      1.0000 0.43690  0.22399  0.54790  Biso   1.000  N
  N25      1.0000 0.68200  0.23712  0.35610  Biso   1.000  N
  N26      1.0000 0.31800  0.73712  0.14390  Biso   1.000  N
  N27      1.0000 0.31800  0.76288  0.64390  Biso   1.000  N
  N28      1.0000 0.68200  0.26288  0.85610  Biso   1.000  N
  C121     1.0000 0.61530  0.25912  0.26940  Biso   1.000  C
  C122     1.0000 0.38470  0.75912  0.23060  Biso   1.000  C
  C123     1.0000 0.38470  0.74088  0.73060  Biso   1.000  C
  C124     1.0000 0.61530  0.24088  0.76940  Biso   1.000  C
  C125     1.0000 0.25650  0.34924  0.81010  Biso   1.000  C
  C126     1.0000 0.74350  0.84924  0.68990  Biso   1.000  C
  C127     1.0000 0.74350  0.65076  0.18990  Biso   1.000  C
  C128     1.0000 0.25650  0.15076  0.31010  Biso   1.000  C
  H73      1.0000 0.28670  0.36740  0.84820  Biso   1.000  H
  H74      1.0000 0.71330  0.86740  0.65180  Biso   1.000  H
  H75      1.0000 0.71330  0.63260  0.15180  Biso   1.000  H
  H76      1.0000 0.28670  0.13260  0.34820  Biso   1.000  H
  C129     1.0000 0.33330  0.27186  0.91590  Biso   1.000  C
  C130     1.0000 0.66670  0.77186  0.58410  Biso   1.000  C
  C131     1.0000 0.66670  0.72814  0.08410  Biso   1.000  C
  C132     1.0000 0.33330  0.22814  0.41590  Biso   1.000  C
  C133     1.0000 0.31540  0.19106  0.87340  Biso   1.000  C
  C134     1.0000 0.68460  0.69106  0.62660  Biso   1.000  C
  C135     1.0000 0.68460  0.80894  0.12660  Biso   1.000  C
  C136     1.0000 0.31540  0.30894  0.37340  Biso   1.000  C
  C137     1.0000 0.19620  0.18518  0.75780  Biso   1.000  C
  C138     1.0000 0.80380  0.68518  0.74220  Biso   1.000  C
  C139     1.0000 0.80380  0.81482  0.24220  Biso   1.000  C
  C140     1.0000 0.19620  0.31482  0.25780  Biso   1.000  C
  H77      1.0000 0.13750  0.20010  0.71300  Biso   1.000  H
  H78      1.0000 0.86250  0.70010  0.78700  Biso   1.000  H
  H79      1.0000 0.86250  0.79990  0.28700  Biso   1.000  H
  H80      1.0000 0.13750  0.29990  0.21300  Biso   1.000  H
  C141     1.0000 0.46040  0.22508  0.07250  Biso   1.000  C
  C142     1.0000 0.53960  0.72508  0.42750  Biso   1.000  C
  C143     1.0000 0.53960  0.77492  0.92750  Biso   1.000  C
  C144     1.0000 0.46040  0.27492  0.57250  Biso   1.000  C
  H81      1.0000 0.50500  0.20940  0.13040  Biso   1.000  H
  H82      1.0000 0.49500  0.70940  0.36960  Biso   1.000  H
  H83      1.0000 0.49500  0.79060  0.86960  Biso   1.000  H
  H84      1.0000 0.50500  0.29060  0.63040  Biso   1.000  H
  N29      1.0000 0.24130  0.13477  0.76270  Biso   1.000  N
  N30      1.0000 0.75870  0.63477  0.73730  Biso   1.000  N
  N31      1.0000 0.75870  0.86523  0.23730  Biso   1.000  N
  N32      1.0000 0.24130  0.36523  0.26270  Biso   1.000  N
  C145     1.0000 0.50000  0.25274  0.12500  Biso   1.000  C
  C146     1.0000 0.50000  0.75274  0.37500  Biso   1.000  C
  C147     1.0000 0.50000  0.74726  0.87500  Biso   1.000  C
  C148     1.0000 0.50000  0.24726  0.62500  Biso   1.000  C
  C149     1.0000 0.11050  0.31917  0.62330  Biso   1.000  C
  C150     1.0000 0.88950  0.81917  0.87670  Biso   1.000  C
  C151     1.0000 0.88950  0.68083  0.37670  Biso   1.000  C
  C152     1.0000 0.11050  0.18083  0.12330  Biso   1.000  C
  H85      1.0000 0.03930  0.31720  0.53010  Biso   1.000  H
  H86      1.0000 0.96070  0.81720  0.96990  Biso   1.000  H
  H87      1.0000 0.96070  0.68280  0.46990  Biso   1.000  H
  H88      1.0000 0.03930  0.18280  0.03010  Biso   1.000  H
  C153     1.0000 0.28950  0.24479  0.85510  Biso   1.000  C
  C154     1.0000 0.71050  0.74479  0.64490  Biso   1.000  C
  C155     1.0000 0.71050  0.75521  0.14490  Biso   1.000  C
  C156     1.0000 0.28950  0.25521  0.35510  Biso   1.000  C
  H89      1.0000 0.21740  0.24290  0.76270  Biso   1.000  H
  H90      1.0000 0.78260  0.74290  0.73730  Biso   1.000  H
  H91      1.0000 0.78260  0.75710  0.23730  Biso   1.000  H
  H92      1.0000 0.21740  0.25710  0.26270  Biso   1.000  H
  C157     1.0000 0.31730  0.32518  0.89130  Biso   1.000  C
  C158     1.0000 0.68270  0.82518  0.60870  Biso   1.000  C
  C159     1.0000 0.68270  0.67482  0.10870  Biso   1.000  C
  C160     1.0000 0.31730  0.17482  0.39130  Biso   1.000  C
  H93      1.0000 0.38990  0.32690  0.98340  Biso   1.000  H
  H94      1.0000 0.61010  0.82690  0.51660  Biso   1.000  H
  H95      1.0000 0.61010  0.67310  0.01660  Biso   1.000  H
  H96      1.0000 0.38990  0.17310  0.48340  Biso   1.000  H
  C161     1.0000 0.76060  0.29273  0.44340  Biso   1.000  C
  C162     1.0000 0.23940  0.79273  0.05660  Biso   1.000  C
  C163     1.0000 0.23940  0.70727  0.55660  Biso   1.000  C
  C164     1.0000 0.76060  0.20727  0.94340  Biso   1.000  C
  H97      1.0000 0.78670  0.31150  0.47240  Biso   1.000  H
  H98      1.0000 0.21330  0.81150  0.02760  Biso   1.000  H
  H99      1.0000 0.21330  0.68850  0.52760  Biso   1.000  H
  H100     1.0000 0.78670  0.18850  0.97240  Biso   1.000  H
  C165     1.0000 0.35530  0.22074  0.93480  Biso   1.000  C
  C166     1.0000 0.64470  0.72074  0.56520  Biso   1.000  C
  C167     1.0000 0.64470  0.77926  0.06520  Biso   1.000  C
  C168     1.0000 0.35530  0.27926  0.43480  Biso   1.000  C
  C169     1.0000 0.78660  0.24290  0.48370  Biso   1.000  C
  C170     1.0000 0.21340  0.74290  0.01630  Biso   1.000  C
  C171     1.0000 0.21340  0.75710  0.51630  Biso   1.000  C
  C172     1.0000 0.78660  0.25710  0.98370  Biso   1.000  C
  H101     1.0000 0.83370  0.22760  0.54240  Biso   1.000  H
  H102     1.0000 0.16630  0.72760  0.95760  Biso   1.000  H
  H103     1.0000 0.16630  0.77240  0.45760  Biso   1.000  H
  H104     1.0000 0.83370  0.27240  0.04240  Biso   1.000  H
  C173     1.0000 0.39710  0.16784  0.92890  Biso   1.000  C
  C174     1.0000 0.60290  0.66784  0.57110  Biso   1.000  C
  C175     1.0000 0.60290  0.83216  0.07110  Biso   1.000  C
  C176     1.0000 0.39710  0.33216  0.42890  Biso   1.000  C
  H105     1.0000 0.48000  0.17040  0.00600  Biso   1.000  H
  H106     1.0000 0.52000  0.67040  0.49400  Biso   1.000  H
  H107     1.0000 0.52000  0.82960  0.99400  Biso   1.000  H
  H108     1.0000 0.48000  0.32960  0.50600  Biso   1.000  H
  C177     1.0000 0.82860  0.27032  0.53350  Biso   1.000  C
  C178     1.0000 0.17140  0.77032  0.96650  Biso   1.000  C
  C179     1.0000 0.17140  0.72968  0.46650  Biso   1.000  C
  C180     1.0000 0.82860  0.22968  0.03350  Biso   1.000  C
  H109     1.0000 0.90050  0.27350  0.62480  Biso   1.000  H
  H110     1.0000 0.09950  0.77350  0.87520  Biso   1.000  H
  H111     1.0000 0.09950  0.72650  0.37520  Biso   1.000  H
  H112     1.0000 0.90050  0.22650  0.12480  Biso   1.000  H
  C181     1.0000 0.35650  0.14070  0.87060  Biso   1.000  C
  C182     1.0000 0.64350  0.64070  0.62940  Biso   1.000  C
  C183     1.0000 0.64350  0.85930  0.12940  Biso   1.000  C
  C184     1.0000 0.35650  0.35930  0.37060  Biso   1.000  C
  H113     1.0000 0.41500  0.12550  0.91060  Biso   1.000  H
  H114     1.0000 0.58500  0.62550  0.58940  Biso   1.000  H
  H115     1.0000 0.58500  0.87450  0.08940  Biso   1.000  H
  H116     1.0000 0.41500  0.37450  0.41060  Biso   1.000  H
  C185     1.0000 0.65410  0.28737  0.31050  Biso   1.000  C
  C186     1.0000 0.34590  0.78737  0.18950  Biso   1.000  C
  C187     1.0000 0.34590  0.71263  0.68950  Biso   1.000  C
  C188     1.0000 0.65410  0.21263  0.81050  Biso   1.000  C
  C189     1.0000 0.15230  0.34631  0.67410  Biso   1.000  C
  C190     1.0000 0.84770  0.84631  0.82590  Biso   1.000  C
  C191     1.0000 0.84770  0.65369  0.32590  Biso   1.000  C
  C192     1.0000 0.15230  0.15369  0.17410  Biso   1.000  C
  H117     1.0000 0.11050  0.36230  0.61720  Biso   1.000  H
  H118     1.0000 0.88950  0.86230  0.88280  Biso   1.000  H
  H119     1.0000 0.88950  0.63770  0.38280  Biso   1.000  H
  H120     1.0000 0.11050  0.13770  0.11720  Biso   1.000  H
  C193     1.0000 0.16300  0.15736  0.70760  Biso   1.000  C
  C194     1.0000 0.83700  0.65736  0.79240  Biso   1.000  C
  C195     1.0000 0.83700  0.84264  0.29240  Biso   1.000  C
  C196     1.0000 0.16300  0.34264  0.20760  Biso   1.000  C
  H121     1.0000 0.08060  0.15420  0.63060  Biso   1.000  H
  H122     1.0000 0.91940  0.65420  0.86940  Biso   1.000  H
  H123     1.0000 0.91940  0.84580  0.36940  Biso   1.000  H
  H124     1.0000 0.08060  0.34580  0.13060  Biso   1.000  H
  H125     1.0000 0.60300  0.30370  0.23400  Biso   1.000  H
  H126     1.0000 0.39700  0.80370  0.26600  Biso   1.000  H
  H127     1.0000 0.39700  0.69630  0.76600  Biso   1.000  H
  H128     1.0000 0.60300  0.19630  0.73400  Biso   1.000  H
