data_image0
_cell_length_a       15.62
_cell_length_b       14.598
_cell_length_c       18.616
_cell_angle_alpha    90
_cell_angle_beta     90
_cell_angle_gamma    90

_symmetry_space_group_name_H-M    "P 1"
_symmetry_int_tables_number       1

loop_
  _symmetry_equiv_pos_as_xyz
  'x, y, z'

loop_
  _atom_site_label
  _atom_site_occupancy
  _atom_site_fract_x
  _atom_site_fract_y
  _atom_site_fract_z
  _atom_site_thermal_displace_type
  _atom_site_B_iso_or_equiv
  _atom_site_type_symbol
  Cu1      1.0000 0.24404  0.39844  0.43722  Biso   1.000  Cu
  Cu2      1.0000 0.25596  0.60156  0.93722  Biso   1.000  Cu
  Cu3      1.0000 0.74404  0.10156  0.56278  Biso   1.000  Cu
  Cu4      1.0000 0.75596  0.89844  0.06278  Biso   1.000  Cu
  Cu5      1.0000 0.75596  0.60156  0.56278  Biso   1.000  Cu
  Cu6      1.0000 0.74404  0.39844  0.06278  Biso   1.000  Cu
  Cu7      1.0000 0.25596  0.89844  0.43722  Biso   1.000  Cu
  Cu8      1.0000 0.24404  0.10156  0.93722  Biso   1.000  Cu
  O1       1.0000 0.14532  0.43670  0.38161  Biso   1.000  O
  O2       1.0000 0.35468  0.56330  0.88161  Biso   1.000  O
  O3       1.0000 0.64532  0.06330  0.61839  Biso   1.000  O
  O4       1.0000 0.85468  0.93670  0.11839  Biso   1.000  O
  O5       1.0000 0.85468  0.56330  0.61839  Biso   1.000  O
  O6       1.0000 0.64532  0.43670  0.11839  Biso   1.000  O
  O7       1.0000 0.35468  0.93670  0.38161  Biso   1.000  O
  O8       1.0000 0.14532  0.06330  0.88161  Biso   1.000  O
  O9       1.0000 0.12024  0.29710  0.33748  Biso   1.000  O
  O10      1.0000 0.37976  0.70290  0.83748  Biso   1.000  O
  O11      1.0000 0.62024  0.20290  0.66252  Biso   1.000  O
  O12      1.0000 0.87976  0.79710  0.16252  Biso   1.000  O
  O13      1.0000 0.87976  0.70290  0.66252  Biso   1.000  O
  O14      1.0000 0.62024  0.29710  0.16252  Biso   1.000  O
  O15      1.0000 0.37976  0.79710  0.33748  Biso   1.000  O
  O16      1.0000 0.12024  0.20290  0.83748  Biso   1.000  O
  O17      1.0000 0.99019  0.36718  0.25302  Biso   1.000  O
  O18      1.0000 0.50981  0.63282  0.75302  Biso   1.000  O
  O19      1.0000 0.49019  0.13282  0.74698  Biso   1.000  O
  O20      1.0000 0.00981  0.86718  0.24698  Biso   1.000  O
  O21      1.0000 0.00981  0.63282  0.74698  Biso   1.000  O
  O22      1.0000 0.49019  0.36718  0.24698  Biso   1.000  O
  O23      1.0000 0.50981  0.86718  0.25302  Biso   1.000  O
  O24      1.0000 0.99019  0.13282  0.75302  Biso   1.000  O
  O25      1.0000 0.82149  0.43750  0.13743  Biso   1.000  O
  O26      1.0000 0.67851  0.56250  0.63743  Biso   1.000  O
  O27      1.0000 0.32149  0.06250  0.86257  Biso   1.000  O
  O28      1.0000 0.17851  0.93750  0.36257  Biso   1.000  O
  O29      1.0000 0.17851  0.56250  0.86257  Biso   1.000  O
  O30      1.0000 0.32149  0.43750  0.36257  Biso   1.000  O
  O31      1.0000 0.67851  0.93750  0.13743  Biso   1.000  O
  O32      1.0000 0.82149  0.06250  0.63743  Biso   1.000  O
  O33      1.0000 0.87656  0.29720  0.15283  Biso   1.000  O
  O34      1.0000 0.62344  0.70280  0.65283  Biso   1.000  O
  O35      1.0000 0.37656  0.20280  0.84717  Biso   1.000  O
  O36      1.0000 0.12344  0.79720  0.34717  Biso   1.000  O
  O37      1.0000 0.12344  0.70280  0.84717  Biso   1.000  O
  O38      1.0000 0.37656  0.29720  0.34717  Biso   1.000  O
  O39      1.0000 0.62344  0.79720  0.15283  Biso   1.000  O
  O40      1.0000 0.87656  0.20280  0.65283  Biso   1.000  O
  O41      1.0000 0.36449  0.58880  0.54050  Biso   1.000  O
  O42      1.0000 0.13551  0.41120  0.04050  Biso   1.000  O
  O43      1.0000 0.86449  0.91120  0.45950  Biso   1.000  O
  O44      1.0000 0.63551  0.08880  0.95950  Biso   1.000  O
  O45      1.0000 0.63551  0.41120  0.45950  Biso   1.000  O
  O46      1.0000 0.86449  0.58880  0.95950  Biso   1.000  O
  O47      1.0000 0.13551  0.08880  0.54050  Biso   1.000  O
  O48      1.0000 0.36449  0.91120  0.04050  Biso   1.000  O
  N1       1.0000 0.33870  0.37430  0.50900  Biso   1.000  N
  N2       1.0000 0.16130  0.62570  0.00900  Biso   1.000  N
  N3       1.0000 0.83870  0.12570  0.49100  Biso   1.000  N
  N4       1.0000 0.66130  0.87430  0.99100  Biso   1.000  N
  N5       1.0000 0.66130  0.62570  0.49100  Biso   1.000  N
  N6       1.0000 0.83870  0.37430  0.99100  Biso   1.000  N
  N7       1.0000 0.16130  0.87430  0.50900  Biso   1.000  N
  N8       1.0000 0.33870  0.12570  0.00900  Biso   1.000  N
  N9       1.0000 0.17120  0.34700  0.51765  Biso   1.000  N
  N10      1.0000 0.32880  0.65300  0.01765  Biso   1.000  N
  N11      1.0000 0.67120  0.15300  0.48235  Biso   1.000  N
  N12      1.0000 0.82880  0.84700  0.98235  Biso   1.000  N
  N13      1.0000 0.82880  0.65300  0.48235  Biso   1.000  N
  N14      1.0000 0.67120  0.34700  0.98235  Biso   1.000  N
  N15      1.0000 0.32880  0.84700  0.51765  Biso   1.000  N
  N16      1.0000 0.17120  0.15300  0.01765  Biso   1.000  N
  N17      1.0000 0.24290  0.57470  0.60884  Biso   1.000  N
  N18      1.0000 0.25710  0.42530  0.10884  Biso   1.000  N
  N19      1.0000 0.74290  0.92530  0.39116  Biso   1.000  N
  N20      1.0000 0.75710  0.07470  0.89116  Biso   1.000  N
  N21      1.0000 0.75710  0.42530  0.39116  Biso   1.000  N
  N22      1.0000 0.74290  0.57470  0.89116  Biso   1.000  N
  N23      1.0000 0.25710  0.07470  0.60884  Biso   1.000  N
  N24      1.0000 0.24290  0.92530  0.10884  Biso   1.000  N
  N25      1.0000 0.22900  0.57990  0.48911  Biso   1.000  N
  N26      1.0000 0.27100  0.42010  0.98911  Biso   1.000  N
  N27      1.0000 0.72900  0.92010  0.51089  Biso   1.000  N
  N28      1.0000 0.77100  0.07990  0.01089  Biso   1.000  N
  N29      1.0000 0.77100  0.42010  0.51089  Biso   1.000  N
  N30      1.0000 0.72900  0.57990  0.01089  Biso   1.000  N
  N31      1.0000 0.27100  0.07990  0.48911  Biso   1.000  N
  N32      1.0000 0.22900  0.92010  0.98911  Biso   1.000  N
  C1       1.0000 0.10650  0.37890  0.34036  Biso   1.000  C
  C2       1.0000 0.39350  0.62110  0.84036  Biso   1.000  C
  C3       1.0000 0.60650  0.12110  0.65964  Biso   1.000  C
  C4       1.0000 0.89350  0.87890  0.15964  Biso   1.000  C
  C5       1.0000 0.89350  0.62110  0.65964  Biso   1.000  C
  C6       1.0000 0.60650  0.37890  0.15964  Biso   1.000  C
  C7       1.0000 0.39350  0.87890  0.34036  Biso   1.000  C
  C8       1.0000 0.10650  0.12110  0.84036  Biso   1.000  C
  C9       1.0000 0.04000  0.42340  0.29553  Biso   1.000  C
  C10      1.0000 0.46000  0.57660  0.79553  Biso   1.000  C
  C11      1.0000 0.54000  0.07660  0.70447  Biso   1.000  C
  C12      1.0000 0.96000  0.92340  0.20447  Biso   1.000  C
  C13      1.0000 0.96000  0.57660  0.70447  Biso   1.000  C
  C14      1.0000 0.54000  0.42340  0.20447  Biso   1.000  C
  C15      1.0000 0.46000  0.92340  0.29553  Biso   1.000  C
  C16      1.0000 0.04000  0.07660  0.79553  Biso   1.000  C
  C17      1.0000 0.01560  0.51220  0.28690  Biso   1.000  C
  C18      1.0000 0.48440  0.48780  0.78690  Biso   1.000  C
  C19      1.0000 0.51560  0.98780  0.71310  Biso   1.000  C
  C20      1.0000 0.98440  0.01220  0.21310  Biso   1.000  C
  C21      1.0000 0.98440  0.48780  0.71310  Biso   1.000  C
  C22      1.0000 0.51560  0.51220  0.21310  Biso   1.000  C
  C23      1.0000 0.48440  0.01220  0.28690  Biso   1.000  C
  C24      1.0000 0.01560  0.98780  0.78690  Biso   1.000  C
  H1       1.0000 0.03920  0.56320  0.30940  Biso   1.000  H
  H2       1.0000 0.46080  0.43680  0.80940  Biso   1.000  H
  H3       1.0000 0.53920  0.93680  0.69060  Biso   1.000  H
  H4       1.0000 0.96080  0.06320  0.19060  Biso   1.000  H
  H5       1.0000 0.96080  0.43680  0.69060  Biso   1.000  H
  H6       1.0000 0.53920  0.56320  0.19060  Biso   1.000  H
  H7       1.0000 0.46080  0.06320  0.30940  Biso   1.000  H
  H8       1.0000 0.03920  0.93680  0.80940  Biso   1.000  H
  C25      1.0000 0.94660  0.51170  0.23660  Biso   1.000  C
  C26      1.0000 0.55340  0.48830  0.73660  Biso   1.000  C
  C27      1.0000 0.44660  0.98830  0.76340  Biso   1.000  C
  C28      1.0000 0.05340  0.01170  0.26340  Biso   1.000  C
  C29      1.0000 0.05340  0.48830  0.76340  Biso   1.000  C
  C30      1.0000 0.44660  0.51170  0.26340  Biso   1.000  C
  C31      1.0000 0.55340  0.01170  0.23660  Biso   1.000  C
  C32      1.0000 0.94660  0.98830  0.73660  Biso   1.000  C
  H9       1.0000 0.91670  0.56260  0.22000  Biso   1.000  H
  H10      1.0000 0.58330  0.43740  0.72000  Biso   1.000  H
  H11      1.0000 0.41670  0.93740  0.78000  Biso   1.000  H
  H12      1.0000 0.08330  0.06260  0.28000  Biso   1.000  H
  H13      1.0000 0.08330  0.43740  0.78000  Biso   1.000  H
  H14      1.0000 0.41670  0.56260  0.28000  Biso   1.000  H
  H15      1.0000 0.58330  0.06260  0.22000  Biso   1.000  H
  H16      1.0000 0.91670  0.93740  0.72000  Biso   1.000  H
  C33      1.0000 0.93280  0.42280  0.21737  Biso   1.000  C
  C34      1.0000 0.56720  0.57720  0.71737  Biso   1.000  C
  C35      1.0000 0.43280  0.07720  0.78263  Biso   1.000  C
  C36      1.0000 0.06720  0.92280  0.28263  Biso   1.000  C
  C37      1.0000 0.06720  0.57720  0.78263  Biso   1.000  C
  C38      1.0000 0.43280  0.42280  0.28263  Biso   1.000  C
  C39      1.0000 0.56720  0.92280  0.21737  Biso   1.000  C
  C40      1.0000 0.93280  0.07720  0.71737  Biso   1.000  C
  C41      1.0000 0.87320  0.37950  0.16585  Biso   1.000  C
  C42      1.0000 0.62680  0.62050  0.66585  Biso   1.000  C
  C43      1.0000 0.37320  0.12050  0.83415  Biso   1.000  C
  C44      1.0000 0.12680  0.87950  0.33415  Biso   1.000  C
  C45      1.0000 0.12680  0.62050  0.83415  Biso   1.000  C
  C46      1.0000 0.37320  0.37950  0.33415  Biso   1.000  C
  C47      1.0000 0.62680  0.87950  0.16585  Biso   1.000  C
  C48      1.0000 0.87320  0.12050  0.66585  Biso   1.000  C
  C49      1.0000 0.42210  0.38740  0.50290  Biso   1.000  C
  C50      1.0000 0.07790  0.61260  0.00290  Biso   1.000  C
  C51      1.0000 0.92210  0.11260  0.49710  Biso   1.000  C
  C52      1.0000 0.57790  0.88740  0.99710  Biso   1.000  C
  C53      1.0000 0.57790  0.61260  0.49710  Biso   1.000  C
  C54      1.0000 0.92210  0.38740  0.99710  Biso   1.000  C
  C55      1.0000 0.07790  0.88740  0.50290  Biso   1.000  C
  C56      1.0000 0.42210  0.11260  0.00290  Biso   1.000  C
  H17      1.0000 0.44320  0.41250  0.46050  Biso   1.000  H
  H18      1.0000 0.05680  0.58750  0.96050  Biso   1.000  H
  H19      1.0000 0.94320  0.08750  0.53950  Biso   1.000  H
  H20      1.0000 0.55680  0.91250  0.03950  Biso   1.000  H
  H21      1.0000 0.55680  0.58750  0.53950  Biso   1.000  H
  H22      1.0000 0.94320  0.41250  0.03950  Biso   1.000  H
  H23      1.0000 0.05680  0.91250  0.46050  Biso   1.000  H
  H24      1.0000 0.44320  0.08750  0.96050  Biso   1.000  H
  C57      1.0000 0.48050  0.36490  0.55810  Biso   1.000  C
  C58      1.0000 0.01950  0.63510  0.05810  Biso   1.000  C
  C59      1.0000 0.98050  0.13510  0.44190  Biso   1.000  C
  C60      1.0000 0.51950  0.86490  0.94190  Biso   1.000  C
  C61      1.0000 0.51950  0.63510  0.44190  Biso   1.000  C
  C62      1.0000 0.98050  0.36490  0.94190  Biso   1.000  C
  C63      1.0000 0.01950  0.86490  0.55810  Biso   1.000  C
  C64      1.0000 0.48050  0.13510  0.05810  Biso   1.000  C
  H25      1.0000 0.53910  0.37190  0.55110  Biso   1.000  H
  H26      1.0000 0.96090  0.62810  0.05110  Biso   1.000  H
  H27      1.0000 0.03910  0.12810  0.44890  Biso   1.000  H
  H28      1.0000 0.46090  0.87190  0.94890  Biso   1.000  H
  H29      1.0000 0.46090  0.62810  0.44890  Biso   1.000  H
  H30      1.0000 0.03910  0.37190  0.94890  Biso   1.000  H
  H31      1.0000 0.96090  0.87190  0.55110  Biso   1.000  H
  H32      1.0000 0.53910  0.12810  0.05110  Biso   1.000  H
  C65      1.0000 0.44930  0.33250  0.62210  Biso   1.000  C
  C66      1.0000 0.05070  0.66750  0.12210  Biso   1.000  C
  C67      1.0000 0.94930  0.16750  0.37790  Biso   1.000  C
  C68      1.0000 0.55070  0.83250  0.87790  Biso   1.000  C
  C69      1.0000 0.55070  0.66750  0.37790  Biso   1.000  C
  C70      1.0000 0.94930  0.33250  0.87790  Biso   1.000  C
  C71      1.0000 0.05070  0.83250  0.62210  Biso   1.000  C
  C72      1.0000 0.44930  0.16750  0.12210  Biso   1.000  C
  H33      1.0000 0.48680  0.31780  0.65910  Biso   1.000  H
  H34      1.0000 0.01320  0.68220  0.15910  Biso   1.000  H
  H35      1.0000 0.98680  0.18220  0.34090  Biso   1.000  H
  H36      1.0000 0.51320  0.81780  0.84090  Biso   1.000  H
  H37      1.0000 0.51320  0.68220  0.34090  Biso   1.000  H
  H38      1.0000 0.98680  0.31780  0.84090  Biso   1.000  H
  H39      1.0000 0.01320  0.81780  0.65910  Biso   1.000  H
  H40      1.0000 0.48680  0.18220  0.15910  Biso   1.000  H
  C73      1.0000 0.36140  0.32160  0.63140  Biso   1.000  C
  C74      1.0000 0.13860  0.67840  0.13140  Biso   1.000  C
  C75      1.0000 0.86140  0.17840  0.36860  Biso   1.000  C
  C76      1.0000 0.63860  0.82160  0.86860  Biso   1.000  C
  C77      1.0000 0.63860  0.67840  0.36860  Biso   1.000  C
  C78      1.0000 0.86140  0.32160  0.86860  Biso   1.000  C
  C79      1.0000 0.13860  0.82160  0.63140  Biso   1.000  C
  C80      1.0000 0.36140  0.17840  0.13140  Biso   1.000  C
  C81      1.0000 0.32160  0.29270  0.69780  Biso   1.000  C
  C82      1.0000 0.17840  0.70730  0.19780  Biso   1.000  C
  C83      1.0000 0.82160  0.20730  0.30220  Biso   1.000  C
  C84      1.0000 0.67840  0.79270  0.80220  Biso   1.000  C
  C85      1.0000 0.67840  0.70730  0.30220  Biso   1.000  C
  C86      1.0000 0.82160  0.29270  0.80220  Biso   1.000  C
  C87      1.0000 0.17840  0.79270  0.69780  Biso   1.000  C
  C88      1.0000 0.32160  0.20730  0.19780  Biso   1.000  C
  H41      1.0000 0.35580  0.28090  0.73770  Biso   1.000  H
  H42      1.0000 0.14420  0.71910  0.23770  Biso   1.000  H
  H43      1.0000 0.85580  0.21910  0.26230  Biso   1.000  H
  H44      1.0000 0.64420  0.78090  0.76230  Biso   1.000  H
  H45      1.0000 0.64420  0.71910  0.26230  Biso   1.000  H
  H46      1.0000 0.85580  0.28090  0.76230  Biso   1.000  H
  H47      1.0000 0.14420  0.78090  0.73770  Biso   1.000  H
  H48      1.0000 0.35580  0.21910  0.23770  Biso   1.000  H
  C89      1.0000 0.23600  0.28250  0.70330  Biso   1.000  C
  C90      1.0000 0.26400  0.71750  0.20330  Biso   1.000  C
  C91      1.0000 0.73600  0.21750  0.29670  Biso   1.000  C
  C92      1.0000 0.76400  0.78250  0.79670  Biso   1.000  C
  C93      1.0000 0.76400  0.71750  0.29670  Biso   1.000  C
  C94      1.0000 0.73600  0.28250  0.79670  Biso   1.000  C
  C95      1.0000 0.26400  0.78250  0.70330  Biso   1.000  C
  C96      1.0000 0.23600  0.21750  0.20330  Biso   1.000  C
  H49      1.0000 0.21230  0.26520  0.74700  Biso   1.000  H
  H50      1.0000 0.28770  0.73480  0.24700  Biso   1.000  H
  H51      1.0000 0.71230  0.23480  0.25300  Biso   1.000  H
  H52      1.0000 0.78770  0.76520  0.75300  Biso   1.000  H
  H53      1.0000 0.78770  0.73480  0.25300  Biso   1.000  H
  H54      1.0000 0.71230  0.26520  0.75300  Biso   1.000  H
  H55      1.0000 0.28770  0.76520  0.74700  Biso   1.000  H
  H56      1.0000 0.21230  0.23480  0.24700  Biso   1.000  H
  C97      1.0000 0.18110  0.29800  0.64300  Biso   1.000  C
  C98      1.0000 0.31890  0.70200  0.14300  Biso   1.000  C
  C99      1.0000 0.68110  0.20200  0.35700  Biso   1.000  C
  C100     1.0000 0.81890  0.79800  0.85700  Biso   1.000  C
  C101     1.0000 0.81890  0.70200  0.35700  Biso   1.000  C
  C102     1.0000 0.68110  0.29800  0.85700  Biso   1.000  C
  C103     1.0000 0.31890  0.79800  0.64300  Biso   1.000  C
  C104     1.0000 0.18110  0.20200  0.14300  Biso   1.000  C
  C105     1.0000 0.09210  0.28480  0.64320  Biso   1.000  C
  C106     1.0000 0.40790  0.71520  0.14320  Biso   1.000  C
  C107     1.0000 0.59210  0.21520  0.35680  Biso   1.000  C
  C108     1.0000 0.90790  0.78480  0.85680  Biso   1.000  C
  C109     1.0000 0.90790  0.71520  0.35680  Biso   1.000  C
  C110     1.0000 0.59210  0.28480  0.85680  Biso   1.000  C
  C111     1.0000 0.40790  0.78480  0.64320  Biso   1.000  C
  C112     1.0000 0.09210  0.21520  0.14320  Biso   1.000  C
  H57      1.0000 0.06480  0.26530  0.68480  Biso   1.000  H
  H58      1.0000 0.43520  0.73470  0.18480  Biso   1.000  H
  H59      1.0000 0.56480  0.23470  0.31520  Biso   1.000  H
  H60      1.0000 0.93520  0.76530  0.81520  Biso   1.000  H
  H61      1.0000 0.93520  0.73470  0.31520  Biso   1.000  H
  H62      1.0000 0.56480  0.26530  0.81520  Biso   1.000  H
  H63      1.0000 0.43520  0.76530  0.68480  Biso   1.000  H
  H64      1.0000 0.06480  0.23470  0.18480  Biso   1.000  H
  C113     1.0000 0.04540  0.30070  0.58210  Biso   1.000  C
  C114     1.0000 0.45460  0.69930  0.08210  Biso   1.000  C
  C115     1.0000 0.54540  0.19930  0.41790  Biso   1.000  C
  C116     1.0000 0.95460  0.80070  0.91790  Biso   1.000  C
  C117     1.0000 0.95460  0.69930  0.41790  Biso   1.000  C
  C118     1.0000 0.54540  0.30070  0.91790  Biso   1.000  C
  C119     1.0000 0.45460  0.80070  0.58210  Biso   1.000  C
  C120     1.0000 0.04540  0.19930  0.08210  Biso   1.000  C
  H65      1.0000 0.98660  0.29070  0.58160  Biso   1.000  H
  H66      1.0000 0.51340  0.70930  0.08160  Biso   1.000  H
  H67      1.0000 0.48660  0.20930  0.41840  Biso   1.000  H
  H68      1.0000 0.01340  0.79070  0.91840  Biso   1.000  H
  H69      1.0000 0.01340  0.70930  0.41840  Biso   1.000  H
  H70      1.0000 0.48660  0.29070  0.91840  Biso   1.000  H
  H71      1.0000 0.51340  0.79070  0.58160  Biso   1.000  H
  H72      1.0000 0.98660  0.20930  0.08160  Biso   1.000  H
  C121     1.0000 0.08770  0.33240  0.52020  Biso   1.000  C
  C122     1.0000 0.41230  0.66760  0.02020  Biso   1.000  C
  C123     1.0000 0.58770  0.16760  0.47980  Biso   1.000  C
  C124     1.0000 0.91230  0.83240  0.97980  Biso   1.000  C
  C125     1.0000 0.91230  0.66760  0.47980  Biso   1.000  C
  C126     1.0000 0.58770  0.33240  0.97980  Biso   1.000  C
  C127     1.0000 0.41230  0.83240  0.52020  Biso   1.000  C
  C128     1.0000 0.08770  0.16760  0.02020  Biso   1.000  C
  H73      1.0000 0.05540  0.34360  0.47920  Biso   1.000  H
  H74      1.0000 0.44460  0.65640  0.97920  Biso   1.000  H
  H75      1.0000 0.55540  0.15640  0.52080  Biso   1.000  H
  H76      1.0000 0.94460  0.84360  0.02080  Biso   1.000  H
  H77      1.0000 0.94460  0.65640  0.52080  Biso   1.000  H
  H78      1.0000 0.55540  0.34360  0.02080  Biso   1.000  H
  H79      1.0000 0.44460  0.84360  0.47920  Biso   1.000  H
  H80      1.0000 0.05540  0.15640  0.97920  Biso   1.000  H
  C129     1.0000 0.21790  0.32870  0.57820  Biso   1.000  C
  C130     1.0000 0.28210  0.67130  0.07820  Biso   1.000  C
  C131     1.0000 0.71790  0.17130  0.42180  Biso   1.000  C
  C132     1.0000 0.78210  0.82870  0.92180  Biso   1.000  C
  C133     1.0000 0.78210  0.67130  0.42180  Biso   1.000  C
  C134     1.0000 0.71790  0.32870  0.92180  Biso   1.000  C
  C135     1.0000 0.28210  0.82870  0.57820  Biso   1.000  C
  C136     1.0000 0.21790  0.17130  0.07820  Biso   1.000  C
  C137     1.0000 0.30830  0.34180  0.57286  Biso   1.000  C
  C138     1.0000 0.19170  0.65820  0.07286  Biso   1.000  C
  C139     1.0000 0.80830  0.15820  0.42714  Biso   1.000  C
  C140     1.0000 0.69170  0.84180  0.92714  Biso   1.000  C
  C141     1.0000 0.69170  0.65820  0.42714  Biso   1.000  C
  C142     1.0000 0.80830  0.34180  0.92714  Biso   1.000  C
  C143     1.0000 0.19170  0.84180  0.57286  Biso   1.000  C
  C144     1.0000 0.30830  0.15820  0.07286  Biso   1.000  C
  C145     1.0000 0.28740  0.58250  0.54640  Biso   1.000  C
  C146     1.0000 0.21260  0.41750  0.04640  Biso   1.000  C
  C147     1.0000 0.78740  0.91750  0.45360  Biso   1.000  C
  C148     1.0000 0.71260  0.08250  0.95360  Biso   1.000  C
  C149     1.0000 0.71260  0.41750  0.45360  Biso   1.000  C
  C150     1.0000 0.78740  0.58250  0.95360  Biso   1.000  C
  C151     1.0000 0.21260  0.08250  0.54640  Biso   1.000  C
  C152     1.0000 0.28740  0.91750  0.04640  Biso   1.000  C
  C153     1.0000 0.14330  0.59360  0.51800  Biso   1.000  C
  C154     1.0000 0.35670  0.40640  0.01800  Biso   1.000  C
  C155     1.0000 0.64330  0.90640  0.48200  Biso   1.000  C
  C156     1.0000 0.85670  0.09360  0.98200  Biso   1.000  C
  C157     1.0000 0.85670  0.40640  0.48200  Biso   1.000  C
  C158     1.0000 0.64330  0.59360  0.98200  Biso   1.000  C
  C159     1.0000 0.35670  0.09360  0.51800  Biso   1.000  C
  C160     1.0000 0.14330  0.90640  0.01800  Biso   1.000  C
  H81      1.0000 0.10180  0.55560  0.49320  Biso   1.000  H
  H82      1.0000 0.39820  0.44440  0.99320  Biso   1.000  H
  H83      1.0000 0.60180  0.94440  0.50680  Biso   1.000  H
  H84      1.0000 0.89820  0.05560  0.00680  Biso   1.000  H
  H85      1.0000 0.89820  0.44440  0.50680  Biso   1.000  H
  H86      1.0000 0.60180  0.55560  0.00680  Biso   1.000  H
  H87      1.0000 0.39820  0.05560  0.49320  Biso   1.000  H
  H88      1.0000 0.10180  0.94440  0.99320  Biso   1.000  H
  H89      1.0000 0.12600  0.65720  0.51420  Biso   1.000  H
  H90      1.0000 0.37400  0.34280  0.01420  Biso   1.000  H
  H91      1.0000 0.62600  0.84280  0.48580  Biso   1.000  H
  H92      1.0000 0.87400  0.15720  0.98580  Biso   1.000  H
  H93      1.0000 0.87400  0.34280  0.48580  Biso   1.000  H
  H94      1.0000 0.62600  0.65720  0.98580  Biso   1.000  H
  H95      1.0000 0.37400  0.15720  0.51420  Biso   1.000  H
  H96      1.0000 0.12600  0.84280  0.01420  Biso   1.000  H
  C161     1.0000 0.15250  0.56470  0.59630  Biso   1.000  C
  C162     1.0000 0.34750  0.43530  0.09630  Biso   1.000  C
  C163     1.0000 0.65250  0.93530  0.40370  Biso   1.000  C
  C164     1.0000 0.84750  0.06470  0.90370  Biso   1.000  C
  C165     1.0000 0.84750  0.43530  0.40370  Biso   1.000  C
  C166     1.0000 0.65250  0.56470  0.90370  Biso   1.000  C
  C167     1.0000 0.34750  0.06470  0.59630  Biso   1.000  C
  C168     1.0000 0.15250  0.93530  0.09630  Biso   1.000  C
  H97      1.0000 0.11960  0.60440  0.62770  Biso   1.000  H
  H98      1.0000 0.38040  0.39560  0.12770  Biso   1.000  H
  H99      1.0000 0.61960  0.89560  0.37230  Biso   1.000  H
  H100     1.0000 0.88040  0.10440  0.87230  Biso   1.000  H
  H101     1.0000 0.88040  0.39560  0.37230  Biso   1.000  H
  H102     1.0000 0.61960  0.60440  0.87230  Biso   1.000  H
  H103     1.0000 0.38040  0.10440  0.62770  Biso   1.000  H
  H104     1.0000 0.11960  0.89560  0.12770  Biso   1.000  H
  H105     1.0000 0.13430  0.50190  0.60330  Biso   1.000  H
  H106     1.0000 0.36570  0.49810  0.10330  Biso   1.000  H
  H107     1.0000 0.63430  0.99810  0.39670  Biso   1.000  H
  H108     1.0000 0.86570  0.00190  0.89670  Biso   1.000  H
  H109     1.0000 0.86570  0.49810  0.39670  Biso   1.000  H
  H110     1.0000 0.63430  0.50190  0.89670  Biso   1.000  H
  H111     1.0000 0.36570  0.00190  0.60330  Biso   1.000  H
  H112     1.0000 0.13430  0.99810  0.10330  Biso   1.000  H
  C169     1.0000 0.25070  0.62900  0.42280  Biso   1.000  C
  C170     1.0000 0.24930  0.37100  0.92280  Biso   1.000  C
  C171     1.0000 0.75070  0.87100  0.57720  Biso   1.000  C
  C172     1.0000 0.74930  0.12900  0.07720  Biso   1.000  C
  C173     1.0000 0.74930  0.37100  0.57720  Biso   1.000  C
  C174     1.0000 0.75070  0.62900  0.07720  Biso   1.000  C
  C175     1.0000 0.24930  0.12900  0.42280  Biso   1.000  C
  C176     1.0000 0.25070  0.87100  0.92280  Biso   1.000  C
  H113     1.0000 0.24150  0.69340  0.42960  Biso   1.000  H
  H114     1.0000 0.25850  0.30660  0.92960  Biso   1.000  H
  H115     1.0000 0.74150  0.80660  0.57040  Biso   1.000  H
  H116     1.0000 0.75850  0.19340  0.07040  Biso   1.000  H
  H117     1.0000 0.75850  0.30660  0.57040  Biso   1.000  H
  H118     1.0000 0.74150  0.69340  0.07040  Biso   1.000  H
  H119     1.0000 0.25850  0.19340  0.42960  Biso   1.000  H
  H120     1.0000 0.24150  0.80660  0.92960  Biso   1.000  H
  H121     1.0000 0.21520  0.60730  0.38430  Biso   1.000  H
  H122     1.0000 0.28480  0.39270  0.88430  Biso   1.000  H
  H123     1.0000 0.71520  0.89270  0.61570  Biso   1.000  H
  H124     1.0000 0.78480  0.10730  0.11570  Biso   1.000  H
  H125     1.0000 0.78480  0.39270  0.61570  Biso   1.000  H
  H126     1.0000 0.71520  0.60730  0.11570  Biso   1.000  H
  H127     1.0000 0.28480  0.10730  0.38430  Biso   1.000  H
  H128     1.0000 0.21520  0.89270  0.88430  Biso   1.000  H
  H129     1.0000 0.30980  0.61830  0.41120  Biso   1.000  H
  H130     1.0000 0.19020  0.38170  0.91120  Biso   1.000  H
  H131     1.0000 0.80980  0.88170  0.58880  Biso   1.000  H
  H132     1.0000 0.69020  0.11830  0.08880  Biso   1.000  H
  H133     1.0000 0.69020  0.38170  0.58880  Biso   1.000  H
  H134     1.0000 0.80980  0.61830  0.08880  Biso   1.000  H
  H135     1.0000 0.19020  0.11830  0.41120  Biso   1.000  H
  H136     1.0000 0.30980  0.88170  0.91120  Biso   1.000  H
  C177     1.0000 0.28370  0.55160  0.67600  Biso   1.000  C
  C178     1.0000 0.21630  0.44840  0.17600  Biso   1.000  C
  C179     1.0000 0.78370  0.94840  0.32400  Biso   1.000  C
  C180     1.0000 0.71630  0.05160  0.82400  Biso   1.000  C
  C181     1.0000 0.71630  0.44840  0.32400  Biso   1.000  C
  C182     1.0000 0.78370  0.55160  0.82400  Biso   1.000  C
  C183     1.0000 0.21630  0.05160  0.67600  Biso   1.000  C
  C184     1.0000 0.28370  0.94840  0.17600  Biso   1.000  C
  H137     1.0000 0.27340  0.48830  0.68690  Biso   1.000  H
  H138     1.0000 0.22660  0.51170  0.18690  Biso   1.000  H
  H139     1.0000 0.77340  0.01170  0.31310  Biso   1.000  H
  H140     1.0000 0.72660  0.98830  0.81310  Biso   1.000  H
  H141     1.0000 0.72660  0.51170  0.31310  Biso   1.000  H
  H142     1.0000 0.77340  0.48830  0.81310  Biso   1.000  H
  H143     1.0000 0.22660  0.98830  0.68690  Biso   1.000  H
  H144     1.0000 0.27340  0.01170  0.18690  Biso   1.000  H
  H145     1.0000 0.26070  0.58920  0.71360  Biso   1.000  H
  H146     1.0000 0.23930  0.41080  0.21360  Biso   1.000  H
  H147     1.0000 0.76070  0.91080  0.28640  Biso   1.000  H
  H148     1.0000 0.73930  0.08920  0.78640  Biso   1.000  H
  H149     1.0000 0.73930  0.41080  0.28640  Biso   1.000  H
  H150     1.0000 0.76070  0.58920  0.78640  Biso   1.000  H
  H151     1.0000 0.23930  0.08920  0.71360  Biso   1.000  H
  H152     1.0000 0.26070  0.91080  0.21360  Biso   1.000  H
  H153     1.0000 0.34420  0.56210  0.67210  Biso   1.000  H
  H154     1.0000 0.15580  0.43790  0.17210  Biso   1.000  H
  H155     1.0000 0.84420  0.93790  0.32790  Biso   1.000  H
  H156     1.0000 0.65580  0.06210  0.82790  Biso   1.000  H
  H157     1.0000 0.65580  0.43790  0.32790  Biso   1.000  H
  H158     1.0000 0.84420  0.56210  0.82790  Biso   1.000  H
  H159     1.0000 0.15580  0.06210  0.67210  Biso   1.000  H
  H160     1.0000 0.34420  0.93790  0.17210  Biso   1.000  H
