data_image0
_cell_length_a       12.152
_cell_length_b       12.2726
_cell_length_c       18.7306
_cell_angle_alpha    90
_cell_angle_beta     112.956
_cell_angle_gamma    90

_symmetry_space_group_name_H-M    "P 1"
_symmetry_int_tables_number       1

loop_
  _symmetry_equiv_pos_as_xyz
  'x, y, z'

loop_
  _atom_site_label
  _atom_site_occupancy
  _atom_site_fract_x
  _atom_site_fract_y
  _atom_site_fract_z
  _atom_site_thermal_displace_type
  _atom_site_B_iso_or_equiv
  _atom_site_type_symbol
  Cu1      1.0000 0.58451  0.50513  0.57081  Biso   1.000  Cu
  Cu2      1.0000 0.41549  0.00513  0.92919  Biso   1.000  Cu
  Cu3      1.0000 0.41549  0.49487  0.42919  Biso   1.000  Cu
  Cu4      1.0000 0.58451  0.99487  0.07081  Biso   1.000  Cu
  Cu5      1.0000 0.93795  0.50220  0.92394  Biso   1.000  Cu
  Cu6      1.0000 0.06205  0.00220  0.57606  Biso   1.000  Cu
  Cu7      1.0000 0.06205  0.49780  0.07606  Biso   1.000  Cu
  Cu8      1.0000 0.93795  0.99780  0.42394  Biso   1.000  Cu
  O1       1.0000 0.45990  0.43975  0.59966  Biso   1.000  O
  O2       1.0000 0.54010  0.93975  0.90034  Biso   1.000  O
  O3       1.0000 0.54010  0.56025  0.40034  Biso   1.000  O
  O4       1.0000 0.45990  0.06025  0.09966  Biso   1.000  O
  O5       1.0000 0.51683  0.65182  0.57030  Biso   1.000  O
  O6       1.0000 0.48317  0.15182  0.92970  Biso   1.000  O
  O7       1.0000 0.48317  0.34818  0.42970  Biso   1.000  O
  O8       1.0000 0.51683  0.84818  0.07030  Biso   1.000  O
  O9       1.0000 0.31686  0.43082  0.48086  Biso   1.000  O
  O10      1.0000 0.68314  0.93082  0.01914  Biso   1.000  O
  O11      1.0000 0.68314  0.56918  0.51914  Biso   1.000  O
  O12      1.0000 0.31686  0.06918  0.98086  Biso   1.000  O
  O13      1.0000 0.37201  0.64168  0.45215  Biso   1.000  O
  O14      1.0000 0.62799  0.14168  0.04785  Biso   1.000  O
  O15      1.0000 0.62799  0.35832  0.54785  Biso   1.000  O
  O16      1.0000 0.37201  0.85832  0.95215  Biso   1.000  O
  O17      1.0000 0.72384  0.52443  0.68184  Biso   1.000  O
  O18      1.0000 0.27616  0.02443  0.81816  Biso   1.000  O
  O19      1.0000 0.27616  0.47557  0.31816  Biso   1.000  O
  O20      1.0000 0.72384  0.97557  0.18184  Biso   1.000  O
  O21      1.0000 0.85592  0.52508  0.80224  Biso   1.000  O
  O22      1.0000 0.14408  0.02508  0.69776  Biso   1.000  O
  O23      1.0000 0.14408  0.47492  0.19776  Biso   1.000  O
  O24      1.0000 0.85592  0.97492  0.30224  Biso   1.000  O
  O25      1.0000 0.80423  0.54543  0.95269  Biso   1.000  O
  O26      1.0000 0.19577  0.04543  0.54731  Biso   1.000  O
  O27      1.0000 0.19577  0.45457  0.04731  Biso   1.000  O
  O28      1.0000 0.80423  0.95457  0.45269  Biso   1.000  O
  O29      1.0000 0.90257  0.34674  0.93393  Biso   1.000  O
  O30      1.0000 0.09743  0.84674  0.56607  Biso   1.000  O
  O31      1.0000 0.09743  0.65326  0.06607  Biso   1.000  O
  O32      1.0000 0.90257  0.15326  0.43393  Biso   1.000  O
  O33      1.0000 0.90880  0.54285  0.08117  Biso   1.000  O
  O34      1.0000 0.09120  0.04285  0.41883  Biso   1.000  O
  O35      1.0000 0.09120  0.45715  0.91883  Biso   1.000  O
  O36      1.0000 0.90880  0.95715  0.58117  Biso   1.000  O
  O37      1.0000 0.00712  0.34410  0.06224  Biso   1.000  O
  O38      1.0000 0.99288  0.84410  0.43776  Biso   1.000  O
  O39      1.0000 0.99288  0.65590  0.93776  Biso   1.000  O
  O40      1.0000 0.00712  0.15590  0.56224  Biso   1.000  O
  C1       1.0000 0.35629  0.41637  0.55266  Biso   1.000  C
  C2       1.0000 0.64371  0.91637  0.94734  Biso   1.000  C
  C3       1.0000 0.64371  0.58363  0.44734  Biso   1.000  C
  C4       1.0000 0.35629  0.08363  0.05266  Biso   1.000  C
  C5       1.0000 0.27189  0.36747  0.58551  Biso   1.000  C
  C6       1.0000 0.72811  0.86747  0.91449  Biso   1.000  C
  C7       1.0000 0.72811  0.63253  0.41449  Biso   1.000  C
  C8       1.0000 0.27189  0.13253  0.08551  Biso   1.000  C
  H1       1.0000 0.31710  0.34470  0.63920  Biso   1.000  H
  H2       1.0000 0.68290  0.84470  0.86080  Biso   1.000  H
  H3       1.0000 0.68290  0.65530  0.36080  Biso   1.000  H
  H4       1.0000 0.31710  0.15530  0.13920  Biso   1.000  H
  H5       1.0000 0.23170  0.30410  0.55440  Biso   1.000  H
  H6       1.0000 0.76830  0.80410  0.94560  Biso   1.000  H
  H7       1.0000 0.76830  0.69590  0.44560  Biso   1.000  H
  H8       1.0000 0.23170  0.19590  0.05440  Biso   1.000  H
  H9       1.0000 0.21210  0.42190  0.58420  Biso   1.000  H
  H10      1.0000 0.78790  0.92190  0.91580  Biso   1.000  H
  H11      1.0000 0.78790  0.57810  0.41580  Biso   1.000  H
  H12      1.0000 0.21210  0.07810  0.08420  Biso   1.000  H
  C9       1.0000 0.42955  0.69004  0.51461  Biso   1.000  C
  C10      1.0000 0.57045  0.19004  0.98539  Biso   1.000  C
  C11      1.0000 0.57045  0.30996  0.48539  Biso   1.000  C
  C12      1.0000 0.42955  0.80996  0.01461  Biso   1.000  C
  C13      1.0000 0.39020  0.80429  0.52395  Biso   1.000  C
  C14      1.0000 0.60980  0.30429  0.97605  Biso   1.000  C
  C15      1.0000 0.60980  0.19571  0.47605  Biso   1.000  C
  C16      1.0000 0.39020  0.69571  0.02395  Biso   1.000  C
  H13      1.0000 0.34870  0.80300  0.55950  Biso   1.000  H
  H14      1.0000 0.65130  0.30300  0.94050  Biso   1.000  H
  H15      1.0000 0.65130  0.19700  0.44050  Biso   1.000  H
  H16      1.0000 0.34870  0.69700  0.05950  Biso   1.000  H
  H17      1.0000 0.33600  0.83200  0.47340  Biso   1.000  H
  H18      1.0000 0.66400  0.33200  0.02660  Biso   1.000  H
  H19      1.0000 0.66400  0.16800  0.52660  Biso   1.000  H
  H20      1.0000 0.33600  0.66800  0.97340  Biso   1.000  H
  H21      1.0000 0.46030  0.85180  0.54500  Biso   1.000  H
  H22      1.0000 0.53970  0.35180  0.95500  Biso   1.000  H
  H23      1.0000 0.53970  0.14820  0.45500  Biso   1.000  H
  H24      1.0000 0.46030  0.64820  0.04500  Biso   1.000  H
  C17      1.0000 0.75337  0.49915  0.75148  Biso   1.000  C
  C18      1.0000 0.24663  0.99915  0.74852  Biso   1.000  C
  C19      1.0000 0.24663  0.50085  0.24852  Biso   1.000  C
  C20      1.0000 0.75337  0.00085  0.25148  Biso   1.000  C
  C21      1.0000 0.66926  0.43909  0.77852  Biso   1.000  C
  C22      1.0000 0.33074  0.93909  0.72148  Biso   1.000  C
  C23      1.0000 0.33074  0.56091  0.22148  Biso   1.000  C
  C24      1.0000 0.66926  0.06091  0.27852  Biso   1.000  C
  H25      1.0000 0.65130  0.48420  0.81580  Biso   1.000  H
  H26      1.0000 0.34870  0.98420  0.68420  Biso   1.000  H
  H27      1.0000 0.34870  0.51580  0.18420  Biso   1.000  H
  H28      1.0000 0.65130  0.01580  0.31580  Biso   1.000  H
  H29      1.0000 0.70640  0.37080  0.80340  Biso   1.000  H
  H30      1.0000 0.29360  0.87080  0.69660  Biso   1.000  H
  H31      1.0000 0.29360  0.62920  0.19660  Biso   1.000  H
  H32      1.0000 0.70640  0.12920  0.30340  Biso   1.000  H
  H33      1.0000 0.59510  0.42300  0.73400  Biso   1.000  H
  H34      1.0000 0.40490  0.92300  0.76600  Biso   1.000  H
  H35      1.0000 0.40490  0.57700  0.26600  Biso   1.000  H
  H36      1.0000 0.59510  0.07700  0.23400  Biso   1.000  H
  C25      1.0000 0.81493  0.55813  0.02184  Biso   1.000  C
  C26      1.0000 0.18507  0.05813  0.47816  Biso   1.000  C
  C27      1.0000 0.18507  0.44187  0.97816  Biso   1.000  C
  C28      1.0000 0.81493  0.94187  0.52184  Biso   1.000  C
  C29      1.0000 0.70571  0.59690  0.03438  Biso   1.000  C
  C30      1.0000 0.29429  0.09690  0.46562  Biso   1.000  C
  C31      1.0000 0.29429  0.40310  0.96562  Biso   1.000  C
  C32      1.0000 0.70571  0.90310  0.53438  Biso   1.000  C
  H37      1.0000 0.69980  0.67640  0.02930  Biso   1.000  H
  H38      1.0000 0.30020  0.17640  0.47070  Biso   1.000  H
  H39      1.0000 0.30020  0.32360  0.97070  Biso   1.000  H
  H40      1.0000 0.69980  0.82360  0.52930  Biso   1.000  H
  H41      1.0000 0.71250  0.57590  0.08640  Biso   1.000  H
  H42      1.0000 0.28750  0.07590  0.41360  Biso   1.000  H
  H43      1.0000 0.28750  0.42410  0.91360  Biso   1.000  H
  H44      1.0000 0.71250  0.92410  0.58640  Biso   1.000  H
  H45      1.0000 0.63400  0.56350  0.99560  Biso   1.000  H
  H46      1.0000 0.36600  0.06350  0.50440  Biso   1.000  H
  H47      1.0000 0.36600  0.43650  0.00440  Biso   1.000  H
  H48      1.0000 0.63400  0.93650  0.49560  Biso   1.000  H
  C33      1.0000 0.94290  0.30002  0.99907  Biso   1.000  C
  C34      1.0000 0.05710  0.80002  0.50093  Biso   1.000  C
  C35      1.0000 0.05710  0.69998  0.00093  Biso   1.000  C
  C36      1.0000 0.94290  0.19998  0.49907  Biso   1.000  C
  C37      1.0000 0.91147  0.18182  0.00283  Biso   1.000  C
  C38      1.0000 0.08853  0.68182  0.49717  Biso   1.000  C
  C39      1.0000 0.08853  0.81818  0.99717  Biso   1.000  C
  C40      1.0000 0.91147  0.31818  0.50283  Biso   1.000  C
  H49      1.0000 0.85070  0.17620  0.02500  Biso   1.000  H
  H50      1.0000 0.14930  0.67620  0.47500  Biso   1.000  H
  H51      1.0000 0.14930  0.82380  0.97500  Biso   1.000  H
  H52      1.0000 0.85070  0.32380  0.52500  Biso   1.000  H
  H53      1.0000 0.98320  0.14160  0.03550  Biso   1.000  H
  H54      1.0000 0.01680  0.64160  0.46450  Biso   1.000  H
  H55      1.0000 0.01680  0.85840  0.96450  Biso   1.000  H
  H56      1.0000 0.98320  0.35840  0.53550  Biso   1.000  H
  H57      1.0000 0.88010  0.15080  0.95050  Biso   1.000  H
  H58      1.0000 0.11990  0.65080  0.54950  Biso   1.000  H
  H59      1.0000 0.11990  0.84920  0.04950  Biso   1.000  H
  H60      1.0000 0.88010  0.34920  0.45050  Biso   1.000  H
  N1       1.0000 0.95203  0.68314  0.74095  Biso   1.000  N
  N2       1.0000 0.04797  0.18314  0.75905  Biso   1.000  N
  N3       1.0000 0.04797  0.31686  0.25905  Biso   1.000  N
  N4       1.0000 0.95203  0.81686  0.24095  Biso   1.000  N
  C41      1.0000 0.89976  0.78890  0.75415  Biso   1.000  C
  C42      1.0000 0.10024  0.28890  0.74585  Biso   1.000  C
  C43      1.0000 0.10024  0.21110  0.24585  Biso   1.000  C
  C44      1.0000 0.89976  0.71110  0.25415  Biso   1.000  C
  H61      1.0000 0.91460  0.84650  0.72200  Biso   1.000  H
  H62      1.0000 0.08540  0.34650  0.77800  Biso   1.000  H
  H63      1.0000 0.08540  0.15350  0.27800  Biso   1.000  H
  H64      1.0000 0.91460  0.65350  0.22200  Biso   1.000  H
  H65      1.0000 0.94090  0.81040  0.80920  Biso   1.000  H
  H66      1.0000 0.05910  0.31040  0.69080  Biso   1.000  H
  H67      1.0000 0.05910  0.18960  0.19080  Biso   1.000  H
  H68      1.0000 0.94090  0.68960  0.30920  Biso   1.000  H
  C45      1.0000 0.76660  0.78157  0.73454  Biso   1.000  C
  C46      1.0000 0.23340  0.28157  0.76546  Biso   1.000  C
  C47      1.0000 0.23340  0.21843  0.26546  Biso   1.000  C
  C48      1.0000 0.76660  0.71843  0.23454  Biso   1.000  C
  H69      1.0000 0.75200  0.73160  0.77080  Biso   1.000  H
  H70      1.0000 0.24800  0.23160  0.72920  Biso   1.000  H
  H71      1.0000 0.24800  0.26840  0.22920  Biso   1.000  H
  H72      1.0000 0.75200  0.76840  0.27080  Biso   1.000  H
  H73      1.0000 0.72600  0.75430  0.68150  Biso   1.000  H
  H74      1.0000 0.27400  0.25430  0.81850  Biso   1.000  H
  H75      1.0000 0.27400  0.24570  0.31850  Biso   1.000  H
  H76      1.0000 0.72600  0.74570  0.18150  Biso   1.000  H
  H77      1.0000 0.73570  0.85400  0.73870  Biso   1.000  H
  H78      1.0000 0.26430  0.35400  0.76130  Biso   1.000  H
  H79      1.0000 0.26430  0.14600  0.26130  Biso   1.000  H
  H80      1.0000 0.73570  0.64600  0.23870  Biso   1.000  H
  C49      1.0000 0.92652  0.66676  0.65642  Biso   1.000  C
  C50      1.0000 0.07348  0.16676  0.84358  Biso   1.000  C
  C51      1.0000 0.07348  0.33324  0.34358  Biso   1.000  C
  C52      1.0000 0.92652  0.83324  0.15642  Biso   1.000  C
  H81      1.0000 0.96630  0.72520  0.63880  Biso   1.000  H
  H82      1.0000 0.03370  0.22520  0.86120  Biso   1.000  H
  H83      1.0000 0.03370  0.27480  0.36120  Biso   1.000  H
  H84      1.0000 0.96630  0.77480  0.13880  Biso   1.000  H
  H85      1.0000 0.83940  0.67300  0.62620  Biso   1.000  H
  H86      1.0000 0.16060  0.17300  0.87380  Biso   1.000  H
  H87      1.0000 0.16060  0.32700  0.37380  Biso   1.000  H
  H88      1.0000 0.83940  0.82700  0.12620  Biso   1.000  H
  C53      1.0000 0.96895  0.55746  0.64007  Biso   1.000  C
  C54      1.0000 0.03105  0.05746  0.85993  Biso   1.000  C
  C55      1.0000 0.03105  0.44254  0.35993  Biso   1.000  C
  C56      1.0000 0.96895  0.94254  0.14007  Biso   1.000  C
  H89      1.0000 0.93900  0.49970  0.66390  Biso   1.000  H
  H90      1.0000 0.06100  0.99970  0.83610  Biso   1.000  H
  H91      1.0000 0.06100  0.50030  0.33610  Biso   1.000  H
  H92      1.0000 0.93900  0.00030  0.16390  Biso   1.000  H
  H93      1.0000 0.05650  0.55600  0.66180  Biso   1.000  H
  H94      1.0000 0.94350  0.05600  0.83820  Biso   1.000  H
  H95      1.0000 0.94350  0.44400  0.33820  Biso   1.000  H
  H96      1.0000 0.05650  0.94400  0.16180  Biso   1.000  H
  H97      1.0000 0.93880  0.54580  0.58390  Biso   1.000  H
  H98      1.0000 0.06120  0.04580  0.91610  Biso   1.000  H
  H99      1.0000 0.06120  0.45420  0.41610  Biso   1.000  H
  H100     1.0000 0.93880  0.95420  0.08390  Biso   1.000  H
  C57      1.0000 0.08264  0.67378  0.79283  Biso   1.000  C
  C58      1.0000 0.91736  0.17378  0.70717  Biso   1.000  C
  C59      1.0000 0.91736  0.32622  0.20717  Biso   1.000  C
  C60      1.0000 0.08264  0.82622  0.29283  Biso   1.000  C
  H101     1.0000 0.11320  0.60290  0.78320  Biso   1.000  H
  H102     1.0000 0.88680  0.10290  0.71680  Biso   1.000  H
  H103     1.0000 0.88680  0.39710  0.21680  Biso   1.000  H
  H104     1.0000 0.11320  0.89710  0.28320  Biso   1.000  H
  H105     1.0000 0.09120  0.67490  0.84760  Biso   1.000  H
  H106     1.0000 0.90880  0.17490  0.65240  Biso   1.000  H
  H107     1.0000 0.90880  0.32510  0.15240  Biso   1.000  H
  H108     1.0000 0.09120  0.82510  0.34760  Biso   1.000  H
  C61      1.0000 0.15768  0.76417  0.78030  Biso   1.000  C
  C62      1.0000 0.84232  0.26417  0.71970  Biso   1.000  C
  C63      1.0000 0.84232  0.23583  0.21970  Biso   1.000  C
  C64      1.0000 0.15768  0.73583  0.28030  Biso   1.000  C
  H109     1.0000 0.24150  0.75360  0.81510  Biso   1.000  H
  H110     1.0000 0.75850  0.25360  0.68490  Biso   1.000  H
  H111     1.0000 0.75850  0.24640  0.18490  Biso   1.000  H
  H112     1.0000 0.24150  0.74640  0.31510  Biso   1.000  H
  H113     1.0000 0.12960  0.83450  0.79140  Biso   1.000  H
  H114     1.0000 0.87040  0.33450  0.70860  Biso   1.000  H
  H115     1.0000 0.87040  0.16550  0.20860  Biso   1.000  H
  H116     1.0000 0.12960  0.66550  0.29140  Biso   1.000  H
  H117     1.0000 0.15060  0.76300  0.72640  Biso   1.000  H
  H118     1.0000 0.84940  0.26300  0.77360  Biso   1.000  H
  H119     1.0000 0.84940  0.23700  0.27360  Biso   1.000  H
  H120     1.0000 0.15060  0.73700  0.22640  Biso   1.000  H
  O41      1.0000 0.68670  0.43535  0.26275  Biso   1.000  O
  O42      1.0000 0.31330  0.93535  0.23725  Biso   1.000  O
  O43      1.0000 0.31330  0.56465  0.73725  Biso   1.000  O
  O44      1.0000 0.68670  0.06465  0.76275  Biso   1.000  O
  C65      1.0000 0.65240  0.36448  0.31112  Biso   1.000  C
  C66      1.0000 0.34760  0.86448  0.18888  Biso   1.000  C
  C67      1.0000 0.34760  0.63552  0.68888  Biso   1.000  C
  C68      1.0000 0.65240  0.13552  0.81112  Biso   1.000  C
  H121     1.0000 0.65610  0.40380  0.35820  Biso   1.000  H
  H122     1.0000 0.34390  0.90380  0.14180  Biso   1.000  H
  H123     1.0000 0.34390  0.59620  0.64180  Biso   1.000  H
  H124     1.0000 0.65610  0.09620  0.85820  Biso   1.000  H
  H125     1.0000 0.70720  0.30130  0.32740  Biso   1.000  H
  H126     1.0000 0.29280  0.80130  0.17260  Biso   1.000  H
  H127     1.0000 0.29280  0.69870  0.67260  Biso   1.000  H
  H128     1.0000 0.70720  0.19870  0.82740  Biso   1.000  H
  C69      1.0000 0.52537  0.32611  0.26465  Biso   1.000  C
  C70      1.0000 0.47463  0.82611  0.23535  Biso   1.000  C
  C71      1.0000 0.47463  0.67389  0.73535  Biso   1.000  C
  C72      1.0000 0.52537  0.17389  0.76465  Biso   1.000  C
  H129     1.0000 0.46630  0.37160  0.27540  Biso   1.000  H
  H130     1.0000 0.53370  0.87160  0.22460  Biso   1.000  H
  H131     1.0000 0.53370  0.62840  0.72460  Biso   1.000  H
  H132     1.0000 0.46630  0.12840  0.77540  Biso   1.000  H
  H133     1.0000 0.51460  0.24900  0.27590  Biso   1.000  H
  H134     1.0000 0.48540  0.74900  0.22410  Biso   1.000  H
  H135     1.0000 0.48540  0.75100  0.72410  Biso   1.000  H
  H136     1.0000 0.51460  0.25100  0.77590  Biso   1.000  H
  C73      1.0000 0.51440  0.34046  0.18108  Biso   1.000  C
  C74      1.0000 0.48560  0.84046  0.31892  Biso   1.000  C
  C75      1.0000 0.48560  0.65954  0.81892  Biso   1.000  C
  C76      1.0000 0.51440  0.15954  0.68108  Biso   1.000  C
  H137     1.0000 0.54310  0.27500  0.16260  Biso   1.000  H
  H138     1.0000 0.45690  0.77500  0.33740  Biso   1.000  H
  H139     1.0000 0.45690  0.72500  0.83740  Biso   1.000  H
  H140     1.0000 0.54310  0.22500  0.66260  Biso   1.000  H
  H141     1.0000 0.43080  0.35550  0.14580  Biso   1.000  H
  H142     1.0000 0.56920  0.85550  0.35420  Biso   1.000  H
  H143     1.0000 0.56920  0.64450  0.85420  Biso   1.000  H
  H144     1.0000 0.43080  0.14450  0.64580  Biso   1.000  H
  C77      1.0000 0.59390  0.43740  0.18684  Biso   1.000  C
  C78      1.0000 0.40610  0.93740  0.31316  Biso   1.000  C
  C79      1.0000 0.40610  0.56260  0.81316  Biso   1.000  C
  C80      1.0000 0.59390  0.06260  0.68684  Biso   1.000  C
  H145     1.0000 0.62840  0.43270  0.14700  Biso   1.000  H
  H146     1.0000 0.37160  0.93270  0.35300  Biso   1.000  H
  H147     1.0000 0.37160  0.56730  0.85300  Biso   1.000  H
  H148     1.0000 0.62840  0.06730  0.64700  Biso   1.000  H
  H149     1.0000 0.54760  0.50590  0.17880  Biso   1.000  H
  H150     1.0000 0.45240  0.00590  0.32120  Biso   1.000  H
  H151     1.0000 0.45240  0.49410  0.82120  Biso   1.000  H
  H152     1.0000 0.54760  0.99410  0.67880  Biso   1.000  H
  H153     1.0000 0.91800  0.63200  0.75600  Biso   1.000  H
  H154     1.0000 0.08200  0.13200  0.74400  Biso   1.000  H
  H155     1.0000 0.08200  0.36800  0.24400  Biso   1.000  H
  H156     1.0000 0.91800  0.86800  0.25600  Biso   1.000  H
