data_image0
_cell_length_a       12.3996
_cell_length_b       21.0115
_cell_length_c       26.7059
_cell_angle_alpha    90
_cell_angle_beta     90
_cell_angle_gamma    90

_symmetry_space_group_name_H-M    "P 1"
_symmetry_int_tables_number       1

loop_
  _symmetry_equiv_pos_as_xyz
  'x, y, z'

loop_
  _atom_site_label
  _atom_site_occupancy
  _atom_site_fract_x
  _atom_site_fract_y
  _atom_site_fract_z
  _atom_site_thermal_displace_type
  _atom_site_B_iso_or_equiv
  _atom_site_type_symbol
  Cu1      1.0000 0.74889  0.32160  0.59172  Biso   1.000  Cu
  Cu2      1.0000 0.75111  0.67840  0.09172  Biso   1.000  Cu
  Cu3      1.0000 0.25111  0.82160  0.90827  Biso   1.000  Cu
  Cu4      1.0000 0.24889  0.17840  0.40827  Biso   1.000  Cu
  Cu5      1.0000 0.25111  0.67840  0.40827  Biso   1.000  Cu
  Cu6      1.0000 0.24889  0.32160  0.90827  Biso   1.000  Cu
  Cu7      1.0000 0.74889  0.17840  0.09172  Biso   1.000  Cu
  Cu8      1.0000 0.75111  0.82160  0.59172  Biso   1.000  Cu
  Cu9      1.0000 0.51236  0.06952  0.40656  Biso   1.000  Cu
  Cu10     1.0000 0.98764  0.93048  0.90656  Biso   1.000  Cu
  Cu11     1.0000 0.48764  0.56952  0.09344  Biso   1.000  Cu
  Cu12     1.0000 0.01236  0.43048  0.59344  Biso   1.000  Cu
  Cu13     1.0000 0.48764  0.93048  0.59344  Biso   1.000  Cu
  Cu14     1.0000 0.01236  0.06952  0.09344  Biso   1.000  Cu
  Cu15     1.0000 0.51236  0.43048  0.90656  Biso   1.000  Cu
  Cu16     1.0000 0.98764  0.56952  0.40656  Biso   1.000  Cu
  O1       1.0000 0.64170  0.38125  0.61888  Biso   1.000  O
  O2       1.0000 0.85830  0.61875  0.11888  Biso   1.000  O
  O3       1.0000 0.35830  0.88125  0.88112  Biso   1.000  O
  O4       1.0000 0.14170  0.11875  0.38112  Biso   1.000  O
  O5       1.0000 0.35830  0.61875  0.38112  Biso   1.000  O
  O6       1.0000 0.14170  0.38125  0.88112  Biso   1.000  O
  O7       1.0000 0.64170  0.11875  0.11888  Biso   1.000  O
  O8       1.0000 0.85830  0.88125  0.61888  Biso   1.000  O
  O9       1.0000 0.61660  0.13248  0.38040  Biso   1.000  O
  O10      1.0000 0.88340  0.86752  0.88040  Biso   1.000  O
  O11      1.0000 0.38340  0.63248  0.11960  Biso   1.000  O
  O12      1.0000 0.11660  0.36752  0.61960  Biso   1.000  O
  O13      1.0000 0.38340  0.86752  0.61960  Biso   1.000  O
  O14      1.0000 0.11660  0.13248  0.11960  Biso   1.000  O
  O15      1.0000 0.61660  0.36752  0.88040  Biso   1.000  O
  O16      1.0000 0.88340  0.63248  0.38040  Biso   1.000  O
  O17      1.0000 0.47290  0.43320  0.55710  Biso   1.000  O
  O18      1.0000 0.02710  0.56680  0.05710  Biso   1.000  O
  O19      1.0000 0.52710  0.93320  0.94290  Biso   1.000  O
  O20      1.0000 0.97290  0.06680  0.44290  Biso   1.000  O
  O21      1.0000 0.52710  0.56680  0.44290  Biso   1.000  O
  O22      1.0000 0.97290  0.43320  0.94290  Biso   1.000  O
  O23      1.0000 0.47290  0.06680  0.05710  Biso   1.000  O
  O24      1.0000 0.02710  0.93320  0.55710  Biso   1.000  O
  H1       1.0000 0.52660  0.42280  0.57450  Biso   1.000  H
  H2       1.0000 0.97340  0.57720  0.07450  Biso   1.000  H
  H3       1.0000 0.47340  0.92280  0.92550  Biso   1.000  H
  H4       1.0000 0.02660  0.07720  0.42550  Biso   1.000  H
  H5       1.0000 0.47340  0.57720  0.42550  Biso   1.000  H
  H6       1.0000 0.02660  0.42280  0.92550  Biso   1.000  H
  H7       1.0000 0.52660  0.07720  0.07450  Biso   1.000  H
  H8       1.0000 0.97340  0.92280  0.57450  Biso   1.000  H
  H9       1.0000 0.48080  0.47100  0.54750  Biso   1.000  H
  H10      1.0000 0.01920  0.52900  0.04750  Biso   1.000  H
  H11      1.0000 0.51920  0.97100  0.95250  Biso   1.000  H
  H12      1.0000 0.98080  0.02900  0.45250  Biso   1.000  H
  H13      1.0000 0.51920  0.52900  0.45250  Biso   1.000  H
  H14      1.0000 0.98080  0.47100  0.95250  Biso   1.000  H
  H15      1.0000 0.48080  0.02900  0.04750  Biso   1.000  H
  H16      1.0000 0.01920  0.97100  0.54750  Biso   1.000  H
  O25      1.0000 0.84270  0.14630  0.43320  Biso   1.000  O
  O26      1.0000 0.65730  0.85370  0.93320  Biso   1.000  O
  O27      1.0000 0.15730  0.64630  0.06680  Biso   1.000  O
  O28      1.0000 0.34270  0.35370  0.56680  Biso   1.000  O
  O29      1.0000 0.15730  0.85370  0.56680  Biso   1.000  O
  O30      1.0000 0.34270  0.14630  0.06680  Biso   1.000  O
  O31      1.0000 0.84270  0.35370  0.93320  Biso   1.000  O
  O32      1.0000 0.65730  0.64630  0.43320  Biso   1.000  O
  H17      1.0000 0.78790  0.13360  0.41770  Biso   1.000  H
  H18      1.0000 0.71210  0.86640  0.91770  Biso   1.000  H
  H19      1.0000 0.21210  0.63360  0.08230  Biso   1.000  H
  H20      1.0000 0.28790  0.36640  0.58230  Biso   1.000  H
  H21      1.0000 0.21210  0.86640  0.58230  Biso   1.000  H
  H22      1.0000 0.28790  0.13360  0.08230  Biso   1.000  H
  H23      1.0000 0.78790  0.36640  0.91770  Biso   1.000  H
  H24      1.0000 0.71210  0.63360  0.41770  Biso   1.000  H
  H25      1.0000 0.83670  0.18580  0.43730  Biso   1.000  H
  H26      1.0000 0.66330  0.81420  0.93730  Biso   1.000  H
  H27      1.0000 0.16330  0.68580  0.06270  Biso   1.000  H
  H28      1.0000 0.33670  0.31420  0.56270  Biso   1.000  H
  H29      1.0000 0.16330  0.81420  0.56270  Biso   1.000  H
  H30      1.0000 0.33670  0.18580  0.06270  Biso   1.000  H
  H31      1.0000 0.83670  0.31420  0.93730  Biso   1.000  H
  H32      1.0000 0.66330  0.68580  0.43730  Biso   1.000  H
  N1       1.0000 0.88340  0.26882  0.58984  Biso   1.000  N
  N2       1.0000 0.61660  0.73118  0.08984  Biso   1.000  N
  N3       1.0000 0.11660  0.76882  0.91016  Biso   1.000  N
  N4       1.0000 0.38340  0.23118  0.41016  Biso   1.000  N
  N5       1.0000 0.11660  0.73118  0.41016  Biso   1.000  N
  N6       1.0000 0.38340  0.26882  0.91016  Biso   1.000  N
  N7       1.0000 0.88340  0.23118  0.08984  Biso   1.000  N
  N8       1.0000 0.61660  0.76882  0.58984  Biso   1.000  N
  N9       1.0000 0.77360  0.31179  0.66329  Biso   1.000  N
  N10      1.0000 0.72640  0.68821  0.16329  Biso   1.000  N
  N11      1.0000 0.22640  0.81179  0.83671  Biso   1.000  N
  N12      1.0000 0.27360  0.18821  0.33671  Biso   1.000  N
  N13      1.0000 0.22640  0.68821  0.33671  Biso   1.000  N
  N14      1.0000 0.27360  0.31179  0.83671  Biso   1.000  N
  N15      1.0000 0.77360  0.18821  0.16329  Biso   1.000  N
  N16      1.0000 0.72640  0.81179  0.66329  Biso   1.000  N
  N17      1.0000 0.70200  0.33965  0.69487  Biso   1.000  N
  N18      1.0000 0.79800  0.66035  0.19487  Biso   1.000  N
  N19      1.0000 0.29800  0.83965  0.80513  Biso   1.000  N
  N20      1.0000 0.20200  0.16035  0.30513  Biso   1.000  N
  N21      1.0000 0.29800  0.66035  0.30513  Biso   1.000  N
  N22      1.0000 0.20200  0.33965  0.80513  Biso   1.000  N
  N23      1.0000 0.70200  0.16035  0.19487  Biso   1.000  N
  N24      1.0000 0.79800  0.83965  0.69487  Biso   1.000  N
  N25      1.0000 0.56290  0.41008  0.69133  Biso   1.000  N
  N26      1.0000 0.93710  0.58992  0.19133  Biso   1.000  N
  N27      1.0000 0.43710  0.91008  0.80867  Biso   1.000  N
  N28      1.0000 0.06290  0.08992  0.30867  Biso   1.000  N
  N29      1.0000 0.43710  0.58992  0.30867  Biso   1.000  N
  N30      1.0000 0.06290  0.41008  0.80867  Biso   1.000  N
  N31      1.0000 0.56290  0.08992  0.19133  Biso   1.000  N
  N32      1.0000 0.93710  0.91008  0.69133  Biso   1.000  N
  H33      1.0000 0.51840  0.43510  0.67490  Biso   1.000  H
  H34      1.0000 0.98160  0.56490  0.17490  Biso   1.000  H
  H35      1.0000 0.48160  0.93510  0.82510  Biso   1.000  H
  H36      1.0000 0.01840  0.06490  0.32510  Biso   1.000  H
  H37      1.0000 0.48160  0.56490  0.32510  Biso   1.000  H
  H38      1.0000 0.01840  0.43510  0.82510  Biso   1.000  H
  H39      1.0000 0.51840  0.06490  0.17490  Biso   1.000  H
  H40      1.0000 0.98160  0.93510  0.67490  Biso   1.000  H
  H41      1.0000 0.55860  0.40730  0.72410  Biso   1.000  H
  H42      1.0000 0.94140  0.59270  0.22410  Biso   1.000  H
  H43      1.0000 0.44140  0.90730  0.77590  Biso   1.000  H
  H44      1.0000 0.05860  0.09270  0.27590  Biso   1.000  H
  H45      1.0000 0.44140  0.59270  0.27590  Biso   1.000  H
  H46      1.0000 0.05860  0.40730  0.77590  Biso   1.000  H
  H47      1.0000 0.55860  0.09270  0.22410  Biso   1.000  H
  H48      1.0000 0.94140  0.90730  0.72410  Biso   1.000  H
  N33      1.0000 0.38070  0.01320  0.40768  Biso   1.000  N
  N34      1.0000 0.11930  0.98680  0.90768  Biso   1.000  N
  N35      1.0000 0.61930  0.51320  0.09232  Biso   1.000  N
  N36      1.0000 0.88070  0.48680  0.59232  Biso   1.000  N
  N37      1.0000 0.61930  0.98680  0.59232  Biso   1.000  N
  N38      1.0000 0.88070  0.01320  0.09232  Biso   1.000  N
  N39      1.0000 0.38070  0.48680  0.90768  Biso   1.000  N
  N40      1.0000 0.11930  0.51320  0.40768  Biso   1.000  N
  N41      1.0000 0.48820  0.06112  0.33509  Biso   1.000  N
  N42      1.0000 0.01180  0.93888  0.83509  Biso   1.000  N
  N43      1.0000 0.51180  0.56112  0.16491  Biso   1.000  N
  N44      1.0000 0.98820  0.43888  0.66491  Biso   1.000  N
  N45      1.0000 0.51180  0.93888  0.66491  Biso   1.000  N
  N46      1.0000 0.98820  0.06112  0.16491  Biso   1.000  N
  N47      1.0000 0.48820  0.43888  0.83509  Biso   1.000  N
  N48      1.0000 0.01180  0.56112  0.33509  Biso   1.000  N
  N49      1.0000 0.55550  0.09307  0.30382  Biso   1.000  N
  N50      1.0000 0.94450  0.90693  0.80382  Biso   1.000  N
  N51      1.0000 0.44450  0.59307  0.19618  Biso   1.000  N
  N52      1.0000 0.05550  0.40693  0.69618  Biso   1.000  N
  N53      1.0000 0.44450  0.90693  0.69618  Biso   1.000  N
  N54      1.0000 0.05550  0.09307  0.19618  Biso   1.000  N
  N55      1.0000 0.55550  0.40693  0.80382  Biso   1.000  N
  N56      1.0000 0.94450  0.59307  0.30382  Biso   1.000  N
  N57      1.0000 0.69090  0.16608  0.30793  Biso   1.000  N
  N58      1.0000 0.80910  0.83392  0.80793  Biso   1.000  N
  N59      1.0000 0.30910  0.66608  0.19207  Biso   1.000  N
  N60      1.0000 0.19090  0.33392  0.69207  Biso   1.000  N
  N61      1.0000 0.30910  0.83392  0.69207  Biso   1.000  N
  N62      1.0000 0.19090  0.16608  0.19207  Biso   1.000  N
  N63      1.0000 0.69090  0.33392  0.80793  Biso   1.000  N
  N64      1.0000 0.80910  0.66608  0.30793  Biso   1.000  N
  H49      1.0000 0.73530  0.19090  0.32460  Biso   1.000  H
  H50      1.0000 0.76470  0.80910  0.82460  Biso   1.000  H
  H51      1.0000 0.26470  0.69090  0.17540  Biso   1.000  H
  H52      1.0000 0.23530  0.30910  0.67540  Biso   1.000  H
  H53      1.0000 0.26470  0.80910  0.67540  Biso   1.000  H
  H54      1.0000 0.23530  0.19090  0.17540  Biso   1.000  H
  H55      1.0000 0.73530  0.30910  0.82460  Biso   1.000  H
  H56      1.0000 0.76470  0.69090  0.32460  Biso   1.000  H
  H57      1.0000 0.69360  0.16490  0.27500  Biso   1.000  H
  H58      1.0000 0.80640  0.83510  0.77500  Biso   1.000  H
  H59      1.0000 0.30640  0.66490  0.22500  Biso   1.000  H
  H60      1.0000 0.19360  0.33510  0.72500  Biso   1.000  H
  H61      1.0000 0.30640  0.83510  0.72500  Biso   1.000  H
  H62      1.0000 0.19360  0.16490  0.22500  Biso   1.000  H
  H63      1.0000 0.69360  0.33510  0.77500  Biso   1.000  H
  H64      1.0000 0.80640  0.66490  0.27500  Biso   1.000  H
  N65      1.0000 0.63990  0.23990  0.58076  Biso   1.000  N
  N66      1.0000 0.86010  0.76010  0.08076  Biso   1.000  N
  N67      1.0000 0.36010  0.73990  0.91924  Biso   1.000  N
  N68      1.0000 0.13990  0.26010  0.41924  Biso   1.000  N
  N69      1.0000 0.36010  0.76010  0.41924  Biso   1.000  N
  N70      1.0000 0.13990  0.23990  0.91924  Biso   1.000  N
  N71      1.0000 0.63990  0.26010  0.08076  Biso   1.000  N
  N72      1.0000 0.86010  0.73990  0.58076  Biso   1.000  N
  N73      1.0000 0.52500  0.15250  0.55530  Biso   1.000  N
  N74      1.0000 0.97500  0.84750  0.05530  Biso   1.000  N
  N75      1.0000 0.47500  0.65250  0.94470  Biso   1.000  N
  N76      1.0000 0.02500  0.34750  0.44470  Biso   1.000  N
  N77      1.0000 0.47500  0.84750  0.44470  Biso   1.000  N
  N78      1.0000 0.02500  0.15250  0.94470  Biso   1.000  N
  N79      1.0000 0.52500  0.34750  0.05530  Biso   1.000  N
  N80      1.0000 0.97500  0.65250  0.55530  Biso   1.000  N
  N81      1.0000 0.51580  0.09809  0.47568  Biso   1.000  N
  N82      1.0000 0.98420  0.90191  0.97568  Biso   1.000  N
  N83      1.0000 0.48420  0.59809  0.02432  Biso   1.000  N
  N84      1.0000 0.01580  0.40191  0.52432  Biso   1.000  N
  N85      1.0000 0.48420  0.90191  0.52432  Biso   1.000  N
  N86      1.0000 0.01580  0.09809  0.02432  Biso   1.000  N
  N87      1.0000 0.51580  0.40191  0.97568  Biso   1.000  N
  N88      1.0000 0.98420  0.59809  0.47568  Biso   1.000  N
  N89      1.0000 0.74960  0.35269  0.52272  Biso   1.000  N
  N90      1.0000 0.75040  0.64731  0.02272  Biso   1.000  N
  N91      1.0000 0.25040  0.85269  0.97728  Biso   1.000  N
  N92      1.0000 0.24960  0.14731  0.47728  Biso   1.000  N
  N93      1.0000 0.25040  0.64731  0.47728  Biso   1.000  N
  N94      1.0000 0.24960  0.35269  0.97728  Biso   1.000  N
  N95      1.0000 0.74960  0.14731  0.02272  Biso   1.000  N
  N96      1.0000 0.75040  0.85269  0.52272  Biso   1.000  N
  N97      1.0000 0.76220  0.39930  0.43995  Biso   1.000  N
  N98      1.0000 0.73780  0.60070  0.93995  Biso   1.000  N
  N99      1.0000 0.23780  0.89930  0.06005  Biso   1.000  N
  N100     1.0000 0.26220  0.10070  0.56005  Biso   1.000  N
  N101     1.0000 0.23780  0.60070  0.56005  Biso   1.000  N
  N102     1.0000 0.26220  0.39930  0.06005  Biso   1.000  N
  N103     1.0000 0.76220  0.10070  0.93995  Biso   1.000  N
  N104     1.0000 0.73780  0.89930  0.43995  Biso   1.000  N
  N105     1.0000 0.87170  0.48903  0.41363  Biso   1.000  N
  N106     1.0000 0.62830  0.51097  0.91363  Biso   1.000  N
  N107     1.0000 0.12830  0.98903  0.08637  Biso   1.000  N
  N108     1.0000 0.37170  0.01097  0.58637  Biso   1.000  N
  N109     1.0000 0.12830  0.51097  0.58637  Biso   1.000  N
  N110     1.0000 0.37170  0.48903  0.08637  Biso   1.000  N
  N111     1.0000 0.87170  0.01097  0.91363  Biso   1.000  N
  N112     1.0000 0.62830  0.98903  0.41363  Biso   1.000  N
  C1       1.0000 0.93800  0.24960  0.54957  Biso   1.000  C
  C2       1.0000 0.56200  0.75040  0.04957  Biso   1.000  C
  C3       1.0000 0.06200  0.74960  0.95043  Biso   1.000  C
  C4       1.0000 0.43800  0.25040  0.45043  Biso   1.000  C
  C5       1.0000 0.06200  0.75040  0.45043  Biso   1.000  C
  C6       1.0000 0.43800  0.24960  0.95043  Biso   1.000  C
  C7       1.0000 0.93800  0.25040  0.04957  Biso   1.000  C
  C8       1.0000 0.56200  0.74960  0.54957  Biso   1.000  C
  H65      1.0000 0.91310  0.26110  0.51800  Biso   1.000  H
  H66      1.0000 0.58690  0.73890  0.01800  Biso   1.000  H
  H67      1.0000 0.08690  0.76110  0.98200  Biso   1.000  H
  H68      1.0000 0.41310  0.23890  0.48200  Biso   1.000  H
  H69      1.0000 0.08690  0.73890  0.48200  Biso   1.000  H
  H70      1.0000 0.41310  0.26110  0.98200  Biso   1.000  H
  H71      1.0000 0.91310  0.23890  0.01800  Biso   1.000  H
  H72      1.0000 0.58690  0.76110  0.51800  Biso   1.000  H
  C9       1.0000 0.02970  0.21320  0.55320  Biso   1.000  C
  C10      1.0000 0.47030  0.78680  0.05320  Biso   1.000  C
  C11      1.0000 0.97030  0.71320  0.94680  Biso   1.000  C
  C12      1.0000 0.52970  0.28680  0.44680  Biso   1.000  C
  C13      1.0000 0.97030  0.78680  0.44680  Biso   1.000  C
  C14      1.0000 0.52970  0.21320  0.94680  Biso   1.000  C
  C15      1.0000 0.02970  0.28680  0.05320  Biso   1.000  C
  C16      1.0000 0.47030  0.71320  0.55320  Biso   1.000  C
  H73      1.0000 0.06580  0.19980  0.52460  Biso   1.000  H
  H74      1.0000 0.43420  0.80020  0.02460  Biso   1.000  H
  H75      1.0000 0.93420  0.69980  0.97540  Biso   1.000  H
  H76      1.0000 0.56580  0.30020  0.47540  Biso   1.000  H
  H77      1.0000 0.93420  0.80020  0.47540  Biso   1.000  H
  H78      1.0000 0.56580  0.19980  0.97540  Biso   1.000  H
  H79      1.0000 0.06580  0.30020  0.02460  Biso   1.000  H
  H80      1.0000 0.43420  0.69980  0.52460  Biso   1.000  H
  C17      1.0000 0.06690  0.19720  0.60000  Biso   1.000  C
  C18      1.0000 0.43310  0.80280  0.10000  Biso   1.000  C
  C19      1.0000 0.93310  0.69720  0.90000  Biso   1.000  C
  C20      1.0000 0.56690  0.30280  0.40000  Biso   1.000  C
  C21      1.0000 0.93310  0.80280  0.40000  Biso   1.000  C
  C22      1.0000 0.56690  0.19720  0.90000  Biso   1.000  C
  C23      1.0000 0.06690  0.30280  0.10000  Biso   1.000  C
  C24      1.0000 0.43310  0.69720  0.60000  Biso   1.000  C
  H81      1.0000 0.13050  0.17410  0.60350  Biso   1.000  H
  H82      1.0000 0.36950  0.82590  0.10350  Biso   1.000  H
  H83      1.0000 0.86950  0.67410  0.89650  Biso   1.000  H
  H84      1.0000 0.63050  0.32590  0.39650  Biso   1.000  H
  H85      1.0000 0.86950  0.82590  0.39650  Biso   1.000  H
  H86      1.0000 0.63050  0.17410  0.89650  Biso   1.000  H
  H87      1.0000 0.13050  0.32590  0.10350  Biso   1.000  H
  H88      1.0000 0.36950  0.67410  0.60350  Biso   1.000  H
  C25      1.0000 0.00950  0.21540  0.64189  Biso   1.000  C
  C26      1.0000 0.49050  0.78460  0.14189  Biso   1.000  C
  C27      1.0000 0.99050  0.71540  0.85811  Biso   1.000  C
  C28      1.0000 0.50950  0.28460  0.35811  Biso   1.000  C
  C29      1.0000 0.99050  0.78460  0.35811  Biso   1.000  C
  C30      1.0000 0.50950  0.21540  0.85811  Biso   1.000  C
  C31      1.0000 0.00950  0.28460  0.14189  Biso   1.000  C
  C32      1.0000 0.49050  0.71540  0.64189  Biso   1.000  C
  H89      1.0000 0.03260  0.20390  0.67370  Biso   1.000  H
  H90      1.0000 0.46740  0.79610  0.17370  Biso   1.000  H
  H91      1.0000 0.96740  0.70390  0.82630  Biso   1.000  H
  H92      1.0000 0.53260  0.29610  0.32630  Biso   1.000  H
  H93      1.0000 0.96740  0.79610  0.32630  Biso   1.000  H
  H94      1.0000 0.53260  0.20390  0.82630  Biso   1.000  H
  H95      1.0000 0.03260  0.29610  0.17370  Biso   1.000  H
  H96      1.0000 0.46740  0.70390  0.67370  Biso   1.000  H
  C33      1.0000 0.91720  0.25110  0.63568  Biso   1.000  C
  C34      1.0000 0.58280  0.74890  0.13568  Biso   1.000  C
  C35      1.0000 0.08280  0.75110  0.86432  Biso   1.000  C
  C36      1.0000 0.41720  0.24890  0.36432  Biso   1.000  C
  C37      1.0000 0.08280  0.74890  0.36432  Biso   1.000  C
  C38      1.0000 0.41720  0.25110  0.86432  Biso   1.000  C
  C39      1.0000 0.91720  0.24890  0.13568  Biso   1.000  C
  C40      1.0000 0.58280  0.75110  0.63568  Biso   1.000  C
  C41      1.0000 0.84860  0.27313  0.67749  Biso   1.000  C
  C42      1.0000 0.65140  0.72687  0.17749  Biso   1.000  C
  C43      1.0000 0.15140  0.77313  0.82251  Biso   1.000  C
  C44      1.0000 0.34860  0.22687  0.32251  Biso   1.000  C
  C45      1.0000 0.15140  0.72687  0.32251  Biso   1.000  C
  C46      1.0000 0.34860  0.27313  0.82251  Biso   1.000  C
  C47      1.0000 0.84860  0.22687  0.17749  Biso   1.000  C
  C48      1.0000 0.65140  0.77313  0.67749  Biso   1.000  C
  C49      1.0000 0.86050  0.24717  0.72905  Biso   1.000  C
  C50      1.0000 0.63950  0.75283  0.22905  Biso   1.000  C
  C51      1.0000 0.13950  0.74717  0.77095  Biso   1.000  C
  C52      1.0000 0.36050  0.25283  0.27095  Biso   1.000  C
  C53      1.0000 0.13950  0.75283  0.27095  Biso   1.000  C
  C54      1.0000 0.36050  0.24717  0.77095  Biso   1.000  C
  C55      1.0000 0.86050  0.25283  0.22905  Biso   1.000  C
  C56      1.0000 0.63950  0.74717  0.72905  Biso   1.000  C
  C57      1.0000 0.78860  0.20160  0.74534  Biso   1.000  C
  C58      1.0000 0.71140  0.79840  0.24534  Biso   1.000  C
  C59      1.0000 0.21140  0.70160  0.75466  Biso   1.000  C
  C60      1.0000 0.28860  0.29840  0.25466  Biso   1.000  C
  C61      1.0000 0.21140  0.79840  0.25466  Biso   1.000  C
  C62      1.0000 0.28860  0.20160  0.75466  Biso   1.000  C
  C63      1.0000 0.78860  0.29840  0.24534  Biso   1.000  C
  C64      1.0000 0.71140  0.70160  0.74534  Biso   1.000  C
  H97      1.0000 0.73210  0.18900  0.72470  Biso   1.000  H
  H98      1.0000 0.76790  0.81100  0.22470  Biso   1.000  H
  H99      1.0000 0.26790  0.68900  0.77530  Biso   1.000  H
  H100     1.0000 0.23210  0.31100  0.27530  Biso   1.000  H
  H101     1.0000 0.26790  0.81100  0.27530  Biso   1.000  H
  H102     1.0000 0.23210  0.18900  0.77530  Biso   1.000  H
  H103     1.0000 0.73210  0.31100  0.22470  Biso   1.000  H
  H104     1.0000 0.76790  0.68900  0.72470  Biso   1.000  H
  C65      1.0000 0.80020  0.17450  0.79240  Biso   1.000  C
  C66      1.0000 0.69980  0.82550  0.29240  Biso   1.000  C
  C67      1.0000 0.19980  0.67450  0.70760  Biso   1.000  C
  C68      1.0000 0.30020  0.32550  0.20760  Biso   1.000  C
  C69      1.0000 0.19980  0.82550  0.20760  Biso   1.000  C
  C70      1.0000 0.30020  0.17450  0.70760  Biso   1.000  C
  C71      1.0000 0.80020  0.32550  0.29240  Biso   1.000  C
  C72      1.0000 0.69980  0.67450  0.79240  Biso   1.000  C
  H105     1.0000 0.75190  0.14360  0.80320  Biso   1.000  H
  H106     1.0000 0.74810  0.85640  0.30320  Biso   1.000  H
  H107     1.0000 0.24810  0.64360  0.69680  Biso   1.000  H
  H108     1.0000 0.25190  0.35640  0.19680  Biso   1.000  H
  H109     1.0000 0.24810  0.85640  0.19680  Biso   1.000  H
  H110     1.0000 0.25190  0.14360  0.69680  Biso   1.000  H
  H111     1.0000 0.75190  0.35640  0.30320  Biso   1.000  H
  H112     1.0000 0.74810  0.64360  0.80320  Biso   1.000  H
  C73      1.0000 0.88350  0.19350  0.82286  Biso   1.000  C
  C74      1.0000 0.61650  0.80650  0.32286  Biso   1.000  C
  C75      1.0000 0.11650  0.69350  0.67714  Biso   1.000  C
  C76      1.0000 0.38350  0.30650  0.17714  Biso   1.000  C
  C77      1.0000 0.11650  0.80650  0.17714  Biso   1.000  C
  C78      1.0000 0.38350  0.19350  0.67714  Biso   1.000  C
  C79      1.0000 0.88350  0.30650  0.32286  Biso   1.000  C
  C80      1.0000 0.61650  0.69350  0.82286  Biso   1.000  C
  H113     1.0000 0.89090  0.17580  0.85460  Biso   1.000  H
  H114     1.0000 0.60910  0.82420  0.35460  Biso   1.000  H
  H115     1.0000 0.10910  0.67580  0.64540  Biso   1.000  H
  H116     1.0000 0.39090  0.32420  0.14540  Biso   1.000  H
  H117     1.0000 0.10910  0.82420  0.14540  Biso   1.000  H
  H118     1.0000 0.39090  0.17580  0.64540  Biso   1.000  H
  H119     1.0000 0.89090  0.32420  0.35460  Biso   1.000  H
  H120     1.0000 0.60910  0.67580  0.85460  Biso   1.000  H
  C81      1.0000 0.95520  0.23790  0.80682  Biso   1.000  C
  C82      1.0000 0.54480  0.76210  0.30682  Biso   1.000  C
  C83      1.0000 0.04480  0.73790  0.69318  Biso   1.000  C
  C84      1.0000 0.45520  0.26210  0.19318  Biso   1.000  C
  C85      1.0000 0.04480  0.76210  0.19318  Biso   1.000  C
  C86      1.0000 0.45520  0.23790  0.69318  Biso   1.000  C
  C87      1.0000 0.95520  0.26210  0.30682  Biso   1.000  C
  C88      1.0000 0.54480  0.73790  0.80682  Biso   1.000  C
  H121     1.0000 0.01190  0.25040  0.82750  Biso   1.000  H
  H122     1.0000 0.48810  0.74960  0.32750  Biso   1.000  H
  H123     1.0000 0.98810  0.75040  0.67250  Biso   1.000  H
  H124     1.0000 0.51190  0.24960  0.17250  Biso   1.000  H
  H125     1.0000 0.98810  0.74960  0.17250  Biso   1.000  H
  H126     1.0000 0.51190  0.25040  0.67250  Biso   1.000  H
  H127     1.0000 0.01190  0.24960  0.32750  Biso   1.000  H
  H128     1.0000 0.48810  0.75040  0.82750  Biso   1.000  H
  C89      1.0000 0.94400  0.26450  0.76020  Biso   1.000  C
  C90      1.0000 0.55600  0.73550  0.26020  Biso   1.000  C
  C91      1.0000 0.05600  0.76450  0.73980  Biso   1.000  C
  C92      1.0000 0.44400  0.23550  0.23980  Biso   1.000  C
  C93      1.0000 0.05600  0.73550  0.23980  Biso   1.000  C
  C94      1.0000 0.44400  0.26450  0.73980  Biso   1.000  C
  C95      1.0000 0.94400  0.23550  0.26020  Biso   1.000  C
  C96      1.0000 0.55600  0.76450  0.76020  Biso   1.000  C
  H129     1.0000 0.99370  0.29470  0.74940  Biso   1.000  H
  H130     1.0000 0.50630  0.70530  0.24940  Biso   1.000  H
  H131     1.0000 0.00630  0.79470  0.75060  Biso   1.000  H
  H132     1.0000 0.49370  0.20530  0.25060  Biso   1.000  H
  H133     1.0000 0.00630  0.70530  0.25060  Biso   1.000  H
  H134     1.0000 0.49370  0.29470  0.75060  Biso   1.000  H
  H135     1.0000 0.99370  0.20530  0.24940  Biso   1.000  H
  H136     1.0000 0.50630  0.79470  0.74940  Biso   1.000  H
  C97      1.0000 0.63700  0.37643  0.66655  Biso   1.000  C
  C98      1.0000 0.86300  0.62357  0.16655  Biso   1.000  C
  C99      1.0000 0.36300  0.87643  0.83345  Biso   1.000  C
  C100     1.0000 0.13700  0.12357  0.33345  Biso   1.000  C
  C101     1.0000 0.36300  0.62357  0.33345  Biso   1.000  C
  C102     1.0000 0.13700  0.37643  0.83345  Biso   1.000  C
  C103     1.0000 0.63700  0.12357  0.16655  Biso   1.000  C
  C104     1.0000 0.86300  0.87643  0.66655  Biso   1.000  C
  C105     1.0000 0.32810  0.99040  0.44722  Biso   1.000  C
  C106     1.0000 0.17190  0.00960  0.94722  Biso   1.000  C
  C107     1.0000 0.67190  0.49040  0.05278  Biso   1.000  C
  C108     1.0000 0.82810  0.50960  0.55278  Biso   1.000  C
  C109     1.0000 0.67190  0.00960  0.55278  Biso   1.000  C
  C110     1.0000 0.82810  0.99040  0.05278  Biso   1.000  C
  C111     1.0000 0.32810  0.50960  0.94722  Biso   1.000  C
  C112     1.0000 0.17190  0.49040  0.44722  Biso   1.000  C
  H137     1.0000 0.34840  0.00400  0.47900  Biso   1.000  H
  H138     1.0000 0.15160  0.99600  0.97900  Biso   1.000  H
  H139     1.0000 0.65160  0.50400  0.02100  Biso   1.000  H
  H140     1.0000 0.84840  0.49600  0.52100  Biso   1.000  H
  H141     1.0000 0.65160  0.99600  0.52100  Biso   1.000  H
  H142     1.0000 0.84840  0.00400  0.02100  Biso   1.000  H
  H143     1.0000 0.34840  0.49600  0.97900  Biso   1.000  H
  H144     1.0000 0.15160  0.50400  0.47900  Biso   1.000  H
  C113     1.0000 0.24550  0.94780  0.44297  Biso   1.000  C
  C114     1.0000 0.25450  0.05220  0.94297  Biso   1.000  C
  C115     1.0000 0.75450  0.44780  0.05703  Biso   1.000  C
  C116     1.0000 0.74550  0.55220  0.55703  Biso   1.000  C
  C117     1.0000 0.75450  0.05220  0.55703  Biso   1.000  C
  C118     1.0000 0.74550  0.94780  0.05703  Biso   1.000  C
  C119     1.0000 0.24550  0.55220  0.94297  Biso   1.000  C
  C120     1.0000 0.25450  0.44780  0.44297  Biso   1.000  C
  H145     1.0000 0.20980  0.93290  0.47130  Biso   1.000  H
  H146     1.0000 0.29020  0.06710  0.97130  Biso   1.000  H
  H147     1.0000 0.79020  0.43290  0.02870  Biso   1.000  H
  H148     1.0000 0.70980  0.56710  0.52870  Biso   1.000  H
  H149     1.0000 0.79020  0.06710  0.52870  Biso   1.000  H
  H150     1.0000 0.70980  0.93290  0.02870  Biso   1.000  H
  H151     1.0000 0.20980  0.56710  0.97130  Biso   1.000  H
  H152     1.0000 0.29020  0.43290  0.47130  Biso   1.000  H
  C121     1.0000 0.21610  0.92750  0.39590  Biso   1.000  C
  C122     1.0000 0.28390  0.07250  0.89590  Biso   1.000  C
  C123     1.0000 0.78390  0.42750  0.10410  Biso   1.000  C
  C124     1.0000 0.71610  0.57250  0.60410  Biso   1.000  C
  C125     1.0000 0.78390  0.07250  0.60410  Biso   1.000  C
  C126     1.0000 0.71610  0.92750  0.10410  Biso   1.000  C
  C127     1.0000 0.21610  0.57250  0.89590  Biso   1.000  C
  C128     1.0000 0.28390  0.42750  0.39590  Biso   1.000  C
  H153     1.0000 0.16020  0.89840  0.39200  Biso   1.000  H
  H154     1.0000 0.33980  0.10160  0.89200  Biso   1.000  H
  H155     1.0000 0.83980  0.39840  0.10800  Biso   1.000  H
  H156     1.0000 0.66020  0.60160  0.60800  Biso   1.000  H
  H157     1.0000 0.83980  0.10160  0.60800  Biso   1.000  H
  H158     1.0000 0.66020  0.89840  0.10800  Biso   1.000  H
  H159     1.0000 0.16020  0.60160  0.89200  Biso   1.000  H
  H160     1.0000 0.33980  0.39840  0.39200  Biso   1.000  H
  C129     1.0000 0.27030  0.95060  0.35449  Biso   1.000  C
  C130     1.0000 0.22970  0.04940  0.85449  Biso   1.000  C
  C131     1.0000 0.72970  0.45060  0.14551  Biso   1.000  C
  C132     1.0000 0.77030  0.54940  0.64551  Biso   1.000  C
  C133     1.0000 0.72970  0.04940  0.64551  Biso   1.000  C
  C134     1.0000 0.77030  0.95060  0.14551  Biso   1.000  C
  C135     1.0000 0.27030  0.54940  0.85449  Biso   1.000  C
  C136     1.0000 0.22970  0.45060  0.35449  Biso   1.000  C
  H161     1.0000 0.25130  0.93730  0.32250  Biso   1.000  H
  H162     1.0000 0.24870  0.06270  0.82250  Biso   1.000  H
  H163     1.0000 0.74870  0.43730  0.17750  Biso   1.000  H
  H164     1.0000 0.75130  0.56270  0.67750  Biso   1.000  H
  H165     1.0000 0.74870  0.06270  0.67750  Biso   1.000  H
  H166     1.0000 0.75130  0.93730  0.17750  Biso   1.000  H
  H167     1.0000 0.25130  0.56270  0.82250  Biso   1.000  H
  H168     1.0000 0.24870  0.43730  0.32250  Biso   1.000  H
  C137     1.0000 0.35200  0.99327  0.36126  Biso   1.000  C
  C138     1.0000 0.14800  0.00673  0.86126  Biso   1.000  C
  C139     1.0000 0.64800  0.49327  0.13874  Biso   1.000  C
  C140     1.0000 0.85200  0.50673  0.63874  Biso   1.000  C
  C141     1.0000 0.64800  0.00673  0.63874  Biso   1.000  C
  C142     1.0000 0.85200  0.99327  0.13874  Biso   1.000  C
  C143     1.0000 0.35200  0.50673  0.86126  Biso   1.000  C
  C144     1.0000 0.14800  0.49327  0.36126  Biso   1.000  C
  C145     1.0000 0.41680  0.02092  0.32052  Biso   1.000  C
  C146     1.0000 0.08320  0.97908  0.82052  Biso   1.000  C
  C147     1.0000 0.58320  0.52092  0.17948  Biso   1.000  C
  C148     1.0000 0.91680  0.47908  0.67948  Biso   1.000  C
  C149     1.0000 0.58320  0.97908  0.67948  Biso   1.000  C
  C150     1.0000 0.91680  0.02092  0.17948  Biso   1.000  C
  C151     1.0000 0.41680  0.47908  0.82052  Biso   1.000  C
  C152     1.0000 0.08320  0.52092  0.32052  Biso   1.000  C
  C153     1.0000 0.40450  0.99962  0.26745  Biso   1.000  C
  C154     1.0000 0.09550  0.00038  0.76745  Biso   1.000  C
  C155     1.0000 0.59550  0.49962  0.23255  Biso   1.000  C
  C156     1.0000 0.90450  0.50038  0.73255  Biso   1.000  C
  C157     1.0000 0.59550  0.00038  0.73255  Biso   1.000  C
  C158     1.0000 0.90450  0.99962  0.23255  Biso   1.000  C
  C159     1.0000 0.40450  0.50038  0.76745  Biso   1.000  C
  C160     1.0000 0.09550  0.49962  0.26745  Biso   1.000  C
  C161     1.0000 0.32090  0.02140  0.23788  Biso   1.000  C
  C162     1.0000 0.17910  0.97860  0.73788  Biso   1.000  C
  C163     1.0000 0.67910  0.52140  0.26212  Biso   1.000  C
  C164     1.0000 0.82090  0.47860  0.76212  Biso   1.000  C
  C165     1.0000 0.67910  0.97860  0.76212  Biso   1.000  C
  C166     1.0000 0.82090  0.02140  0.26212  Biso   1.000  C
  C167     1.0000 0.32090  0.47860  0.73788  Biso   1.000  C
  C168     1.0000 0.17910  0.52140  0.23788  Biso   1.000  C
  H169     1.0000 0.26970  0.04920  0.25080  Biso   1.000  H
  H170     1.0000 0.23030  0.95080  0.75080  Biso   1.000  H
  H171     1.0000 0.73030  0.54920  0.24920  Biso   1.000  H
  H172     1.0000 0.76970  0.45080  0.74920  Biso   1.000  H
  H173     1.0000 0.73030  0.95080  0.74920  Biso   1.000  H
  H174     1.0000 0.76970  0.04920  0.24920  Biso   1.000  H
  H175     1.0000 0.26970  0.45080  0.75080  Biso   1.000  H
  H176     1.0000 0.23030  0.54920  0.25080  Biso   1.000  H
  C169     1.0000 0.31440  0.00110  0.18867  Biso   1.000  C
  C170     1.0000 0.18560  0.99890  0.68867  Biso   1.000  C
  C171     1.0000 0.68560  0.50110  0.31133  Biso   1.000  C
  C172     1.0000 0.81440  0.49890  0.81133  Biso   1.000  C
  C173     1.0000 0.68560  0.99890  0.81133  Biso   1.000  C
  C174     1.0000 0.81440  0.00110  0.31133  Biso   1.000  C
  C175     1.0000 0.31440  0.49890  0.68867  Biso   1.000  C
  C176     1.0000 0.18560  0.50110  0.18867  Biso   1.000  C
  H177     1.0000 0.25800  0.01540  0.16870  Biso   1.000  H
  H178     1.0000 0.24200  0.98460  0.66870  Biso   1.000  H
  H179     1.0000 0.74200  0.51540  0.33130  Biso   1.000  H
  H180     1.0000 0.75800  0.48460  0.83130  Biso   1.000  H
  H181     1.0000 0.74200  0.98460  0.83130  Biso   1.000  H
  H182     1.0000 0.75800  0.01540  0.33130  Biso   1.000  H
  H183     1.0000 0.25800  0.48460  0.66870  Biso   1.000  H
  H184     1.0000 0.24200  0.51540  0.16870  Biso   1.000  H
  C177     1.0000 0.38880  0.96080  0.16898  Biso   1.000  C
  C178     1.0000 0.11120  0.03920  0.66898  Biso   1.000  C
  C179     1.0000 0.61120  0.46080  0.33102  Biso   1.000  C
  C180     1.0000 0.88880  0.53920  0.83102  Biso   1.000  C
  C181     1.0000 0.61120  0.03920  0.83102  Biso   1.000  C
  C182     1.0000 0.88880  0.96080  0.33102  Biso   1.000  C
  C183     1.0000 0.38880  0.53920  0.66898  Biso   1.000  C
  C184     1.0000 0.11120  0.46080  0.16898  Biso   1.000  C
  H185     1.0000 0.38440  0.94860  0.13560  Biso   1.000  H
  H186     1.0000 0.11560  0.05140  0.63560  Biso   1.000  H
  H187     1.0000 0.61560  0.44860  0.36440  Biso   1.000  H
  H188     1.0000 0.88440  0.55140  0.86440  Biso   1.000  H
  H189     1.0000 0.61560  0.05140  0.86440  Biso   1.000  H
  H190     1.0000 0.88440  0.94860  0.36440  Biso   1.000  H
  H191     1.0000 0.38440  0.55140  0.63560  Biso   1.000  H
  H192     1.0000 0.11560  0.44860  0.13560  Biso   1.000  H
  C185     1.0000 0.47090  0.93820  0.19901  Biso   1.000  C
  C186     1.0000 0.02910  0.06180  0.69901  Biso   1.000  C
  C187     1.0000 0.52910  0.43820  0.30099  Biso   1.000  C
  C188     1.0000 0.97090  0.56180  0.80099  Biso   1.000  C
  C189     1.0000 0.52910  0.06180  0.80099  Biso   1.000  C
  C190     1.0000 0.97090  0.93820  0.30099  Biso   1.000  C
  C191     1.0000 0.47090  0.56180  0.69901  Biso   1.000  C
  C192     1.0000 0.02910  0.43820  0.19901  Biso   1.000  C
  H193     1.0000 0.52070  0.90940  0.18620  Biso   1.000  H
  H194     1.0000 0.97930  0.09060  0.68620  Biso   1.000  H
  H195     1.0000 0.47930  0.40940  0.31380  Biso   1.000  H
  H196     1.0000 0.02070  0.59060  0.81380  Biso   1.000  H
  H197     1.0000 0.47930  0.09060  0.81380  Biso   1.000  H
  H198     1.0000 0.02070  0.90940  0.31380  Biso   1.000  H
  H199     1.0000 0.52070  0.59060  0.68620  Biso   1.000  H
  H200     1.0000 0.97930  0.40940  0.18620  Biso   1.000  H
  C193     1.0000 0.47890  0.95830  0.24776  Biso   1.000  C
  C194     1.0000 0.02110  0.04170  0.74776  Biso   1.000  C
  C195     1.0000 0.52110  0.45830  0.25224  Biso   1.000  C
  C196     1.0000 0.97890  0.54170  0.75224  Biso   1.000  C
  C197     1.0000 0.52110  0.04170  0.75224  Biso   1.000  C
  C198     1.0000 0.97890  0.95830  0.25224  Biso   1.000  C
  C199     1.0000 0.47890  0.54170  0.74776  Biso   1.000  C
  C200     1.0000 0.02110  0.45830  0.24776  Biso   1.000  C
  H201     1.0000 0.53540  0.94380  0.26760  Biso   1.000  H
  H202     1.0000 0.96460  0.05620  0.76760  Biso   1.000  H
  H203     1.0000 0.46460  0.44380  0.23240  Biso   1.000  H
  H204     1.0000 0.03540  0.55620  0.73240  Biso   1.000  H
  H205     1.0000 0.46460  0.05620  0.73240  Biso   1.000  H
  H206     1.0000 0.03540  0.94380  0.23240  Biso   1.000  H
  H207     1.0000 0.53540  0.55620  0.76760  Biso   1.000  H
  H208     1.0000 0.96460  0.44380  0.26760  Biso   1.000  H
  C201     1.0000 0.61970  0.13029  0.33247  Biso   1.000  C
  C202     1.0000 0.88030  0.86971  0.83247  Biso   1.000  C
  C203     1.0000 0.38030  0.63029  0.16753  Biso   1.000  C
  C204     1.0000 0.11970  0.36971  0.66753  Biso   1.000  C
  C205     1.0000 0.38030  0.86971  0.66753  Biso   1.000  C
  C206     1.0000 0.11970  0.13029  0.16753  Biso   1.000  C
  C207     1.0000 0.61970  0.36971  0.83247  Biso   1.000  C
  C208     1.0000 0.88030  0.63029  0.33247  Biso   1.000  C
  C209     1.0000 0.58970  0.19870  0.56680  Biso   1.000  C
  C210     1.0000 0.91030  0.80130  0.06680  Biso   1.000  C
  C211     1.0000 0.41030  0.69870  0.93320  Biso   1.000  C
  C212     1.0000 0.08970  0.30130  0.43320  Biso   1.000  C
  C213     1.0000 0.41030  0.80130  0.43320  Biso   1.000  C
  C214     1.0000 0.08970  0.19870  0.93320  Biso   1.000  C
  C215     1.0000 0.58970  0.30130  0.06680  Biso   1.000  C
  C216     1.0000 0.91030  0.69870  0.56680  Biso   1.000  C
  C217     1.0000 0.52530  0.12554  0.51235  Biso   1.000  C
  C218     1.0000 0.97470  0.87446  0.01235  Biso   1.000  C
  C219     1.0000 0.47470  0.62554  0.98765  Biso   1.000  C
  C220     1.0000 0.02530  0.37446  0.48765  Biso   1.000  C
  C221     1.0000 0.47470  0.87446  0.48765  Biso   1.000  C
  C222     1.0000 0.02530  0.12554  0.98765  Biso   1.000  C
  C223     1.0000 0.52530  0.37446  0.01235  Biso   1.000  C
  C224     1.0000 0.97470  0.62554  0.51235  Biso   1.000  C
  C225     1.0000 0.75850  0.37680  0.48527  Biso   1.000  C
  C226     1.0000 0.74150  0.62320  0.98527  Biso   1.000  C
  C227     1.0000 0.24150  0.87680  0.01473  Biso   1.000  C
  C228     1.0000 0.25850  0.12320  0.51473  Biso   1.000  C
  C229     1.0000 0.24150  0.62320  0.51473  Biso   1.000  C
  C230     1.0000 0.25850  0.37680  0.01473  Biso   1.000  C
  C231     1.0000 0.75850  0.12320  0.98527  Biso   1.000  C
  C232     1.0000 0.74150  0.87680  0.48527  Biso   1.000  C
  C233     1.0000 0.82250  0.44780  0.42797  Biso   1.000  C
  C234     1.0000 0.67750  0.55220  0.92797  Biso   1.000  C
  C235     1.0000 0.17750  0.94780  0.07203  Biso   1.000  C
  C236     1.0000 0.32250  0.05220  0.57203  Biso   1.000  C
  C237     1.0000 0.17750  0.55220  0.57203  Biso   1.000  C
  C238     1.0000 0.32250  0.44780  0.07203  Biso   1.000  C
  C239     1.0000 0.82250  0.05220  0.92797  Biso   1.000  C
  C240     1.0000 0.67750  0.94780  0.42797  Biso   1.000  C
  O33      1.0000 0.79290  0.18880  0.44020  Biso   1.000  O
  O34      1.0000 0.70710  0.81120  0.94020  Biso   1.000  O
  O35      1.0000 0.20710  0.68880  0.05980  Biso   1.000  O
  O36      1.0000 0.29290  0.31120  0.55980  Biso   1.000  O
  O37      1.0000 0.20710  0.81120  0.55980  Biso   1.000  O
  O38      1.0000 0.29290  0.18880  0.05980  Biso   1.000  O
  O39      1.0000 0.79290  0.31120  0.94020  Biso   1.000  O
  O40      1.0000 0.70710  0.68880  0.44020  Biso   1.000  O
