data_image0
_cell_length_a       15.76
_cell_length_b       15.76
_cell_length_c       15.76
_cell_angle_alpha    90
_cell_angle_beta     90
_cell_angle_gamma    90

_symmetry_space_group_name_H-M    "P 1"
_symmetry_int_tables_number       1

loop_
  _symmetry_equiv_pos_as_xyz
  'x, y, z'

loop_
  _atom_site_label
  _atom_site_occupancy
  _atom_site_fract_x
  _atom_site_fract_y
  _atom_site_fract_z
  _atom_site_thermal_displace_type
  _atom_site_B_iso_or_equiv
  _atom_site_type_symbol
  Cu1      1.0000 0.50000  0.75000  0.25000  Biso   1.000  Cu
  Cu2      1.0000 0.25000  0.50000  0.75000  Biso   1.000  Cu
  Cu3      1.0000 0.75000  0.25000  0.50000  Biso   1.000  Cu
  Cu4      1.0000 0.25000  0.00000  0.75000  Biso   1.000  Cu
  Cu5      1.0000 0.00000  0.75000  0.25000  Biso   1.000  Cu
  Cu6      1.0000 0.75000  0.25000  0.00000  Biso   1.000  Cu
  Cu7      1.0000 0.00000  0.25000  0.75000  Biso   1.000  Cu
  Cu8      1.0000 0.50000  0.25000  0.75000  Biso   1.000  Cu
  Cu9      1.0000 0.75000  0.00000  0.25000  Biso   1.000  Cu
  Cu10     1.0000 0.75000  0.50000  0.25000  Biso   1.000  Cu
  Cu11     1.0000 0.25000  0.75000  0.00000  Biso   1.000  Cu
  Cu12     1.0000 0.25000  0.75000  0.50000  Biso   1.000  Cu
  N1       1.0000 0.41160  0.82050  0.19400  Biso   1.000  N
  N2       1.0000 0.19400  0.41160  0.82050  Biso   1.000  N
  N3       1.0000 0.82050  0.19400  0.41160  Biso   1.000  N
  N4       1.0000 0.32050  0.91160  0.80600  Biso   1.000  N
  N5       1.0000 0.32050  0.58840  0.69400  Biso   1.000  N
  N6       1.0000 0.17950  0.91160  0.69400  Biso   1.000  N
  N7       1.0000 0.91160  0.69400  0.17950  Biso   1.000  N
  N8       1.0000 0.58840  0.69400  0.32050  Biso   1.000  N
  N9       1.0000 0.91160  0.80600  0.32050  Biso   1.000  N
  N10      1.0000 0.69400  0.32050  0.58840  Biso   1.000  N
  N11      1.0000 0.69400  0.17950  0.91160  Biso   1.000  N
  N12      1.0000 0.80600  0.32050  0.91160  Biso   1.000  N
  N13      1.0000 0.91160  0.32050  0.80600  Biso   1.000  N
  N14      1.0000 0.91160  0.17950  0.69400  Biso   1.000  N
  N15      1.0000 0.58840  0.32050  0.69400  Biso   1.000  N
  N16      1.0000 0.80600  0.91160  0.32050  Biso   1.000  N
  N17      1.0000 0.69400  0.91160  0.17950  Biso   1.000  N
  N18      1.0000 0.69400  0.58840  0.32050  Biso   1.000  N
  N19      1.0000 0.32050  0.80600  0.91160  Biso   1.000  N
  N20      1.0000 0.17950  0.69400  0.91160  Biso   1.000  N
  N21      1.0000 0.32050  0.69400  0.58840  Biso   1.000  N
  N22      1.0000 0.82050  0.41160  0.19400  Biso   1.000  N
  N23      1.0000 0.41160  0.19400  0.82050  Biso   1.000  N
  N24      1.0000 0.19400  0.82050  0.41160  Biso   1.000  N
  N25      1.0000 0.58840  0.17950  0.80600  Biso   1.000  N
  N26      1.0000 0.80600  0.58840  0.17950  Biso   1.000  N
  N27      1.0000 0.17950  0.80600  0.58840  Biso   1.000  N
  N28      1.0000 0.67950  0.08840  0.19400  Biso   1.000  N
  N29      1.0000 0.67950  0.41160  0.30600  Biso   1.000  N
  N30      1.0000 0.82050  0.08840  0.30600  Biso   1.000  N
  N31      1.0000 0.08840  0.30600  0.82050  Biso   1.000  N
  N32      1.0000 0.41160  0.30600  0.67950  Biso   1.000  N
  N33      1.0000 0.08840  0.19400  0.67950  Biso   1.000  N
  N34      1.0000 0.30600  0.67950  0.41160  Biso   1.000  N
  N35      1.0000 0.30600  0.82050  0.08840  Biso   1.000  N
  N36      1.0000 0.19400  0.67950  0.08840  Biso   1.000  N
  N37      1.0000 0.08840  0.67950  0.19400  Biso   1.000  N
  N38      1.0000 0.08840  0.82050  0.30600  Biso   1.000  N
  N39      1.0000 0.41160  0.67950  0.30600  Biso   1.000  N
  N40      1.0000 0.19400  0.08840  0.67950  Biso   1.000  N
  N41      1.0000 0.30600  0.08840  0.82050  Biso   1.000  N
  N42      1.0000 0.30600  0.41160  0.67950  Biso   1.000  N
  N43      1.0000 0.67950  0.19400  0.08840  Biso   1.000  N
  N44      1.0000 0.82050  0.30600  0.08840  Biso   1.000  N
  N45      1.0000 0.67950  0.30600  0.41160  Biso   1.000  N
  N46      1.0000 0.17950  0.58840  0.80600  Biso   1.000  N
  N47      1.0000 0.58840  0.80600  0.17950  Biso   1.000  N
  N48      1.0000 0.80600  0.17950  0.58840  Biso   1.000  N
  C1       1.0000 0.37220  0.78120  0.12780  Biso   1.000  C
  C2       1.0000 0.12780  0.37220  0.78120  Biso   1.000  C
  C3       1.0000 0.78120  0.12780  0.37220  Biso   1.000  C
  C4       1.0000 0.28120  0.87220  0.87220  Biso   1.000  C
  C5       1.0000 0.28120  0.62780  0.62780  Biso   1.000  C
  C6       1.0000 0.21880  0.87220  0.62780  Biso   1.000  C
  C7       1.0000 0.87220  0.62780  0.21880  Biso   1.000  C
  C8       1.0000 0.62780  0.62780  0.28120  Biso   1.000  C
  C9       1.0000 0.87220  0.87220  0.28120  Biso   1.000  C
  C10      1.0000 0.62780  0.28120  0.62780  Biso   1.000  C
  C11      1.0000 0.62780  0.21880  0.87220  Biso   1.000  C
  C12      1.0000 0.87220  0.28120  0.87220  Biso   1.000  C
  C13      1.0000 0.87220  0.21880  0.62780  Biso   1.000  C
  C14      1.0000 0.62780  0.87220  0.21880  Biso   1.000  C
  C15      1.0000 0.21880  0.62780  0.87220  Biso   1.000  C
  C16      1.0000 0.78120  0.37220  0.12780  Biso   1.000  C
  C17      1.0000 0.37220  0.12780  0.78120  Biso   1.000  C
  C18      1.0000 0.12780  0.78120  0.37220  Biso   1.000  C
  C19      1.0000 0.71880  0.12780  0.12780  Biso   1.000  C
  C20      1.0000 0.71880  0.37220  0.37220  Biso   1.000  C
  C21      1.0000 0.37220  0.37220  0.71880  Biso   1.000  C
  C22      1.0000 0.12780  0.12780  0.71880  Biso   1.000  C
  C23      1.0000 0.37220  0.71880  0.37220  Biso   1.000  C
  C24      1.0000 0.12780  0.71880  0.12780  Biso   1.000  C
  O1       1.0000 0.39580  0.70920  0.10420  Biso   1.000  O
  O2       1.0000 0.10420  0.39580  0.70920  Biso   1.000  O
  O3       1.0000 0.70920  0.10420  0.39580  Biso   1.000  O
  O4       1.0000 0.20920  0.89580  0.89580  Biso   1.000  O
  O5       1.0000 0.20920  0.60420  0.60420  Biso   1.000  O
  O6       1.0000 0.29080  0.89580  0.60420  Biso   1.000  O
  O7       1.0000 0.89580  0.60420  0.29080  Biso   1.000  O
  O8       1.0000 0.60420  0.60420  0.20920  Biso   1.000  O
  O9       1.0000 0.89580  0.89580  0.20920  Biso   1.000  O
  O10      1.0000 0.60420  0.20920  0.60420  Biso   1.000  O
  O11      1.0000 0.60420  0.29080  0.89580  Biso   1.000  O
  O12      1.0000 0.89580  0.20920  0.89580  Biso   1.000  O
  O13      1.0000 0.89580  0.29080  0.60420  Biso   1.000  O
  O14      1.0000 0.60420  0.89580  0.29080  Biso   1.000  O
  O15      1.0000 0.29080  0.60420  0.89580  Biso   1.000  O
  O16      1.0000 0.70920  0.39580  0.10420  Biso   1.000  O
  O17      1.0000 0.39580  0.10420  0.70920  Biso   1.000  O
  O18      1.0000 0.10420  0.70920  0.39580  Biso   1.000  O
  O19      1.0000 0.79080  0.10420  0.10420  Biso   1.000  O
  O20      1.0000 0.79080  0.39580  0.39580  Biso   1.000  O
  O21      1.0000 0.39580  0.39580  0.79080  Biso   1.000  O
  O22      1.0000 0.10420  0.10420  0.79080  Biso   1.000  O
  O23      1.0000 0.39580  0.79080  0.39580  Biso   1.000  O
  O24      1.0000 0.10420  0.79080  0.10420  Biso   1.000  O
  C25      1.0000 0.32870  0.94270  0.17130  Biso   1.000  C
  C26      1.0000 0.17130  0.32870  0.94270  Biso   1.000  C
  C27      1.0000 0.94270  0.17130  0.32870  Biso   1.000  C
  C28      1.0000 0.44270  0.82870  0.82870  Biso   1.000  C
  C29      1.0000 0.44270  0.67130  0.67130  Biso   1.000  C
  C30      1.0000 0.05730  0.82870  0.67130  Biso   1.000  C
  C31      1.0000 0.82870  0.67130  0.05730  Biso   1.000  C
  C32      1.0000 0.67130  0.67130  0.44270  Biso   1.000  C
  C33      1.0000 0.82870  0.82870  0.44270  Biso   1.000  C
  C34      1.0000 0.67130  0.44270  0.67130  Biso   1.000  C
  C35      1.0000 0.67130  0.05730  0.82870  Biso   1.000  C
  C36      1.0000 0.82870  0.44270  0.82870  Biso   1.000  C
  C37      1.0000 0.82870  0.05730  0.67130  Biso   1.000  C
  C38      1.0000 0.67130  0.82870  0.05730  Biso   1.000  C
  C39      1.0000 0.05730  0.67130  0.82870  Biso   1.000  C
  C40      1.0000 0.94270  0.32870  0.17130  Biso   1.000  C
  C41      1.0000 0.32870  0.17130  0.94270  Biso   1.000  C
  C42      1.0000 0.17130  0.94270  0.32870  Biso   1.000  C
  C43      1.0000 0.55730  0.17130  0.17130  Biso   1.000  C
  C44      1.0000 0.55730  0.32870  0.32870  Biso   1.000  C
  C45      1.0000 0.32870  0.32870  0.55730  Biso   1.000  C
  C46      1.0000 0.17130  0.17130  0.55730  Biso   1.000  C
  C47      1.0000 0.32870  0.55730  0.32870  Biso   1.000  C
  C48      1.0000 0.17130  0.55730  0.17130  Biso   1.000  C
  H1       1.0000 0.31400  0.99700  0.18600  Biso   1.000  H
  H2       1.0000 0.18600  0.31400  0.99700  Biso   1.000  H
  H3       1.0000 0.99700  0.18600  0.31400  Biso   1.000  H
  H4       1.0000 0.49700  0.81400  0.81400  Biso   1.000  H
  H5       1.0000 0.49700  0.68600  0.68600  Biso   1.000  H
  H6       1.0000 0.00300  0.81400  0.68600  Biso   1.000  H
  H7       1.0000 0.81400  0.68600  0.00300  Biso   1.000  H
  H8       1.0000 0.68600  0.68600  0.49700  Biso   1.000  H
  H9       1.0000 0.81400  0.81400  0.49700  Biso   1.000  H
  H10      1.0000 0.68600  0.49700  0.68600  Biso   1.000  H
  H11      1.0000 0.68600  0.00300  0.81400  Biso   1.000  H
  H12      1.0000 0.81400  0.49700  0.81400  Biso   1.000  H
  H13      1.0000 0.81400  0.00300  0.68600  Biso   1.000  H
  H14      1.0000 0.68600  0.81400  0.00300  Biso   1.000  H
  H15      1.0000 0.00300  0.68600  0.81400  Biso   1.000  H
  H16      1.0000 0.99700  0.31400  0.18600  Biso   1.000  H
  H17      1.0000 0.31400  0.18600  0.99700  Biso   1.000  H
  H18      1.0000 0.18600  0.99700  0.31400  Biso   1.000  H
  H19      1.0000 0.50300  0.18600  0.18600  Biso   1.000  H
  H20      1.0000 0.50300  0.31400  0.31400  Biso   1.000  H
  H21      1.0000 0.31400  0.31400  0.50300  Biso   1.000  H
  H22      1.0000 0.18600  0.18600  0.50300  Biso   1.000  H
  H23      1.0000 0.31400  0.50300  0.31400  Biso   1.000  H
  H24      1.0000 0.18600  0.50300  0.18600  Biso   1.000  H
  C49      1.0000 0.39140  0.89920  0.21380  Biso   1.000  C
  C50      1.0000 0.21380  0.39140  0.89920  Biso   1.000  C
  C51      1.0000 0.89920  0.21380  0.39140  Biso   1.000  C
  C52      1.0000 0.39920  0.89140  0.78620  Biso   1.000  C
  C53      1.0000 0.39920  0.60860  0.71380  Biso   1.000  C
  C54      1.0000 0.10080  0.89140  0.71380  Biso   1.000  C
  C55      1.0000 0.89140  0.71380  0.10080  Biso   1.000  C
  C56      1.0000 0.60860  0.71380  0.39920  Biso   1.000  C
  C57      1.0000 0.89140  0.78620  0.39920  Biso   1.000  C
  C58      1.0000 0.71380  0.39920  0.60860  Biso   1.000  C
  C59      1.0000 0.71380  0.10080  0.89140  Biso   1.000  C
  C60      1.0000 0.78620  0.39920  0.89140  Biso   1.000  C
  C61      1.0000 0.89140  0.39920  0.78620  Biso   1.000  C
  C62      1.0000 0.89140  0.10080  0.71380  Biso   1.000  C
  C63      1.0000 0.60860  0.39920  0.71380  Biso   1.000  C
  C64      1.0000 0.78620  0.89140  0.39920  Biso   1.000  C
  C65      1.0000 0.71380  0.89140  0.10080  Biso   1.000  C
  C66      1.0000 0.71380  0.60860  0.39920  Biso   1.000  C
  C67      1.0000 0.39920  0.78620  0.89140  Biso   1.000  C
  C68      1.0000 0.10080  0.71380  0.89140  Biso   1.000  C
  C69      1.0000 0.39920  0.71380  0.60860  Biso   1.000  C
  C70      1.0000 0.89920  0.39140  0.21380  Biso   1.000  C
  C71      1.0000 0.39140  0.21380  0.89920  Biso   1.000  C
  C72      1.0000 0.21380  0.89920  0.39140  Biso   1.000  C
  C73      1.0000 0.60860  0.10080  0.78620  Biso   1.000  C
  C74      1.0000 0.78620  0.60860  0.10080  Biso   1.000  C
  C75      1.0000 0.10080  0.78620  0.60860  Biso   1.000  C
  C76      1.0000 0.60080  0.10860  0.21380  Biso   1.000  C
  C77      1.0000 0.60080  0.39140  0.28620  Biso   1.000  C
  C78      1.0000 0.89920  0.10860  0.28620  Biso   1.000  C
  C79      1.0000 0.10860  0.28620  0.89920  Biso   1.000  C
  C80      1.0000 0.39140  0.28620  0.60080  Biso   1.000  C
  C81      1.0000 0.10860  0.21380  0.60080  Biso   1.000  C
  C82      1.0000 0.28620  0.60080  0.39140  Biso   1.000  C
  C83      1.0000 0.28620  0.89920  0.10860  Biso   1.000  C
  C84      1.0000 0.21380  0.60080  0.10860  Biso   1.000  C
  C85      1.0000 0.10860  0.60080  0.21380  Biso   1.000  C
  C86      1.0000 0.10860  0.89920  0.28620  Biso   1.000  C
  C87      1.0000 0.39140  0.60080  0.28620  Biso   1.000  C
  C88      1.0000 0.21380  0.10860  0.60080  Biso   1.000  C
  C89      1.0000 0.28620  0.10860  0.89920  Biso   1.000  C
  C90      1.0000 0.28620  0.39140  0.60080  Biso   1.000  C
  C91      1.0000 0.60080  0.21380  0.10860  Biso   1.000  C
  C92      1.0000 0.89920  0.28620  0.10860  Biso   1.000  C
  C93      1.0000 0.60080  0.28620  0.39140  Biso   1.000  C
  C94      1.0000 0.10080  0.60860  0.78620  Biso   1.000  C
  C95      1.0000 0.60860  0.78620  0.10080  Biso   1.000  C
  C96      1.0000 0.78620  0.10080  0.60860  Biso   1.000  C
  H25      1.0000 0.42030  0.92610  0.25770  Biso   1.000  H
  H26      1.0000 0.25770  0.42030  0.92610  Biso   1.000  H
  H27      1.0000 0.92610  0.25770  0.42030  Biso   1.000  H
  H28      1.0000 0.42610  0.92030  0.74230  Biso   1.000  H
  H29      1.0000 0.42610  0.57970  0.75770  Biso   1.000  H
  H30      1.0000 0.07390  0.92030  0.75770  Biso   1.000  H
  H31      1.0000 0.92030  0.75770  0.07390  Biso   1.000  H
  H32      1.0000 0.57970  0.75770  0.42610  Biso   1.000  H
  H33      1.0000 0.92030  0.74230  0.42610  Biso   1.000  H
  H34      1.0000 0.75770  0.42610  0.57970  Biso   1.000  H
  H35      1.0000 0.75770  0.07390  0.92030  Biso   1.000  H
  H36      1.0000 0.74230  0.42610  0.92030  Biso   1.000  H
  H37      1.0000 0.92030  0.42610  0.74230  Biso   1.000  H
  H38      1.0000 0.92030  0.07390  0.75770  Biso   1.000  H
  H39      1.0000 0.57970  0.42610  0.75770  Biso   1.000  H
  H40      1.0000 0.74230  0.92030  0.42610  Biso   1.000  H
  H41      1.0000 0.75770  0.92030  0.07390  Biso   1.000  H
  H42      1.0000 0.75770  0.57970  0.42610  Biso   1.000  H
  H43      1.0000 0.42610  0.74230  0.92030  Biso   1.000  H
  H44      1.0000 0.07390  0.75770  0.92030  Biso   1.000  H
  H45      1.0000 0.42610  0.75770  0.57970  Biso   1.000  H
  H46      1.0000 0.92610  0.42030  0.25770  Biso   1.000  H
  H47      1.0000 0.42030  0.25770  0.92610  Biso   1.000  H
  H48      1.0000 0.25770  0.92610  0.42030  Biso   1.000  H
  H49      1.0000 0.57970  0.07390  0.74230  Biso   1.000  H
  H50      1.0000 0.74230  0.57970  0.07390  Biso   1.000  H
  H51      1.0000 0.07390  0.74230  0.57970  Biso   1.000  H
  H52      1.0000 0.57390  0.07970  0.25770  Biso   1.000  H
  H53      1.0000 0.57390  0.42030  0.24230  Biso   1.000  H
  H54      1.0000 0.92610  0.07970  0.24230  Biso   1.000  H
  H55      1.0000 0.07970  0.24230  0.92610  Biso   1.000  H
  H56      1.0000 0.42030  0.24230  0.57390  Biso   1.000  H
  H57      1.0000 0.07970  0.25770  0.57390  Biso   1.000  H
  H58      1.0000 0.24230  0.57390  0.42030  Biso   1.000  H
  H59      1.0000 0.24230  0.92610  0.07970  Biso   1.000  H
  H60      1.0000 0.25770  0.57390  0.07970  Biso   1.000  H
  H61      1.0000 0.07970  0.57390  0.25770  Biso   1.000  H
  H62      1.0000 0.07970  0.92610  0.24230  Biso   1.000  H
  H63      1.0000 0.42030  0.57390  0.24230  Biso   1.000  H
  H64      1.0000 0.25770  0.07970  0.57390  Biso   1.000  H
  H65      1.0000 0.24230  0.07970  0.92610  Biso   1.000  H
  H66      1.0000 0.24230  0.42030  0.57390  Biso   1.000  H
  H67      1.0000 0.57390  0.25770  0.07970  Biso   1.000  H
  H68      1.0000 0.92610  0.24230  0.07970  Biso   1.000  H
  H69      1.0000 0.57390  0.24230  0.42030  Biso   1.000  H
  H70      1.0000 0.07390  0.57970  0.74230  Biso   1.000  H
  H71      1.0000 0.57970  0.74230  0.07390  Biso   1.000  H
  H72      1.0000 0.74230  0.07390  0.57970  Biso   1.000  H
  Cl1      1.0000 0.36970  0.36970  0.13030  Biso   1.000  Cl
  Cl2      1.0000 0.13030  0.36970  0.36970  Biso   1.000  Cl
  Cl3      1.0000 0.36970  0.13030  0.36970  Biso   1.000  Cl
  Cl4      1.0000 0.86970  0.86970  0.86970  Biso   1.000  Cl
  Cl5      1.0000 0.86970  0.63030  0.63030  Biso   1.000  Cl
  Cl6      1.0000 0.63030  0.86970  0.63030  Biso   1.000  Cl
  Cl7      1.0000 0.63030  0.63030  0.86970  Biso   1.000  Cl
  Cl8      1.0000 0.13030  0.13030  0.13030  Biso   1.000  Cl
  O25      1.0000 0.32700  0.32700  0.17300  Biso   1.000  O
  O26      1.0000 0.17300  0.32700  0.32700  Biso   1.000  O
  O27      1.0000 0.32700  0.17300  0.32700  Biso   1.000  O
  O28      1.0000 0.82700  0.82700  0.82700  Biso   1.000  O
  O29      1.0000 0.82700  0.67300  0.67300  Biso   1.000  O
  O30      1.0000 0.67300  0.82700  0.67300  Biso   1.000  O
  O31      1.0000 0.67300  0.67300  0.82700  Biso   1.000  O
  O32      1.0000 0.17300  0.17300  0.17300  Biso   1.000  O
  O33      1.0000 0.35500  0.43100  0.06900  Biso   1.000  O
  O34      1.0000 0.06900  0.35500  0.43100  Biso   1.000  O
  O35      1.0000 0.43100  0.06900  0.35500  Biso   1.000  O
  O36      1.0000 0.93100  0.85500  0.93100  Biso   1.000  O
  O37      1.0000 0.93100  0.64500  0.56900  Biso   1.000  O
  O38      1.0000 0.56900  0.85500  0.56900  Biso   1.000  O
  O39      1.0000 0.85500  0.56900  0.56900  Biso   1.000  O
  O40      1.0000 0.64500  0.56900  0.93100  Biso   1.000  O
  O41      1.0000 0.85500  0.93100  0.93100  Biso   1.000  O
  O42      1.0000 0.56900  0.93100  0.64500  Biso   1.000  O
  O43      1.0000 0.56900  0.56900  0.85500  Biso   1.000  O
  O44      1.0000 0.93100  0.93100  0.85500  Biso   1.000  O
  O45      1.0000 0.64500  0.93100  0.56900  Biso   1.000  O
  O46      1.0000 0.56900  0.64500  0.93100  Biso   1.000  O
  O47      1.0000 0.93100  0.56900  0.64500  Biso   1.000  O
  O48      1.0000 0.43100  0.35500  0.06900  Biso   1.000  O
  O49      1.0000 0.35500  0.06900  0.43100  Biso   1.000  O
  O50      1.0000 0.06900  0.43100  0.35500  Biso   1.000  O
  O51      1.0000 0.06900  0.14500  0.06900  Biso   1.000  O
  O52      1.0000 0.43100  0.14500  0.43100  Biso   1.000  O
  O53      1.0000 0.14500  0.43100  0.43100  Biso   1.000  O
  O54      1.0000 0.14500  0.06900  0.06900  Biso   1.000  O
  O55      1.0000 0.43100  0.43100  0.14500  Biso   1.000  O
  O56      1.0000 0.06900  0.06900  0.14500  Biso   1.000  O
  O57      1.0000 0.31100  0.40800  0.09200  Biso   1.000  O
  O58      1.0000 0.09200  0.31100  0.40800  Biso   1.000  O
  O59      1.0000 0.40800  0.09200  0.31100  Biso   1.000  O
  O60      1.0000 0.90800  0.81100  0.90800  Biso   1.000  O
  O61      1.0000 0.90800  0.68900  0.59200  Biso   1.000  O
  O62      1.0000 0.59200  0.81100  0.59200  Biso   1.000  O
  O63      1.0000 0.81100  0.59200  0.59200  Biso   1.000  O
  O64      1.0000 0.68900  0.59200  0.90800  Biso   1.000  O
  O65      1.0000 0.81100  0.90800  0.90800  Biso   1.000  O
  O66      1.0000 0.59200  0.90800  0.68900  Biso   1.000  O
  O67      1.0000 0.59200  0.59200  0.81100  Biso   1.000  O
  O68      1.0000 0.90800  0.90800  0.81100  Biso   1.000  O
  O69      1.0000 0.68900  0.90800  0.59200  Biso   1.000  O
  O70      1.0000 0.59200  0.68900  0.90800  Biso   1.000  O
  O71      1.0000 0.90800  0.59200  0.68900  Biso   1.000  O
  O72      1.0000 0.40800  0.31100  0.09200  Biso   1.000  O
  O73      1.0000 0.31100  0.09200  0.40800  Biso   1.000  O
  O74      1.0000 0.09200  0.40800  0.31100  Biso   1.000  O
  O75      1.0000 0.09200  0.18900  0.09200  Biso   1.000  O
  O76      1.0000 0.40800  0.18900  0.40800  Biso   1.000  O
  O77      1.0000 0.18900  0.40800  0.40800  Biso   1.000  O
  O78      1.0000 0.18900  0.09200  0.09200  Biso   1.000  O
  O79      1.0000 0.40800  0.40800  0.18900  Biso   1.000  O
  O80      1.0000 0.09200  0.09200  0.18900  Biso   1.000  O
  N49      1.0000 0.43200  0.50000  0.93200  Biso   1.000  N
  N50      1.0000 0.93200  0.43200  0.50000  Biso   1.000  N
  N51      1.0000 0.50000  0.93200  0.43200  Biso   1.000  N
  N52      1.0000 0.00000  0.93200  0.06800  Biso   1.000  N
  N53      1.0000 0.00000  0.56800  0.43200  Biso   1.000  N
  N54      1.0000 0.56800  0.43200  0.00000  Biso   1.000  N
  N55      1.0000 0.93200  0.06800  0.00000  Biso   1.000  N
  N56      1.0000 0.43200  0.00000  0.56800  Biso   1.000  N
  N57      1.0000 0.06800  0.00000  0.93200  Biso   1.000  N
  N58      1.0000 0.93200  0.00000  0.06800  Biso   1.000  N
  N59      1.0000 0.93200  0.50000  0.43200  Biso   1.000  N
  N60      1.0000 0.56800  0.00000  0.43200  Biso   1.000  N
  N61      1.0000 0.06800  0.93200  0.00000  Biso   1.000  N
  N62      1.0000 0.43200  0.93200  0.50000  Biso   1.000  N
  N63      1.0000 0.43200  0.56800  0.00000  Biso   1.000  N
  N64      1.0000 0.00000  0.06800  0.93200  Biso   1.000  N
  N65      1.0000 0.50000  0.43200  0.93200  Biso   1.000  N
  N66      1.0000 0.00000  0.43200  0.56800  Biso   1.000  N
  N67      1.0000 0.56800  0.50000  0.06800  Biso   1.000  N
  N68      1.0000 0.06800  0.56800  0.50000  Biso   1.000  N
  N69      1.0000 0.50000  0.06800  0.56800  Biso   1.000  N
  N70      1.0000 0.06800  0.50000  0.56800  Biso   1.000  N
  N71      1.0000 0.56800  0.06800  0.50000  Biso   1.000  N
  N72      1.0000 0.50000  0.56800  0.06800  Biso   1.000  N
  O81      1.0000 0.39600  0.47800  0.94600  Biso   1.000  O
  O82      1.0000 0.94600  0.39600  0.47800  Biso   1.000  O
  O83      1.0000 0.47800  0.94600  0.39600  Biso   1.000  O
  O84      1.0000 0.97800  0.89600  0.05400  Biso   1.000  O
  O85      1.0000 0.97800  0.60400  0.44600  Biso   1.000  O
  O86      1.0000 0.52200  0.89600  0.44600  Biso   1.000  O
  O87      1.0000 0.89600  0.44600  0.52200  Biso   1.000  O
  O88      1.0000 0.60400  0.44600  0.97800  Biso   1.000  O
  O89      1.0000 0.89600  0.05400  0.97800  Biso   1.000  O
  O90      1.0000 0.44600  0.97800  0.60400  Biso   1.000  O
  O91      1.0000 0.44600  0.52200  0.89600  Biso   1.000  O
  O92      1.0000 0.05400  0.97800  0.89600  Biso   1.000  O
  O93      1.0000 0.89600  0.97800  0.05400  Biso   1.000  O
  O94      1.0000 0.89600  0.52200  0.44600  Biso   1.000  O
  O95      1.0000 0.60400  0.97800  0.44600  Biso   1.000  O
  O96      1.0000 0.05400  0.89600  0.97800  Biso   1.000  O
  O97      1.0000 0.44600  0.89600  0.52200  Biso   1.000  O
  O98      1.0000 0.44600  0.60400  0.97800  Biso   1.000  O
  O99      1.0000 0.97800  0.05400  0.89600  Biso   1.000  O
  O100     1.0000 0.52200  0.44600  0.89600  Biso   1.000  O
  O101     1.0000 0.97800  0.44600  0.60400  Biso   1.000  O
  O102     1.0000 0.47800  0.39600  0.94600  Biso   1.000  O
  O103     1.0000 0.39600  0.94600  0.47800  Biso   1.000  O
  O104     1.0000 0.94600  0.47800  0.39600  Biso   1.000  O
  O105     1.0000 0.60400  0.52200  0.05400  Biso   1.000  O
  O106     1.0000 0.05400  0.60400  0.52200  Biso   1.000  O
  O107     1.0000 0.52200  0.05400  0.60400  Biso   1.000  O
  O108     1.0000 0.02200  0.10400  0.94600  Biso   1.000  O
  O109     1.0000 0.02200  0.39600  0.55400  Biso   1.000  O
  O110     1.0000 0.47800  0.10400  0.55400  Biso   1.000  O
  O111     1.0000 0.10400  0.55400  0.47800  Biso   1.000  O
  O112     1.0000 0.39600  0.55400  0.02200  Biso   1.000  O
  O113     1.0000 0.10400  0.94600  0.02200  Biso   1.000  O
  O114     1.0000 0.55400  0.02200  0.39600  Biso   1.000  O
  O115     1.0000 0.55400  0.47800  0.10400  Biso   1.000  O
  O116     1.0000 0.94600  0.02200  0.10400  Biso   1.000  O
  O117     1.0000 0.10400  0.02200  0.94600  Biso   1.000  O
  O118     1.0000 0.10400  0.47800  0.55400  Biso   1.000  O
  O119     1.0000 0.39600  0.02200  0.55400  Biso   1.000  O
  O120     1.0000 0.94600  0.10400  0.02200  Biso   1.000  O
  O121     1.0000 0.55400  0.10400  0.47800  Biso   1.000  O
  O122     1.0000 0.55400  0.39600  0.02200  Biso   1.000  O
  O123     1.0000 0.02200  0.94600  0.10400  Biso   1.000  O
  O124     1.0000 0.47800  0.55400  0.10400  Biso   1.000  O
  O125     1.0000 0.02200  0.55400  0.39600  Biso   1.000  O
  O126     1.0000 0.52200  0.60400  0.05400  Biso   1.000  O
  O127     1.0000 0.60400  0.05400  0.52200  Biso   1.000  O
  O128     1.0000 0.05400  0.52200  0.60400  Biso   1.000  O
