data_image0
_cell_length_a       9.408
_cell_length_b       14.737
_cell_length_c       11.88
_cell_angle_alpha    90
_cell_angle_beta     111.27
_cell_angle_gamma    90

_symmetry_space_group_name_H-M    "P 1"
_symmetry_int_tables_number       1

loop_
  _symmetry_equiv_pos_as_xyz
  'x, y, z'

loop_
  _atom_site_label
  _atom_site_occupancy
  _atom_site_fract_x
  _atom_site_fract_y
  _atom_site_fract_z
  _atom_site_thermal_displace_type
  _atom_site_B_iso_or_equiv
  _atom_site_type_symbol
  Cu1      1.0000 0.00000  0.00000  0.00000  Biso   1.000  Cu
  Cu2      1.0000 0.00000  0.50000  0.50000  Biso   1.000  Cu
  S1       1.0000 0.04880  0.07910  0.38720  Biso   1.000  S
  S2       1.0000 0.95120  0.57910  0.11280  Biso   1.000  S
  S3       1.0000 0.95120  0.92090  0.61280  Biso   1.000  S
  S4       1.0000 0.04880  0.42090  0.88720  Biso   1.000  S
  S5       1.0000 0.68290  0.06960  0.25210  Biso   1.000  S
  S6       1.0000 0.31710  0.56960  0.24790  Biso   1.000  S
  S7       1.0000 0.31710  0.93040  0.74790  Biso   1.000  S
  S8       1.0000 0.68290  0.43040  0.75210  Biso   1.000  S
  O1       1.0000 0.72370  0.01280  0.35850  Biso   1.000  O
  O2       1.0000 0.27630  0.51280  0.14150  Biso   1.000  O
  O3       1.0000 0.27630  0.98720  0.64150  Biso   1.000  O
  O4       1.0000 0.72370  0.48720  0.85850  Biso   1.000  O
  O5       1.0000 0.53100  0.06120  0.16520  Biso   1.000  O
  O6       1.0000 0.46900  0.56120  0.33480  Biso   1.000  O
  O7       1.0000 0.46900  0.93880  0.83480  Biso   1.000  O
  O8       1.0000 0.53100  0.43880  0.66520  Biso   1.000  O
  O9       1.0000 0.89070  0.86590  0.04830  Biso   1.000  O
  O10      1.0000 0.10930  0.36590  0.45170  Biso   1.000  O
  O11      1.0000 0.10930  0.13410  0.95170  Biso   1.000  O
  O12      1.0000 0.89070  0.63410  0.54830  Biso   1.000  O
  N1       1.0000 0.03930  0.04890  0.17320  Biso   1.000  N
  N2       1.0000 0.96070  0.54890  0.32680  Biso   1.000  N
  N3       1.0000 0.96070  0.95110  0.82680  Biso   1.000  N
  N4       1.0000 0.03930  0.45110  0.67320  Biso   1.000  N
  N5       1.0000 0.79380  0.05400  0.17930  Biso   1.000  N
  N6       1.0000 0.20620  0.55400  0.32070  Biso   1.000  N
  N7       1.0000 0.20620  0.94600  0.82070  Biso   1.000  N
  N8       1.0000 0.79380  0.44600  0.67930  Biso   1.000  N
  N9       1.0000 0.21930  0.95050  0.06230  Biso   1.000  N
  N10      1.0000 0.78070  0.45050  0.43770  Biso   1.000  N
  N11      1.0000 0.78070  0.04950  0.93770  Biso   1.000  N
  N12      1.0000 0.21930  0.54950  0.56230  Biso   1.000  N
  N13      1.0000 0.19210  0.06270  0.24310  Biso   1.000  N
  N14      1.0000 0.80790  0.56270  0.25690  Biso   1.000  N
  N15      1.0000 0.80790  0.93730  0.75690  Biso   1.000  N
  N16      1.0000 0.19210  0.43730  0.74310  Biso   1.000  N
  N17      1.0000 0.77710  0.82010  0.17710  Biso   1.000  N
  N18      1.0000 0.22290  0.32010  0.32290  Biso   1.000  N
  N19      1.0000 0.22290  0.17990  0.82290  Biso   1.000  N
  N20      1.0000 0.77710  0.67990  0.67710  Biso   1.000  N
  C1       1.0000 0.94680  0.05830  0.23440  Biso   1.000  C
  C2       1.0000 0.05320  0.55830  0.26560  Biso   1.000  C
  C3       1.0000 0.05320  0.94170  0.76560  Biso   1.000  C
  C4       1.0000 0.94680  0.44170  0.73440  Biso   1.000  C
  C5       1.0000 0.21390  0.07950  0.35440  Biso   1.000  C
  C6       1.0000 0.78610  0.57950  0.14560  Biso   1.000  C
  C7       1.0000 0.78610  0.92050  0.64560  Biso   1.000  C
  C8       1.0000 0.21390  0.42050  0.85440  Biso   1.000  C
  C9       1.0000 0.36750  0.09830  0.44680  Biso   1.000  C
  C10      1.0000 0.63250  0.59830  0.05320  Biso   1.000  C
  C11      1.0000 0.63250  0.90170  0.55320  Biso   1.000  C
  C12      1.0000 0.36750  0.40170  0.94680  Biso   1.000  C
  C13      1.0000 0.79280  0.28850  0.47010  Biso   1.000  C
  C14      1.0000 0.20720  0.78850  0.02990  Biso   1.000  C
  C15      1.0000 0.20720  0.71150  0.52990  Biso   1.000  C
  C16      1.0000 0.79280  0.21150  0.97010  Biso   1.000  C
  C17      1.0000 0.70890  0.18260  0.30560  Biso   1.000  C
  C18      1.0000 0.29110  0.68260  0.19440  Biso   1.000  C
  C19      1.0000 0.29110  0.81740  0.69440  Biso   1.000  C
  C20      1.0000 0.70890  0.31740  0.80560  Biso   1.000  C
  C21      1.0000 0.76910  0.19960  0.42860  Biso   1.000  C
  C22      1.0000 0.23090  0.69960  0.07140  Biso   1.000  C
  C23      1.0000 0.23090  0.80040  0.57140  Biso   1.000  C
  C24      1.0000 0.76910  0.30040  0.92860  Biso   1.000  C
  C25      1.0000 0.24590  0.86070  0.10980  Biso   1.000  C
  C26      1.0000 0.75410  0.36070  0.39020  Biso   1.000  C
  C27      1.0000 0.75410  0.13930  0.89020  Biso   1.000  C
  C28      1.0000 0.24590  0.63930  0.60980  Biso   1.000  C
  C29      1.0000 0.67040  0.25510  0.22450  Biso   1.000  C
  C30      1.0000 0.32960  0.75510  0.27550  Biso   1.000  C
  C31      1.0000 0.32960  0.74490  0.77550  Biso   1.000  C
  C32      1.0000 0.67040  0.24490  0.72450  Biso   1.000  C
  C33      1.0000 0.30710  0.84320  0.23310  Biso   1.000  C
  C34      1.0000 0.69290  0.34320  0.26690  Biso   1.000  C
  C35      1.0000 0.69290  0.15680  0.76690  Biso   1.000  C
  C36      1.0000 0.30710  0.65680  0.73310  Biso   1.000  C
  C37      1.0000 0.78140  0.85190  0.07290  Biso   1.000  C
  C38      1.0000 0.21860  0.35190  0.42710  Biso   1.000  C
  C39      1.0000 0.21860  0.14810  0.92710  Biso   1.000  C
  C40      1.0000 0.78140  0.64810  0.57290  Biso   1.000  C
  C41      1.0000 0.60800  0.83960  0.10200  Biso   1.000  C
  C42      1.0000 0.39200  0.33960  0.39800  Biso   1.000  C
  C43      1.0000 0.39200  0.16040  0.89800  Biso   1.000  C
  C44      1.0000 0.60800  0.66040  0.60200  Biso   1.000  C
  C45      1.0000 0.79000  0.78920  0.29800  Biso   1.000  C
  C46      1.0000 0.21000  0.28920  0.20200  Biso   1.000  C
  C47      1.0000 0.21000  0.21080  0.70200  Biso   1.000  C
  C48      1.0000 0.79000  0.71080  0.79800  Biso   1.000  C
  C49      1.0000 0.11100  0.33470  0.35380  Biso   1.000  C
  C50      1.0000 0.88900  0.83470  0.14620  Biso   1.000  C
  C51      1.0000 0.88900  0.66530  0.64620  Biso   1.000  C
  C52      1.0000 0.11100  0.16530  0.85380  Biso   1.000  C
  C53      1.0000 0.36160  0.30950  0.29850  Biso   1.000  C
  C54      1.0000 0.63840  0.80950  0.20150  Biso   1.000  C
  C55      1.0000 0.63840  0.69050  0.70150  Biso   1.000  C
  C56      1.0000 0.36160  0.19050  0.79850  Biso   1.000  C
  C57      1.0000 0.07760  0.30790  0.21980  Biso   1.000  C
  C58      1.0000 0.92240  0.80790  0.28020  Biso   1.000  C
  C59      1.0000 0.92240  0.69210  0.78020  Biso   1.000  C
  C60      1.0000 0.07760  0.19210  0.71980  Biso   1.000  C
  H1       1.0000 0.24300  0.95700  0.99100  Biso   1.000  H
  H2       1.0000 0.75700  0.45700  0.50900  Biso   1.000  H
  H3       1.0000 0.75700  0.04300  0.00900  Biso   1.000  H
  H4       1.0000 0.24300  0.54300  0.49100  Biso   1.000  H
  H5       1.0000 0.27500  0.98500  0.12100  Biso   1.000  H
  H6       1.0000 0.72500  0.48500  0.37900  Biso   1.000  H
  H7       1.0000 0.72500  0.01500  0.87900  Biso   1.000  H
  H8       1.0000 0.27500  0.51500  0.62100  Biso   1.000  H
  H9       1.0000 0.35830  0.10910  0.52350  Biso   1.000  H
  H10      1.0000 0.64170  0.60910  0.97650  Biso   1.000  H
  H11      1.0000 0.64170  0.89090  0.47650  Biso   1.000  H
  H12      1.0000 0.35830  0.39090  0.02350  Biso   1.000  H
  H13      1.0000 0.41030  0.15090  0.42340  Biso   1.000  H
  H14      1.0000 0.58970  0.65090  0.07660  Biso   1.000  H
  H15      1.0000 0.58970  0.84910  0.57660  Biso   1.000  H
  H16      1.0000 0.41030  0.34910  0.92340  Biso   1.000  H
  H17      1.0000 0.43280  0.04700  0.45300  Biso   1.000  H
  H18      1.0000 0.56720  0.54700  0.04700  Biso   1.000  H
  H19      1.0000 0.56720  0.95300  0.54700  Biso   1.000  H
  H20      1.0000 0.43280  0.45300  0.95300  Biso   1.000  H
  H21      1.0000 0.83530  0.29960  0.55270  Biso   1.000  H
  H22      1.0000 0.16470  0.79960  0.94730  Biso   1.000  H
  H23      1.0000 0.16470  0.70040  0.44730  Biso   1.000  H
  H24      1.0000 0.83530  0.20040  0.05270  Biso   1.000  H
  H25      1.0000 0.79340  0.15170  0.48320  Biso   1.000  H
  H26      1.0000 0.20660  0.65170  0.01680  Biso   1.000  H
  H27      1.0000 0.20660  0.84830  0.51680  Biso   1.000  H
  H28      1.0000 0.79340  0.34830  0.98320  Biso   1.000  H
  H29      1.0000 0.62950  0.24410  0.14180  Biso   1.000  H
  H30      1.0000 0.37050  0.74410  0.35820  Biso   1.000  H
  H31      1.0000 0.37050  0.75590  0.85820  Biso   1.000  H
  H32      1.0000 0.62950  0.25590  0.64180  Biso   1.000  H
  H33      1.0000 0.32900  0.88800  0.28200  Biso   1.000  H
  H34      1.0000 0.67100  0.38800  0.21800  Biso   1.000  H
  H35      1.0000 0.67100  0.11200  0.71800  Biso   1.000  H
  H36      1.0000 0.32900  0.61200  0.78200  Biso   1.000  H
  H37      1.0000 0.70780  0.86300  0.99400  Biso   1.000  H
  H38      1.0000 0.29220  0.36300  0.50600  Biso   1.000  H
  H39      1.0000 0.29220  0.13700  0.00600  Biso   1.000  H
  H40      1.0000 0.70780  0.63700  0.49400  Biso   1.000  H
  H41      1.0000 0.03100  0.31300  0.28000  Biso   1.000  H
  H42      1.0000 0.96900  0.81300  0.22000  Biso   1.000  H
  H43      1.0000 0.96900  0.68700  0.72000  Biso   1.000  H
  H44      1.0000 0.03100  0.18700  0.78000  Biso   1.000  H
