data_image0
_cell_length_a       28.071
_cell_length_b       14.304
_cell_length_c       8.721
_cell_angle_alpha    90
_cell_angle_beta     95.28
_cell_angle_gamma    90

_symmetry_space_group_name_H-M    "P 1"
_symmetry_int_tables_number       1

loop_
  _symmetry_equiv_pos_as_xyz
  'x, y, z'

loop_
  _atom_site_label
  _atom_site_occupancy
  _atom_site_fract_x
  _atom_site_fract_y
  _atom_site_fract_z
  _atom_site_thermal_displace_type
  _atom_site_B_iso_or_equiv
  _atom_site_type_symbol
  Cu1      1.0000 0.54870  0.20650  0.31520  Biso   1.000  Cu
  Cu2      1.0000 0.45130  0.20650  0.68480  Biso   1.000  Cu
  Cu3      1.0000 0.04870  0.70650  0.31520  Biso   1.000  Cu
  Cu4      1.0000 0.95130  0.70650  0.68480  Biso   1.000  Cu
  Cu5      1.0000 0.43160  0.47770  0.19060  Biso   1.000  Cu
  Cu6      1.0000 0.56840  0.47770  0.80940  Biso   1.000  Cu
  Cu7      1.0000 0.93160  0.97770  0.19060  Biso   1.000  Cu
  Cu8      1.0000 0.06840  0.97770  0.80940  Biso   1.000  Cu
  Cu9      1.0000 0.68120  0.95850  0.38580  Biso   1.000  Cu
  Cu10     1.0000 0.31880  0.95850  0.61420  Biso   1.000  Cu
  Cu11     1.0000 0.18120  0.45850  0.38580  Biso   1.000  Cu
  Cu12     1.0000 0.81880  0.45850  0.61420  Biso   1.000  Cu
  Cl1      1.0000 0.72530  0.14500  0.10300  Biso   1.000  Cl
  Cl2      1.0000 0.27470  0.14500  0.89700  Biso   1.000  Cl
  Cl3      1.0000 0.22530  0.64500  0.10300  Biso   1.000  Cl
  Cl4      1.0000 0.77470  0.64500  0.89700  Biso   1.000  Cl
  Cl5      1.0000 0.59230  0.93300  0.68880  Biso   1.000  Cl
  Cl6      1.0000 0.40770  0.93300  0.31120  Biso   1.000  Cl
  Cl7      1.0000 0.09230  0.43300  0.68880  Biso   1.000  Cl
  Cl8      1.0000 0.90770  0.43300  0.31120  Biso   1.000  Cl
  C1       1.0000 0.47880  0.31820  0.17780  Biso   1.000  C
  C2       1.0000 0.52120  0.31820  0.82220  Biso   1.000  C
  C3       1.0000 0.97880  0.81820  0.17780  Biso   1.000  C
  C4       1.0000 0.02120  0.81820  0.82220  Biso   1.000  C
  C5       1.0000 0.50670  0.37580  0.29670  Biso   1.000  C
  C6       1.0000 0.49330  0.37580  0.70330  Biso   1.000  C
  C7       1.0000 0.00670  0.87580  0.29670  Biso   1.000  C
  C8       1.0000 0.99330  0.87580  0.70330  Biso   1.000  C
  C9       1.0000 0.59980  0.05110  0.28380  Biso   1.000  C
  C10      1.0000 0.40020  0.05110  0.71620  Biso   1.000  C
  C11      1.0000 0.09980  0.55110  0.28380  Biso   1.000  C
  C12      1.0000 0.90020  0.55110  0.71620  Biso   1.000  C
  C13      1.0000 0.62770  0.11400  0.40560  Biso   1.000  C
  C14      1.0000 0.37230  0.11400  0.59440  Biso   1.000  C
  C15      1.0000 0.12770  0.61400  0.40560  Biso   1.000  C
  C16      1.0000 0.87230  0.61400  0.59440  Biso   1.000  C
  C17      1.0000 0.46540  0.15970  0.07990  Biso   1.000  C
  C18      1.0000 0.53460  0.15970  0.92010  Biso   1.000  C
  C19      1.0000 0.96540  0.65970  0.07990  Biso   1.000  C
  C20      1.0000 0.03460  0.65970  0.92010  Biso   1.000  C
  C21      1.0000 0.53120  0.03610  0.10560  Biso   1.000  C
  C22      1.0000 0.46880  0.03610  0.89440  Biso   1.000  C
  C23      1.0000 0.03120  0.53610  0.10560  Biso   1.000  C
  C24      1.0000 0.96880  0.53610  0.89440  Biso   1.000  C
  C25      1.0000 0.50000  0.10650  0.00000  Biso   1.000  C
  C26      1.0000 0.00000  0.60650  0.00000  Biso   1.000  C
  C27      1.0000 0.37050  0.61750  0.05630  Biso   1.000  C
  C28      1.0000 0.62950  0.61750  0.94370  Biso   1.000  C
  C29      1.0000 0.87050  0.11750  0.05630  Biso   1.000  C
  C30      1.0000 0.12950  0.11750  0.94370  Biso   1.000  C
  C31      1.0000 0.37530  0.64710  0.19940  Biso   1.000  C
  C32      1.0000 0.62470  0.64710  0.80060  Biso   1.000  C
  C33      1.0000 0.87530  0.14710  0.19940  Biso   1.000  C
  C34      1.0000 0.12470  0.14710  0.80060  Biso   1.000  C
  C35      1.0000 0.39830  0.49620  0.86440  Biso   1.000  C
  C36      1.0000 0.60170  0.49620  0.13560  Biso   1.000  C
  C37      1.0000 0.89830  0.99620  0.86440  Biso   1.000  C
  C38      1.0000 0.10170  0.99620  0.13560  Biso   1.000  C
  C39      1.0000 0.33730  0.45730  0.03810  Biso   1.000  C
  C40      1.0000 0.66270  0.45730  0.96190  Biso   1.000  C
  C41      1.0000 0.83730  0.95730  0.03810  Biso   1.000  C
  C42      1.0000 0.16270  0.95730  0.96190  Biso   1.000  C
  C43      1.0000 0.46640  0.66600  0.22050  Biso   1.000  C
  C44      1.0000 0.53360  0.66600  0.77950  Biso   1.000  C
  C45      1.0000 0.96640  0.16600  0.22050  Biso   1.000  C
  C46      1.0000 0.03360  0.16600  0.77950  Biso   1.000  C
  C47      1.0000 0.42230  0.61040  0.45410  Biso   1.000  C
  C48      1.0000 0.57770  0.61040  0.54590  Biso   1.000  C
  C49      1.0000 0.92230  0.11040  0.45410  Biso   1.000  C
  C50      1.0000 0.07770  0.11040  0.54590  Biso   1.000  C
  C51      1.0000 0.74760  0.82330  0.33430  Biso   1.000  C
  C52      1.0000 0.25240  0.82330  0.66570  Biso   1.000  C
  C53      1.0000 0.24760  0.32330  0.33430  Biso   1.000  C
  C54      1.0000 0.75240  0.32330  0.66570  Biso   1.000  C
  C55      1.0000 0.76500  0.85260  0.48760  Biso   1.000  C
  C56      1.0000 0.23500  0.85260  0.51240  Biso   1.000  C
  C57      1.0000 0.26500  0.35260  0.48760  Biso   1.000  C
  C58      1.0000 0.73500  0.35260  0.51240  Biso   1.000  C
  C59      1.0000 0.69630  0.84810  0.13150  Biso   1.000  C
  C60      1.0000 0.30370  0.84810  0.86850  Biso   1.000  C
  C61      1.0000 0.19630  0.34810  0.13150  Biso   1.000  C
  C62      1.0000 0.80370  0.34810  0.86850  Biso   1.000  C
  C63      1.0000 0.66840  0.75950  0.33620  Biso   1.000  C
  C64      1.0000 0.33160  0.75950  0.66380  Biso   1.000  C
  C65      1.0000 0.16840  0.25950  0.33620  Biso   1.000  C
  C66      1.0000 0.83160  0.25950  0.66380  Biso   1.000  C
  C67      1.0000 0.77610  0.01880  0.50800  Biso   1.000  C
  C68      1.0000 0.22390  0.01880  0.49200  Biso   1.000  C
  C69      1.0000 0.27610  0.51880  0.50800  Biso   1.000  C
  C70      1.0000 0.72390  0.51880  0.49200  Biso   1.000  C
  C71      1.0000 0.72960  0.94180  0.68880  Biso   1.000  C
  C72      1.0000 0.27040  0.94180  0.31120  Biso   1.000  C
  C73      1.0000 0.22960  0.44180  0.68880  Biso   1.000  C
  C74      1.0000 0.77040  0.44180  0.31120  Biso   1.000  C
  N1       1.0000 0.48970  0.23230  0.18030  Biso   1.000  N
  N2       1.0000 0.51030  0.23230  0.81970  Biso   1.000  N
  N3       1.0000 0.98970  0.73230  0.18030  Biso   1.000  N
  N4       1.0000 0.01030  0.73230  0.81970  Biso   1.000  N
  N5       1.0000 0.56240  0.08780  0.22580  Biso   1.000  N
  N6       1.0000 0.43760  0.08780  0.77420  Biso   1.000  N
  N7       1.0000 0.06240  0.58780  0.22580  Biso   1.000  N
  N8       1.0000 0.93760  0.58780  0.77420  Biso   1.000  N
  N9       1.0000 0.38150  0.51000  0.02330  Biso   1.000  N
  N10      1.0000 0.61850  0.51000  0.97670  Biso   1.000  N
  N11      1.0000 0.88150  0.01000  0.02330  Biso   1.000  N
  N12      1.0000 0.11850  0.01000  0.97670  Biso   1.000  N
  N13      1.0000 0.42340  0.60870  0.28940  Biso   1.000  N
  N14      1.0000 0.57660  0.60870  0.71060  Biso   1.000  N
  N15      1.0000 0.92340  0.10870  0.28940  Biso   1.000  N
  N16      1.0000 0.07660  0.10870  0.71060  Biso   1.000  N
  N17      1.0000 0.69670  0.83800  0.29080  Biso   1.000  N
  N18      1.0000 0.30330  0.83800  0.70920  Biso   1.000  N
  N19      1.0000 0.19670  0.33800  0.29080  Biso   1.000  N
  N20      1.0000 0.80330  0.33800  0.70920  Biso   1.000  N
  N21      1.0000 0.74090  0.94100  0.52440  Biso   1.000  N
  N22      1.0000 0.25910  0.94100  0.47560  Biso   1.000  N
  N23      1.0000 0.24090  0.44100  0.52440  Biso   1.000  N
  N24      1.0000 0.75910  0.44100  0.47560  Biso   1.000  N
  O1       1.0000 0.44440  0.35660  0.09490  Biso   1.000  O
  O2       1.0000 0.55560  0.35660  0.90510  Biso   1.000  O
  O3       1.0000 0.94440  0.85660  0.09490  Biso   1.000  O
  O4       1.0000 0.05560  0.85660  0.90510  Biso   1.000  O
  O5       1.0000 0.49620  0.46100  0.30740  Biso   1.000  O
  O6       1.0000 0.50380  0.46100  0.69260  Biso   1.000  O
  O7       1.0000 0.99620  0.96100  0.30740  Biso   1.000  O
  O8       1.0000 0.00380  0.96100  0.69260  Biso   1.000  O
  O9       1.0000 0.54310  0.33870  0.37430  Biso   1.000  O
  O10      1.0000 0.45690  0.33870  0.62570  Biso   1.000  O
  O11      1.0000 0.04310  0.83870  0.37430  Biso   1.000  O
  O12      1.0000 0.95690  0.83870  0.62570  Biso   1.000  O
  O13      1.0000 0.61960  0.97270  0.25800  Biso   1.000  O
  O14      1.0000 0.38040  0.97270  0.74200  Biso   1.000  O
  O15      1.0000 0.11960  0.47270  0.25800  Biso   1.000  O
  O16      1.0000 0.88040  0.47270  0.74200  Biso   1.000  O
  O17      1.0000 0.66760  0.08360  0.46810  Biso   1.000  O
  O18      1.0000 0.33240  0.08360  0.53190  Biso   1.000  O
  O19      1.0000 0.16760  0.58360  0.46810  Biso   1.000  O
  O20      1.0000 0.83240  0.58360  0.53190  Biso   1.000  O
  O21      1.0000 0.60860  0.19350  0.43380  Biso   1.000  O
  O22      1.0000 0.39140  0.19350  0.56620  Biso   1.000  O
  O23      1.0000 0.10860  0.69350  0.43380  Biso   1.000  O
  O24      1.0000 0.89140  0.69350  0.56620  Biso   1.000  O
  O25      1.0000 0.50000  0.12470  0.50000  Biso   1.000  O
  O26      1.0000 0.00000  0.62470  0.50000  Biso   1.000  O
  O27      1.0000 0.38980  0.39860  0.37170  Biso   1.000  O
  O28      1.0000 0.61020  0.39860  0.62830  Biso   1.000  O
  O29      1.0000 0.88980  0.89860  0.37170  Biso   1.000  O
  O30      1.0000 0.11020  0.89860  0.62830  Biso   1.000  O
  O31      1.0000 0.76150  0.19330  0.20690  Biso   1.000  O
  O32      1.0000 0.23850  0.19330  0.79310  Biso   1.000  O
  O33      1.0000 0.26150  0.69330  0.20690  Biso   1.000  O
  O34      1.0000 0.73850  0.69330  0.79310  Biso   1.000  O
  O35      1.0000 0.72450  0.05020  0.17060  Biso   1.000  O
  O36      1.0000 0.27550  0.05020  0.82940  Biso   1.000  O
  O37      1.0000 0.22450  0.55020  0.17060  Biso   1.000  O
  O38      1.0000 0.77550  0.55020  0.82940  Biso   1.000  O
  O39      1.0000 0.68200  0.17800  0.10150  Biso   1.000  O
  O40      1.0000 0.31800  0.17800  0.89850  Biso   1.000  O
  O41      1.0000 0.18200  0.67800  0.10150  Biso   1.000  O
  O42      1.0000 0.81800  0.67800  0.89850  Biso   1.000  O
  O43      1.0000 0.73790  0.13360  0.95130  Biso   1.000  O
  O44      1.0000 0.26210  0.13360  0.04870  Biso   1.000  O
  O45      1.0000 0.23790  0.63360  0.95130  Biso   1.000  O
  O46      1.0000 0.76210  0.63360  0.04870  Biso   1.000  O
  O47      1.0000 0.62360  0.88510  0.60610  Biso   1.000  O
  O48      1.0000 0.37640  0.88510  0.39390  Biso   1.000  O
  O49      1.0000 0.12360  0.38510  0.60610  Biso   1.000  O
  O50      1.0000 0.87640  0.38510  0.39390  Biso   1.000  O
  O51      1.0000 0.57810  0.00730  0.61990  Biso   1.000  O
  O52      1.0000 0.42190  0.00730  0.38010  Biso   1.000  O
  O53      1.0000 0.07810  0.50730  0.61990  Biso   1.000  O
  O54      1.0000 0.92190  0.50730  0.38010  Biso   1.000  O
  O55      1.0000 0.57500  0.88730  0.79640  Biso   1.000  O
  O56      1.0000 0.42500  0.88730  0.20360  Biso   1.000  O
  O57      1.0000 0.07500  0.38730  0.79640  Biso   1.000  O
  O58      1.0000 0.92500  0.38730  0.20360  Biso   1.000  O
  O59      1.0000 0.55120  0.88120  0.57680  Biso   1.000  O
  O60      1.0000 0.44880  0.88120  0.42320  Biso   1.000  O
  O61      1.0000 0.05120  0.38120  0.57680  Biso   1.000  O
  O62      1.0000 0.94880  0.38120  0.42320  Biso   1.000  O
  O63      1.0000 0.35520  0.23440  0.24420  Biso   1.000  O
  O64      1.0000 0.64480  0.23440  0.75580  Biso   1.000  O
  O65      1.0000 0.85520  0.73440  0.24420  Biso   1.000  O
  O66      1.0000 0.14480  0.73440  0.75580  Biso   1.000  O
