data_image0
_cell_length_a       31.994
_cell_length_b       9.2152
_cell_length_c       14.5501
_cell_angle_alpha    90
_cell_angle_beta     90.389
_cell_angle_gamma    90

_symmetry_space_group_name_H-M    "P 1"
_symmetry_int_tables_number       1

loop_
  _symmetry_equiv_pos_as_xyz
  'x, y, z'

loop_
  _atom_site_label
  _atom_site_occupancy
  _atom_site_fract_x
  _atom_site_fract_y
  _atom_site_fract_z
  _atom_site_thermal_displace_type
  _atom_site_B_iso_or_equiv
  _atom_site_type_symbol
  Cu1      1.0000 0.12384  0.00452  0.16293  Biso   1.000  Cu
  Cu2      1.0000 0.62384  0.50452  0.16293  Biso   1.000  Cu
  Cu3      1.0000 0.87616  0.00452  0.33707  Biso   1.000  Cu
  Cu4      1.0000 0.37616  0.50452  0.33707  Biso   1.000  Cu
  Cu5      1.0000 0.87616  0.99548  0.83707  Biso   1.000  Cu
  Cu6      1.0000 0.37616  0.49548  0.83707  Biso   1.000  Cu
  Cu7      1.0000 0.12384  0.99548  0.66293  Biso   1.000  Cu
  Cu8      1.0000 0.62384  0.49548  0.66293  Biso   1.000  Cu
  C1       1.0000 0.28502  0.21680  0.14631  Biso   1.000  C
  C2       1.0000 0.78502  0.71680  0.14631  Biso   1.000  C
  C3       1.0000 0.71498  0.21680  0.35369  Biso   1.000  C
  C4       1.0000 0.21498  0.71680  0.35369  Biso   1.000  C
  C5       1.0000 0.71498  0.78320  0.85369  Biso   1.000  C
  C6       1.0000 0.21498  0.28320  0.85369  Biso   1.000  C
  C7       1.0000 0.28502  0.78320  0.64631  Biso   1.000  C
  C8       1.0000 0.78502  0.28320  0.64631  Biso   1.000  C
  C9       1.0000 0.24759  0.25640  0.19305  Biso   1.000  C
  C10      1.0000 0.74759  0.75640  0.19305  Biso   1.000  C
  C11      1.0000 0.75241  0.25640  0.30695  Biso   1.000  C
  C12      1.0000 0.25241  0.75640  0.30695  Biso   1.000  C
  C13      1.0000 0.75241  0.74360  0.80695  Biso   1.000  C
  C14      1.0000 0.25241  0.24360  0.80695  Biso   1.000  C
  C15      1.0000 0.24759  0.74360  0.69305  Biso   1.000  C
  C16      1.0000 0.74759  0.24360  0.69305  Biso   1.000  C
  C17      1.0000 0.20807  0.20450  0.16855  Biso   1.000  C
  C18      1.0000 0.70807  0.70450  0.16855  Biso   1.000  C
  C19      1.0000 0.79193  0.20450  0.33145  Biso   1.000  C
  C20      1.0000 0.29193  0.70450  0.33145  Biso   1.000  C
  C21      1.0000 0.79193  0.79550  0.83145  Biso   1.000  C
  C22      1.0000 0.29193  0.29550  0.83145  Biso   1.000  C
  C23      1.0000 0.20807  0.79550  0.66855  Biso   1.000  C
  C24      1.0000 0.70807  0.29550  0.66855  Biso   1.000  C
  C25      1.0000 0.20480  0.09440  0.09942  Biso   1.000  C
  C26      1.0000 0.70480  0.59440  0.09942  Biso   1.000  C
  C27      1.0000 0.79520  0.09440  0.40058  Biso   1.000  C
  C28      1.0000 0.29520  0.59440  0.40058  Biso   1.000  C
  C29      1.0000 0.79520  0.90560  0.90058  Biso   1.000  C
  C30      1.0000 0.29520  0.40560  0.90058  Biso   1.000  C
  C31      1.0000 0.20480  0.90560  0.59942  Biso   1.000  C
  C32      1.0000 0.70480  0.40560  0.59942  Biso   1.000  C
  C33      1.0000 0.24149  0.05770  0.04681  Biso   1.000  C
  C34      1.0000 0.74149  0.55770  0.04681  Biso   1.000  C
  C35      1.0000 0.75851  0.05770  0.45319  Biso   1.000  C
  C36      1.0000 0.25851  0.55770  0.45319  Biso   1.000  C
  C37      1.0000 0.75851  0.94230  0.95319  Biso   1.000  C
  C38      1.0000 0.25851  0.44230  0.95319  Biso   1.000  C
  C39      1.0000 0.24149  0.94230  0.54681  Biso   1.000  C
  C40      1.0000 0.74149  0.44230  0.54681  Biso   1.000  C
  C41      1.0000 0.28050  0.11890  0.07157  Biso   1.000  C
  C42      1.0000 0.78050  0.61890  0.07157  Biso   1.000  C
  C43      1.0000 0.71950  0.11890  0.42843  Biso   1.000  C
  C44      1.0000 0.21950  0.61890  0.42843  Biso   1.000  C
  C45      1.0000 0.71950  0.88110  0.92843  Biso   1.000  C
  C46      1.0000 0.21950  0.38110  0.92843  Biso   1.000  C
  C47      1.0000 0.28050  0.88110  0.57157  Biso   1.000  C
  C48      1.0000 0.78050  0.38110  0.57157  Biso   1.000  C
  C49      1.0000 0.24009  0.95780  0.97010  Biso   1.000  C
  C50      1.0000 0.74009  0.45780  0.97010  Biso   1.000  C
  C51      1.0000 0.75991  0.95780  0.52990  Biso   1.000  C
  C52      1.0000 0.25991  0.45780  0.52990  Biso   1.000  C
  C53      1.0000 0.75991  0.04220  0.02990  Biso   1.000  C
  C54      1.0000 0.25991  0.54220  0.02990  Biso   1.000  C
  C55      1.0000 0.24009  0.04220  0.47010  Biso   1.000  C
  C56      1.0000 0.74009  0.54220  0.47010  Biso   1.000  C
  C57      1.0000 0.20162  0.88720  0.93436  Biso   1.000  C
  C58      1.0000 0.70162  0.38720  0.93436  Biso   1.000  C
  C59      1.0000 0.79838  0.88720  0.56564  Biso   1.000  C
  C60      1.0000 0.29838  0.38720  0.56564  Biso   1.000  C
  C61      1.0000 0.79838  0.11280  0.06564  Biso   1.000  C
  C62      1.0000 0.29838  0.61280  0.06564  Biso   1.000  C
  C63      1.0000 0.20162  0.11280  0.43436  Biso   1.000  C
  C64      1.0000 0.70162  0.61280  0.43436  Biso   1.000  C
  C65      1.0000 0.17030  0.41750  0.24497  Biso   1.000  C
  C66      1.0000 0.67030  0.91750  0.24497  Biso   1.000  C
  C67      1.0000 0.82970  0.41750  0.25503  Biso   1.000  C
  C68      1.0000 0.32970  0.91750  0.25503  Biso   1.000  C
  C69      1.0000 0.82970  0.58250  0.75503  Biso   1.000  C
  C70      1.0000 0.32970  0.08250  0.75503  Biso   1.000  C
  C71      1.0000 0.17030  0.58250  0.74497  Biso   1.000  C
  C72      1.0000 0.67030  0.08250  0.74497  Biso   1.000  C
  C73      1.0000 0.17113  0.26100  0.21580  Biso   1.000  C
  C74      1.0000 0.67113  0.76100  0.21580  Biso   1.000  C
  C75      1.0000 0.82887  0.26100  0.28420  Biso   1.000  C
  C76      1.0000 0.32887  0.76100  0.28420  Biso   1.000  C
  C77      1.0000 0.82887  0.73900  0.78420  Biso   1.000  C
  C78      1.0000 0.32887  0.23900  0.78420  Biso   1.000  C
  C79      1.0000 0.17113  0.73900  0.71580  Biso   1.000  C
  C80      1.0000 0.67113  0.23900  0.71580  Biso   1.000  C
  C81      1.0000 0.10348  0.23680  0.28272  Biso   1.000  C
  C82      1.0000 0.60348  0.73680  0.28272  Biso   1.000  C
  C83      1.0000 0.89652  0.23680  0.21728  Biso   1.000  C
  C84      1.0000 0.39652  0.73680  0.21728  Biso   1.000  C
  C85      1.0000 0.89652  0.76320  0.71728  Biso   1.000  C
  C86      1.0000 0.39652  0.26320  0.71728  Biso   1.000  C
  C87      1.0000 0.10348  0.76320  0.78272  Biso   1.000  C
  C88      1.0000 0.60348  0.26320  0.78272  Biso   1.000  C
  C89      1.0000 0.07887  0.10890  0.31612  Biso   1.000  C
  C90      1.0000 0.57887  0.60890  0.31612  Biso   1.000  C
  C91      1.0000 0.92113  0.10890  0.18388  Biso   1.000  C
  C92      1.0000 0.42113  0.60890  0.18388  Biso   1.000  C
  C93      1.0000 0.92113  0.89110  0.68388  Biso   1.000  C
  C94      1.0000 0.42113  0.39110  0.68388  Biso   1.000  C
  C95      1.0000 0.07887  0.89110  0.81612  Biso   1.000  C
  C96      1.0000 0.57887  0.39110  0.81612  Biso   1.000  C
  C97      1.0000 0.12713  0.70360  0.08605  Biso   1.000  C
  C98      1.0000 0.62713  0.20360  0.08605  Biso   1.000  C
  C99      1.0000 0.87287  0.70360  0.41395  Biso   1.000  C
  C100     1.0000 0.37287  0.20360  0.41395  Biso   1.000  C
  C101     1.0000 0.87287  0.29640  0.91395  Biso   1.000  C
  C102     1.0000 0.37287  0.79640  0.91395  Biso   1.000  C
  C103     1.0000 0.12713  0.29640  0.58605  Biso   1.000  C
  C104     1.0000 0.62713  0.79640  0.58605  Biso   1.000  C
  C105     1.0000 0.10281  0.60210  0.04622  Biso   1.000  C
  C106     1.0000 0.60281  0.10210  0.04622  Biso   1.000  C
  C107     1.0000 0.89719  0.60210  0.45378  Biso   1.000  C
  C108     1.0000 0.39719  0.10210  0.45378  Biso   1.000  C
  C109     1.0000 0.89719  0.39790  0.95378  Biso   1.000  C
  C110     1.0000 0.39719  0.89790  0.95378  Biso   1.000  C
  C111     1.0000 0.10281  0.39790  0.54622  Biso   1.000  C
  C112     1.0000 0.60281  0.89790  0.54622  Biso   1.000  C
  C113     1.0000 0.06741  0.80310  0.06031  Biso   1.000  C
  C114     1.0000 0.56741  0.30310  0.06031  Biso   1.000  C
  C115     1.0000 0.93259  0.80310  0.43969  Biso   1.000  C
  C116     1.0000 0.43259  0.30310  0.43969  Biso   1.000  C
  C117     1.0000 0.93259  0.19690  0.93969  Biso   1.000  C
  C118     1.0000 0.43259  0.69690  0.93969  Biso   1.000  C
  C119     1.0000 0.06741  0.19690  0.56031  Biso   1.000  C
  C120     1.0000 0.56741  0.69690  0.56031  Biso   1.000  C
  C121     1.0000 0.32468  0.27280  0.17760  Biso   1.000  C
  C122     1.0000 0.82468  0.77280  0.17760  Biso   1.000  C
  C123     1.0000 0.67532  0.27280  0.32240  Biso   1.000  C
  C124     1.0000 0.17532  0.77280  0.32240  Biso   1.000  C
  C125     1.0000 0.67532  0.72720  0.82240  Biso   1.000  C
  C126     1.0000 0.17532  0.22720  0.82240  Biso   1.000  C
  C127     1.0000 0.32468  0.72720  0.67760  Biso   1.000  C
  C128     1.0000 0.82468  0.22720  0.67760  Biso   1.000  C
  C129     1.0000 0.36523  0.23840  0.13340  Biso   1.000  C
  C130     1.0000 0.86523  0.73840  0.13340  Biso   1.000  C
  C131     1.0000 0.63477  0.23840  0.36660  Biso   1.000  C
  C132     1.0000 0.13477  0.73840  0.36660  Biso   1.000  C
  C133     1.0000 0.63477  0.76160  0.86660  Biso   1.000  C
  C134     1.0000 0.13477  0.26160  0.86660  Biso   1.000  C
  C135     1.0000 0.36523  0.76160  0.63340  Biso   1.000  C
  C136     1.0000 0.86523  0.26160  0.63340  Biso   1.000  C
  N1       1.0000 0.13887  0.18084  0.22931  Biso   1.000  N
  N2       1.0000 0.63887  0.68084  0.22931  Biso   1.000  N
  N3       1.0000 0.86113  0.18084  0.27069  Biso   1.000  N
  N4       1.0000 0.36113  0.68084  0.27069  Biso   1.000  N
  N5       1.0000 0.86113  0.81916  0.77069  Biso   1.000  N
  N6       1.0000 0.36113  0.31916  0.77069  Biso   1.000  N
  N7       1.0000 0.13887  0.81916  0.72931  Biso   1.000  N
  N8       1.0000 0.63887  0.31916  0.72931  Biso   1.000  N
  O1       1.0000 0.25015  0.34449  0.26528  Biso   1.000  O
  O2       1.0000 0.75015  0.84449  0.26528  Biso   1.000  O
  O3       1.0000 0.74985  0.34449  0.23472  Biso   1.000  O
  O4       1.0000 0.24985  0.84449  0.23472  Biso   1.000  O
  O5       1.0000 0.74985  0.65551  0.73472  Biso   1.000  O
  O6       1.0000 0.24985  0.15551  0.73472  Biso   1.000  O
  O7       1.0000 0.25015  0.65551  0.76528  Biso   1.000  O
  O8       1.0000 0.75015  0.15551  0.76528  Biso   1.000  O
  O9       1.0000 0.31424  0.08292  0.02567  Biso   1.000  O
  O10      1.0000 0.81424  0.58292  0.02567  Biso   1.000  O
  O11      1.0000 0.68576  0.08292  0.47433  Biso   1.000  O
  O12      1.0000 0.18576  0.58292  0.47433  Biso   1.000  O
  O13      1.0000 0.68576  0.91708  0.97433  Biso   1.000  O
  O14      1.0000 0.18576  0.41708  0.97433  Biso   1.000  O
  O15      1.0000 0.31424  0.91708  0.52567  Biso   1.000  O
  O16      1.0000 0.81424  0.41708  0.52567  Biso   1.000  O
  O17      1.0000 0.17054  0.02866  0.08169  Biso   1.000  O
  O18      1.0000 0.67054  0.52866  0.08169  Biso   1.000  O
  O19      1.0000 0.82946  0.02866  0.41831  Biso   1.000  O
  O20      1.0000 0.32946  0.52866  0.41831  Biso   1.000  O
  O21      1.0000 0.82946  0.97134  0.91831  Biso   1.000  O
  O22      1.0000 0.32946  0.47134  0.91831  Biso   1.000  O
  O23      1.0000 0.17054  0.97134  0.58169  Biso   1.000  O
  O24      1.0000 0.67054  0.47134  0.58169  Biso   1.000  O
  O25      1.0000 0.27326  0.92630  0.92856  Biso   1.000  O
  O26      1.0000 0.77326  0.42630  0.92856  Biso   1.000  O
  O27      1.0000 0.72674  0.92630  0.57144  Biso   1.000  O
  O28      1.0000 0.22674  0.42630  0.57144  Biso   1.000  O
  O29      1.0000 0.72674  0.07370  0.07144  Biso   1.000  O
  O30      1.0000 0.22674  0.57370  0.07144  Biso   1.000  O
  O31      1.0000 0.27326  0.07370  0.42856  Biso   1.000  O
  O32      1.0000 0.77326  0.57370  0.42856  Biso   1.000  O
  O33      1.0000 0.17375  0.85687  0.25465  Biso   1.000  O
  O34      1.0000 0.67375  0.35687  0.25465  Biso   1.000  O
  O35      1.0000 0.82625  0.85687  0.24535  Biso   1.000  O
  O36      1.0000 0.32625  0.35687  0.24535  Biso   1.000  O
  O37      1.0000 0.82625  0.14313  0.74535  Biso   1.000  O
  O38      1.0000 0.32625  0.64313  0.74535  Biso   1.000  O
  O39      1.0000 0.17375  0.14313  0.75465  Biso   1.000  O
  O40      1.0000 0.67375  0.64313  0.75465  Biso   1.000  O
  N9       1.0000 0.07052  0.01420  0.23646  Biso   1.000  N
  N10      1.0000 0.57052  0.51420  0.23646  Biso   1.000  N
  N11      1.0000 0.92948  0.01420  0.26354  Biso   1.000  N
  N12      1.0000 0.42948  0.51420  0.26354  Biso   1.000  N
  N13      1.0000 0.92948  0.98580  0.76354  Biso   1.000  N
  N14      1.0000 0.42948  0.48580  0.76354  Biso   1.000  N
  N15      1.0000 0.07052  0.98580  0.73646  Biso   1.000  N
  N16      1.0000 0.57052  0.48580  0.73646  Biso   1.000  N
  N17      1.0000 0.10490  0.83031  0.09505  Biso   1.000  N
  N18      1.0000 0.60490  0.33031  0.09505  Biso   1.000  N
  N19      1.0000 0.89510  0.83031  0.40495  Biso   1.000  N
  N20      1.0000 0.39510  0.33031  0.40495  Biso   1.000  N
  N21      1.0000 0.89510  0.16969  0.90495  Biso   1.000  N
  N22      1.0000 0.39510  0.66969  0.90495  Biso   1.000  N
  N23      1.0000 0.10490  0.16969  0.59505  Biso   1.000  N
  N24      1.0000 0.60490  0.66969  0.59505  Biso   1.000  N
  N25      1.0000 0.06548  0.66720  0.02988  Biso   1.000  N
  N26      1.0000 0.56548  0.16720  0.02988  Biso   1.000  N
  N27      1.0000 0.93452  0.66720  0.47012  Biso   1.000  N
  N28      1.0000 0.43452  0.16720  0.47012  Biso   1.000  N
  N29      1.0000 0.93452  0.33280  0.97012  Biso   1.000  N
  N30      1.0000 0.43452  0.83280  0.97012  Biso   1.000  N
  N31      1.0000 0.06548  0.33280  0.52988  Biso   1.000  N
  N32      1.0000 0.56548  0.83280  0.52988  Biso   1.000  N
  H1       1.0000 0.27670  0.36300  0.27000  Biso   1.000  H
  H2       1.0000 0.77670  0.86300  0.27000  Biso   1.000  H
  H3       1.0000 0.72330  0.36300  0.23000  Biso   1.000  H
  H4       1.0000 0.22330  0.86300  0.23000  Biso   1.000  H
  H5       1.0000 0.72330  0.63700  0.73000  Biso   1.000  H
  H6       1.0000 0.22330  0.13700  0.73000  Biso   1.000  H
  H7       1.0000 0.27670  0.63700  0.77000  Biso   1.000  H
  H8       1.0000 0.77670  0.13700  0.77000  Biso   1.000  H
  H9       1.0000 0.06090  0.93100  0.25720  Biso   1.000  H
  H10      1.0000 0.56090  0.43100  0.25720  Biso   1.000  H
  H11      1.0000 0.93910  0.93100  0.24280  Biso   1.000  H
  H12      1.0000 0.43910  0.43100  0.24280  Biso   1.000  H
  H13      1.0000 0.93910  0.06900  0.74280  Biso   1.000  H
  H14      1.0000 0.43910  0.56900  0.74280  Biso   1.000  H
  H15      1.0000 0.06090  0.06900  0.75720  Biso   1.000  H
  H16      1.0000 0.56090  0.56900  0.75720  Biso   1.000  H
  H17      1.0000 0.05160  0.05200  0.20300  Biso   1.000  H
  H18      1.0000 0.55160  0.55200  0.20300  Biso   1.000  H
  H19      1.0000 0.94840  0.05200  0.29700  Biso   1.000  H
  H20      1.0000 0.44840  0.55200  0.29700  Biso   1.000  H
  H21      1.0000 0.94840  0.94800  0.79700  Biso   1.000  H
  H22      1.0000 0.44840  0.44800  0.79700  Biso   1.000  H
  H23      1.0000 0.05160  0.94800  0.70300  Biso   1.000  H
  H24      1.0000 0.55160  0.44800  0.70300  Biso   1.000  H
  H25      1.0000 0.30390  0.02200  0.99000  Biso   1.000  H
  H26      1.0000 0.80390  0.52200  0.99000  Biso   1.000  H
  H27      1.0000 0.69610  0.02200  0.51000  Biso   1.000  H
  H28      1.0000 0.19610  0.52200  0.51000  Biso   1.000  H
  H29      1.0000 0.69610  0.97800  0.01000  Biso   1.000  H
  H30      1.0000 0.19610  0.47800  0.01000  Biso   1.000  H
  H31      1.0000 0.30390  0.97800  0.49000  Biso   1.000  H
  H32      1.0000 0.80390  0.47800  0.49000  Biso   1.000  H
  H33      1.0000 0.04570  0.63700  0.01800  Biso   1.000  H
  H34      1.0000 0.54570  0.13700  0.01800  Biso   1.000  H
  H35      1.0000 0.95430  0.63700  0.48200  Biso   1.000  H
  H36      1.0000 0.45430  0.13700  0.48200  Biso   1.000  H
  H37      1.0000 0.95430  0.36300  0.98200  Biso   1.000  H
  H38      1.0000 0.45430  0.86300  0.98200  Biso   1.000  H
  H39      1.0000 0.04570  0.36300  0.51800  Biso   1.000  H
  H40      1.0000 0.54570  0.86300  0.51800  Biso   1.000  H
  H41      1.0000 0.38540  0.28000  0.16950  Biso   1.000  H
  H42      1.0000 0.88540  0.78000  0.16950  Biso   1.000  H
  H43      1.0000 0.61460  0.28000  0.33050  Biso   1.000  H
  H44      1.0000 0.11460  0.78000  0.33050  Biso   1.000  H
  H45      1.0000 0.61460  0.72000  0.83050  Biso   1.000  H
  H46      1.0000 0.11460  0.22000  0.83050  Biso   1.000  H
  H47      1.0000 0.38540  0.72000  0.66950  Biso   1.000  H
  H48      1.0000 0.88540  0.22000  0.66950  Biso   1.000  H
  H49      1.0000 0.36580  0.27300  0.07720  Biso   1.000  H
  H50      1.0000 0.86580  0.77300  0.07720  Biso   1.000  H
  H51      1.0000 0.63420  0.27300  0.42280  Biso   1.000  H
  H52      1.0000 0.13420  0.77300  0.42280  Biso   1.000  H
  H53      1.0000 0.63420  0.72700  0.92280  Biso   1.000  H
  H54      1.0000 0.13420  0.22700  0.92280  Biso   1.000  H
  H55      1.0000 0.36580  0.72700  0.57720  Biso   1.000  H
  H56      1.0000 0.86580  0.22700  0.57720  Biso   1.000  H
  H57      1.0000 0.37000  0.14000  0.12930  Biso   1.000  H
  H58      1.0000 0.87000  0.64000  0.12930  Biso   1.000  H
  H59      1.0000 0.63000  0.14000  0.37070  Biso   1.000  H
  H60      1.0000 0.13000  0.64000  0.37070  Biso   1.000  H
  H61      1.0000 0.63000  0.86000  0.87070  Biso   1.000  H
  H62      1.0000 0.13000  0.36000  0.87070  Biso   1.000  H
  H63      1.0000 0.37000  0.86000  0.62930  Biso   1.000  H
  H64      1.0000 0.87000  0.36000  0.62930  Biso   1.000  H
  H65      1.0000 0.17890  0.95300  0.92720  Biso   1.000  H
  H66      1.0000 0.67890  0.45300  0.92720  Biso   1.000  H
  H67      1.0000 0.82110  0.95300  0.57280  Biso   1.000  H
  H68      1.0000 0.32110  0.45300  0.57280  Biso   1.000  H
  H69      1.0000 0.82110  0.04700  0.07280  Biso   1.000  H
  H70      1.0000 0.32110  0.54700  0.07280  Biso   1.000  H
  H71      1.0000 0.17890  0.04700  0.42720  Biso   1.000  H
  H72      1.0000 0.67890  0.54700  0.42720  Biso   1.000  H
  H73      1.0000 0.19100  0.81900  0.97770  Biso   1.000  H
  H74      1.0000 0.69100  0.31900  0.97770  Biso   1.000  H
  H75      1.0000 0.80900  0.81900  0.52230  Biso   1.000  H
  H76      1.0000 0.30900  0.31900  0.52230  Biso   1.000  H
  H77      1.0000 0.80900  0.18100  0.02230  Biso   1.000  H
  H78      1.0000 0.30900  0.68100  0.02230  Biso   1.000  H
  H79      1.0000 0.19100  0.18100  0.47770  Biso   1.000  H
  H80      1.0000 0.69100  0.68100  0.47770  Biso   1.000  H
  H81      1.0000 0.20770  0.84900  0.88300  Biso   1.000  H
  H82      1.0000 0.70770  0.34900  0.88300  Biso   1.000  H
  H83      1.0000 0.79230  0.84900  0.61700  Biso   1.000  H
  H84      1.0000 0.29230  0.34900  0.61700  Biso   1.000  H
  H85      1.0000 0.79230  0.15100  0.11700  Biso   1.000  H
  H86      1.0000 0.29230  0.65100  0.11700  Biso   1.000  H
  H87      1.0000 0.20770  0.15100  0.38300  Biso   1.000  H
  H88      1.0000 0.70770  0.65100  0.38300  Biso   1.000  H
  H89      1.0000 0.17520  0.42900  0.31470  Biso   1.000  H
  H90      1.0000 0.67520  0.92900  0.31470  Biso   1.000  H
  H91      1.0000 0.82480  0.42900  0.18530  Biso   1.000  H
  H92      1.0000 0.32480  0.92900  0.18530  Biso   1.000  H
  H93      1.0000 0.82480  0.57100  0.68530  Biso   1.000  H
  H94      1.0000 0.32480  0.07100  0.68530  Biso   1.000  H
  H95      1.0000 0.17520  0.57100  0.81470  Biso   1.000  H
  H96      1.0000 0.67520  0.07100  0.81470  Biso   1.000  H
  H97      1.0000 0.19220  0.47100  0.21480  Biso   1.000  H
  H98      1.0000 0.69220  0.97100  0.21480  Biso   1.000  H
  H99      1.0000 0.80780  0.47100  0.28520  Biso   1.000  H
  H100     1.0000 0.30780  0.97100  0.28520  Biso   1.000  H
  H101     1.0000 0.80780  0.52900  0.78520  Biso   1.000  H
  H102     1.0000 0.30780  0.02900  0.78520  Biso   1.000  H
  H103     1.0000 0.19220  0.52900  0.71480  Biso   1.000  H
  H104     1.0000 0.69220  0.02900  0.71480  Biso   1.000  H
  H105     1.0000 0.14350  0.45100  0.22800  Biso   1.000  H
  H106     1.0000 0.64350  0.95100  0.22800  Biso   1.000  H
  H107     1.0000 0.85650  0.45100  0.27200  Biso   1.000  H
  H108     1.0000 0.35650  0.95100  0.27200  Biso   1.000  H
  H109     1.0000 0.85650  0.54900  0.77200  Biso   1.000  H
  H110     1.0000 0.35650  0.04900  0.77200  Biso   1.000  H
  H111     1.0000 0.14350  0.54900  0.72800  Biso   1.000  H
  H112     1.0000 0.64350  0.04900  0.72800  Biso   1.000  H
  H113     1.0000 0.11370  0.29200  0.33260  Biso   1.000  H
  H114     1.0000 0.61370  0.79200  0.33260  Biso   1.000  H
  H115     1.0000 0.88630  0.29200  0.16740  Biso   1.000  H
  H116     1.0000 0.38630  0.79200  0.16740  Biso   1.000  H
  H117     1.0000 0.88630  0.70800  0.66740  Biso   1.000  H
  H118     1.0000 0.38630  0.20800  0.66740  Biso   1.000  H
  H119     1.0000 0.11370  0.70800  0.83260  Biso   1.000  H
  H120     1.0000 0.61370  0.20800  0.83260  Biso   1.000  H
  H121     1.0000 0.08720  0.29400  0.24670  Biso   1.000  H
  H122     1.0000 0.58720  0.79400  0.24670  Biso   1.000  H
  H123     1.0000 0.91280  0.29400  0.25330  Biso   1.000  H
  H124     1.0000 0.41280  0.79400  0.25330  Biso   1.000  H
  H125     1.0000 0.91280  0.70600  0.75330  Biso   1.000  H
  H126     1.0000 0.41280  0.20600  0.75330  Biso   1.000  H
  H127     1.0000 0.08720  0.70600  0.74670  Biso   1.000  H
  H128     1.0000 0.58720  0.20600  0.74670  Biso   1.000  H
  H129     1.0000 0.05430  0.13600  0.34960  Biso   1.000  H
  H130     1.0000 0.55430  0.63600  0.34960  Biso   1.000  H
  H131     1.0000 0.94570  0.13600  0.15040  Biso   1.000  H
  H132     1.0000 0.44570  0.63600  0.15040  Biso   1.000  H
  H133     1.0000 0.94570  0.86400  0.65040  Biso   1.000  H
  H134     1.0000 0.44570  0.36400  0.65040  Biso   1.000  H
  H135     1.0000 0.05430  0.86400  0.84960  Biso   1.000  H
  H136     1.0000 0.55430  0.36400  0.84960  Biso   1.000  H
  H137     1.0000 0.09340  0.05200  0.35940  Biso   1.000  H
  H138     1.0000 0.59340  0.55200  0.35940  Biso   1.000  H
  H139     1.0000 0.90660  0.05200  0.14060  Biso   1.000  H
  H140     1.0000 0.40660  0.55200  0.14060  Biso   1.000  H
  H141     1.0000 0.90660  0.94800  0.64060  Biso   1.000  H
  H142     1.0000 0.40660  0.44800  0.64060  Biso   1.000  H
  H143     1.0000 0.09340  0.94800  0.85940  Biso   1.000  H
  H144     1.0000 0.59340  0.44800  0.85940  Biso   1.000  H
  H145     1.0000 0.15520  0.70200  0.10490  Biso   1.000  H
  H146     1.0000 0.65520  0.20200  0.10490  Biso   1.000  H
  H147     1.0000 0.84480  0.70200  0.39510  Biso   1.000  H
  H148     1.0000 0.34480  0.20200  0.39510  Biso   1.000  H
  H149     1.0000 0.84480  0.29800  0.89510  Biso   1.000  H
  H150     1.0000 0.34480  0.79800  0.89510  Biso   1.000  H
  H151     1.0000 0.15520  0.29800  0.60490  Biso   1.000  H
  H152     1.0000 0.65520  0.79800  0.60490  Biso   1.000  H
  H153     1.0000 0.11000  0.51400  0.02880  Biso   1.000  H
  H154     1.0000 0.61000  0.01400  0.02880  Biso   1.000  H
  H155     1.0000 0.89000  0.51400  0.47120  Biso   1.000  H
  H156     1.0000 0.39000  0.01400  0.47120  Biso   1.000  H
  H157     1.0000 0.89000  0.48600  0.97120  Biso   1.000  H
  H158     1.0000 0.39000  0.98600  0.97120  Biso   1.000  H
  H159     1.0000 0.11000  0.48600  0.52880  Biso   1.000  H
  H160     1.0000 0.61000  0.98600  0.52880  Biso   1.000  H
  H161     1.0000 0.04630  0.86400  0.05650  Biso   1.000  H
  H162     1.0000 0.54630  0.36400  0.05650  Biso   1.000  H
  H163     1.0000 0.95370  0.86400  0.44350  Biso   1.000  H
  H164     1.0000 0.45370  0.36400  0.44350  Biso   1.000  H
  H165     1.0000 0.95370  0.13600  0.94350  Biso   1.000  H
  H166     1.0000 0.45370  0.63600  0.94350  Biso   1.000  H
  H167     1.0000 0.04630  0.13600  0.55650  Biso   1.000  H
  H168     1.0000 0.54630  0.63600  0.55650  Biso   1.000  H
  O41      1.0000 0.00800  0.77380  0.27960  Biso   1.000  O
  O42      1.0000 0.50800  0.27380  0.27960  Biso   1.000  O
  O43      1.0000 0.99200  0.77380  0.22040  Biso   1.000  O
  O44      1.0000 0.49200  0.27380  0.22040  Biso   1.000  O
  O45      1.0000 0.99200  0.22620  0.72040  Biso   1.000  O
  O46      1.0000 0.49200  0.72620  0.72040  Biso   1.000  O
  O47      1.0000 0.00800  0.22620  0.77960  Biso   1.000  O
  O48      1.0000 0.50800  0.72620  0.77960  Biso   1.000  O
  C137     1.0000 0.01140  0.63450  0.25270  Biso   1.000  C
  C138     1.0000 0.51140  0.13450  0.25270  Biso   1.000  C
  C139     1.0000 0.98860  0.63450  0.24730  Biso   1.000  C
  C140     1.0000 0.48860  0.13450  0.24730  Biso   1.000  C
  C141     1.0000 0.98860  0.36550  0.74730  Biso   1.000  C
  C142     1.0000 0.48860  0.86550  0.74730  Biso   1.000  C
  C143     1.0000 0.01140  0.36550  0.75270  Biso   1.000  C
  C144     1.0000 0.51140  0.86550  0.75270  Biso   1.000  C
  H169     1.0000 0.03150  0.59180  0.29390  Biso   1.000  H
  H170     1.0000 0.53150  0.09180  0.29390  Biso   1.000  H
  H171     1.0000 0.96850  0.59180  0.20610  Biso   1.000  H
  H172     1.0000 0.46850  0.09180  0.20610  Biso   1.000  H
  H173     1.0000 0.96850  0.40820  0.70610  Biso   1.000  H
  H174     1.0000 0.46850  0.90820  0.70610  Biso   1.000  H
  H175     1.0000 0.03150  0.40820  0.79390  Biso   1.000  H
  H176     1.0000 0.53150  0.90820  0.79390  Biso   1.000  H
  H177     1.0000 0.02440  0.63800  0.19350  Biso   1.000  H
  H178     1.0000 0.52440  0.13800  0.19350  Biso   1.000  H
  H179     1.0000 0.97560  0.63800  0.30650  Biso   1.000  H
  H180     1.0000 0.47560  0.13800  0.30650  Biso   1.000  H
  H181     1.0000 0.97560  0.36200  0.80650  Biso   1.000  H
  H182     1.0000 0.47560  0.86200  0.80650  Biso   1.000  H
  H183     1.0000 0.02440  0.36200  0.69350  Biso   1.000  H
  H184     1.0000 0.52440  0.86200  0.69350  Biso   1.000  H
  C145     1.0000 0.97920  0.52830  0.24370  Biso   1.000  C
  C146     1.0000 0.47920  0.02830  0.24370  Biso   1.000  C
  C147     1.0000 0.02080  0.52830  0.25630  Biso   1.000  C
  C148     1.0000 0.52080  0.02830  0.25630  Biso   1.000  C
  C149     1.0000 0.02080  0.47170  0.75630  Biso   1.000  C
  C150     1.0000 0.52080  0.97170  0.75630  Biso   1.000  C
  C151     1.0000 0.97920  0.47170  0.74370  Biso   1.000  C
  C152     1.0000 0.47920  0.97170  0.74370  Biso   1.000  C
  H185     1.0000 0.99010  0.43690  0.22330  Biso   1.000  H
  H186     1.0000 0.49010  0.93690  0.22330  Biso   1.000  H
  H187     1.0000 0.00990  0.43690  0.27670  Biso   1.000  H
  H188     1.0000 0.50990  0.93690  0.27670  Biso   1.000  H
  H189     1.0000 0.00990  0.56310  0.77670  Biso   1.000  H
  H190     1.0000 0.50990  0.06310  0.77670  Biso   1.000  H
  H191     1.0000 0.99010  0.56310  0.72330  Biso   1.000  H
  H192     1.0000 0.49010  0.06310  0.72330  Biso   1.000  H
  H193     1.0000 0.96620  0.51590  0.30250  Biso   1.000  H
  H194     1.0000 0.46620  0.01590  0.30250  Biso   1.000  H
  H195     1.0000 0.03380  0.51590  0.19750  Biso   1.000  H
  H196     1.0000 0.53380  0.01590  0.19750  Biso   1.000  H
  H197     1.0000 0.03380  0.48410  0.69750  Biso   1.000  H
  H198     1.0000 0.53380  0.98410  0.69750  Biso   1.000  H
  H199     1.0000 0.96620  0.48410  0.80250  Biso   1.000  H
  H200     1.0000 0.46620  0.98410  0.80250  Biso   1.000  H
  H201     1.0000 0.95890  0.56300  0.20010  Biso   1.000  H
  H202     1.0000 0.45890  0.06300  0.20010  Biso   1.000  H
  H203     1.0000 0.04110  0.56300  0.29990  Biso   1.000  H
  H204     1.0000 0.54110  0.06300  0.29990  Biso   1.000  H
  H205     1.0000 0.04110  0.43700  0.79990  Biso   1.000  H
  H206     1.0000 0.54110  0.93700  0.79990  Biso   1.000  H
  H207     1.0000 0.95890  0.43700  0.70010  Biso   1.000  H
  H208     1.0000 0.45890  0.93700  0.70010  Biso   1.000  H
  Cl1      1.0000 0.04164  0.76975  0.52804  Biso   1.000  Cl
  Cl2      1.0000 0.54163  0.26975  0.52804  Biso   1.000  Cl
  Cl3      1.0000 0.95837  0.76975  0.97196  Biso   1.000  Cl
  Cl4      1.0000 0.45837  0.26975  0.97196  Biso   1.000  Cl
  Cl5      1.0000 0.95837  0.23025  0.47196  Biso   1.000  Cl
  Cl6      1.0000 0.45837  0.73025  0.47196  Biso   1.000  Cl
  Cl7      1.0000 0.04164  0.23025  0.02804  Biso   1.000  Cl
  Cl8      1.0000 0.54163  0.73025  0.02804  Biso   1.000  Cl
  O49      1.0000 0.01533  0.83030  0.59686  Biso   1.000  O
  O50      1.0000 0.51533  0.33030  0.59686  Biso   1.000  O
  O51      1.0000 0.98467  0.83030  0.90314  Biso   1.000  O
  O52      1.0000 0.48467  0.33030  0.90314  Biso   1.000  O
  O53      1.0000 0.98467  0.16970  0.40314  Biso   1.000  O
  O54      1.0000 0.48467  0.66970  0.40314  Biso   1.000  O
  O55      1.0000 0.01533  0.16970  0.09686  Biso   1.000  O
  O56      1.0000 0.51533  0.66970  0.09686  Biso   1.000  O
  O57      1.0000 0.02685  0.62963  0.50382  Biso   1.000  O
  O58      1.0000 0.52685  0.12963  0.50382  Biso   1.000  O
  O59      1.0000 0.97315  0.62963  0.99618  Biso   1.000  O
  O60      1.0000 0.47315  0.12963  0.99618  Biso   1.000  O
  O61      1.0000 0.97315  0.37037  0.49618  Biso   1.000  O
  O62      1.0000 0.47315  0.87037  0.49618  Biso   1.000  O
  O63      1.0000 0.02685  0.37037  0.00382  Biso   1.000  O
  O64      1.0000 0.52685  0.87037  0.00382  Biso   1.000  O
  O65      1.0000 0.08362  0.76196  0.56200  Biso   1.000  O
  O66      1.0000 0.58362  0.26196  0.56200  Biso   1.000  O
  O67      1.0000 0.91638  0.76196  0.93800  Biso   1.000  O
  O68      1.0000 0.41638  0.26196  0.93800  Biso   1.000  O
  O69      1.0000 0.91638  0.23804  0.43800  Biso   1.000  O
  O70      1.0000 0.41638  0.73804  0.43800  Biso   1.000  O
  O71      1.0000 0.08362  0.23804  0.06200  Biso   1.000  O
  O72      1.0000 0.58362  0.73804  0.06200  Biso   1.000  O
  O73      1.0000 0.03960  0.86060  0.44927  Biso   1.000  O
  O74      1.0000 0.53960  0.36060  0.44927  Biso   1.000  O
  O75      1.0000 0.96040  0.86060  0.05073  Biso   1.000  O
  O76      1.0000 0.46040  0.36060  0.05073  Biso   1.000  O
  O77      1.0000 0.96040  0.13940  0.55073  Biso   1.000  O
  O78      1.0000 0.46040  0.63940  0.55073  Biso   1.000  O
  O79      1.0000 0.03960  0.13940  0.94927  Biso   1.000  O
  O80      1.0000 0.53960  0.63940  0.94927  Biso   1.000  O
