data_image0
_cell_length_a       14.2264
_cell_length_b       18.2109
_cell_length_c       18.9638
_cell_angle_alpha    90
_cell_angle_beta     90
_cell_angle_gamma    90

_symmetry_space_group_name_H-M    "P 1"
_symmetry_int_tables_number       1

loop_
  _symmetry_equiv_pos_as_xyz
  'x, y, z'

loop_
  _atom_site_label
  _atom_site_occupancy
  _atom_site_fract_x
  _atom_site_fract_y
  _atom_site_fract_z
  _atom_site_thermal_displace_type
  _atom_site_B_iso_or_equiv
  _atom_site_type_symbol
  Cu1      1.0000 0.35434  0.08792  0.67121  Biso   1.000  Cu
  Cu2      1.0000 0.14566  0.91208  0.17121  Biso   1.000  Cu
  Cu3      1.0000 0.85434  0.41208  0.32879  Biso   1.000  Cu
  Cu4      1.0000 0.64566  0.58792  0.82879  Biso   1.000  Cu
  Cu5      1.0000 0.64566  0.91208  0.32879  Biso   1.000  Cu
  Cu6      1.0000 0.85434  0.08792  0.82879  Biso   1.000  Cu
  Cu7      1.0000 0.14566  0.58792  0.67121  Biso   1.000  Cu
  Cu8      1.0000 0.35434  0.41208  0.17121  Biso   1.000  Cu
  N1       1.0000 0.67240  0.41830  0.66060  Biso   1.000  N
  N2       1.0000 0.82760  0.58170  0.16060  Biso   1.000  N
  N3       1.0000 0.17240  0.08170  0.33940  Biso   1.000  N
  N4       1.0000 0.32760  0.91830  0.83940  Biso   1.000  N
  N5       1.0000 0.32760  0.58170  0.33940  Biso   1.000  N
  N6       1.0000 0.17240  0.41830  0.83940  Biso   1.000  N
  N7       1.0000 0.82760  0.91830  0.66060  Biso   1.000  N
  N8       1.0000 0.67240  0.08170  0.16060  Biso   1.000  N
  N9       1.0000 0.29280  0.17000  0.73080  Biso   1.000  N
  N10      1.0000 0.20720  0.83000  0.23080  Biso   1.000  N
  N11      1.0000 0.79280  0.33000  0.26920  Biso   1.000  N
  N12      1.0000 0.70720  0.67000  0.76920  Biso   1.000  N
  N13      1.0000 0.70720  0.83000  0.26920  Biso   1.000  N
  N14      1.0000 0.79280  0.17000  0.76920  Biso   1.000  N
  N15      1.0000 0.20720  0.67000  0.73080  Biso   1.000  N
  N16      1.0000 0.29280  0.33000  0.23080  Biso   1.000  N
  H1       1.0000 0.31070  0.16320  0.78030  Biso   1.000  H
  H2       1.0000 0.18930  0.83680  0.28030  Biso   1.000  H
  H3       1.0000 0.81070  0.33680  0.21970  Biso   1.000  H
  H4       1.0000 0.68930  0.66320  0.71970  Biso   1.000  H
  H5       1.0000 0.68930  0.83680  0.21970  Biso   1.000  H
  H6       1.0000 0.81070  0.16320  0.71970  Biso   1.000  H
  H7       1.0000 0.18930  0.66320  0.78030  Biso   1.000  H
  H8       1.0000 0.31070  0.33680  0.28030  Biso   1.000  H
  N17      1.0000 0.41510  0.18720  0.60920  Biso   1.000  N
  N18      1.0000 0.08490  0.81280  0.10920  Biso   1.000  N
  N19      1.0000 0.91510  0.31280  0.39080  Biso   1.000  N
  N20      1.0000 0.58490  0.68720  0.89080  Biso   1.000  N
  N21      1.0000 0.58490  0.81280  0.39080  Biso   1.000  N
  N22      1.0000 0.91510  0.18720  0.89080  Biso   1.000  N
  N23      1.0000 0.08490  0.68720  0.60920  Biso   1.000  N
  N24      1.0000 0.41510  0.31280  0.10920  Biso   1.000  N
  N25      1.0000 0.23180  0.08630  0.62710  Biso   1.000  N
  N26      1.0000 0.26820  0.91370  0.12710  Biso   1.000  N
  N27      1.0000 0.73180  0.41370  0.37290  Biso   1.000  N
  N28      1.0000 0.76820  0.58630  0.87290  Biso   1.000  N
  N29      1.0000 0.76820  0.91370  0.37290  Biso   1.000  N
  N30      1.0000 0.73180  0.08630  0.87290  Biso   1.000  N
  N31      1.0000 0.26820  0.58630  0.62710  Biso   1.000  N
  N32      1.0000 0.23180  0.41370  0.12710  Biso   1.000  N
  N33      1.0000 0.38940  0.02950  0.58200  Biso   1.000  N
  N34      1.0000 0.11060  0.97050  0.08200  Biso   1.000  N
  N35      1.0000 0.88940  0.47050  0.41800  Biso   1.000  N
  N36      1.0000 0.61060  0.52950  0.91800  Biso   1.000  N
  N37      1.0000 0.61060  0.97050  0.41800  Biso   1.000  N
  N38      1.0000 0.88940  0.02950  0.91800  Biso   1.000  N
  N39      1.0000 0.11060  0.52950  0.58200  Biso   1.000  N
  N40      1.0000 0.38940  0.47050  0.08200  Biso   1.000  N
  H9       1.0000 0.42840  0.98740  0.59570  Biso   1.000  H
  H10      1.0000 0.07160  0.01260  0.09570  Biso   1.000  H
  H11      1.0000 0.92840  0.51260  0.40430  Biso   1.000  H
  H12      1.0000 0.57160  0.48740  0.90430  Biso   1.000  H
  H13      1.0000 0.57160  0.01260  0.40430  Biso   1.000  H
  H14      1.0000 0.92840  0.98740  0.90430  Biso   1.000  H
  H15      1.0000 0.07160  0.48740  0.59570  Biso   1.000  H
  H16      1.0000 0.42840  0.51260  0.09570  Biso   1.000  H
  N41      1.0000 0.62060  0.31670  0.59770  Biso   1.000  N
  N42      1.0000 0.87940  0.68330  0.09770  Biso   1.000  N
  N43      1.0000 0.12060  0.18330  0.40230  Biso   1.000  N
  N44      1.0000 0.37940  0.81670  0.90230  Biso   1.000  N
  N45      1.0000 0.37940  0.68330  0.40230  Biso   1.000  N
  N46      1.0000 0.12060  0.31670  0.90230  Biso   1.000  N
  N47      1.0000 0.87940  0.81670  0.59770  Biso   1.000  N
  N48      1.0000 0.62060  0.18330  0.09770  Biso   1.000  N
  H17      1.0000 0.67860  0.30550  0.59080  Biso   1.000  H
  H18      1.0000 0.82140  0.69450  0.09080  Biso   1.000  H
  H19      1.0000 0.17860  0.19450  0.40920  Biso   1.000  H
  H20      1.0000 0.32140  0.80550  0.90920  Biso   1.000  H
  H21      1.0000 0.32140  0.69450  0.40920  Biso   1.000  H
  H22      1.0000 0.17860  0.30550  0.90920  Biso   1.000  H
  H23      1.0000 0.82140  0.80550  0.59080  Biso   1.000  H
  H24      1.0000 0.67860  0.19450  0.09080  Biso   1.000  H
  N49      1.0000 0.39580  0.45660  0.70100  Biso   1.000  N
  N50      1.0000 0.10420  0.54340  0.20100  Biso   1.000  N
  N51      1.0000 0.89580  0.04340  0.29900  Biso   1.000  N
  N52      1.0000 0.60420  0.95660  0.79900  Biso   1.000  N
  N53      1.0000 0.60420  0.54340  0.29900  Biso   1.000  N
  N54      1.0000 0.89580  0.45660  0.79900  Biso   1.000  N
  N55      1.0000 0.10420  0.95660  0.70100  Biso   1.000  N
  N56      1.0000 0.39580  0.04340  0.20100  Biso   1.000  N
  H25      1.0000 0.35480  0.42880  0.68100  Biso   1.000  H
  H26      1.0000 0.14520  0.57120  0.18100  Biso   1.000  H
  H27      1.0000 0.85480  0.07120  0.31900  Biso   1.000  H
  H28      1.0000 0.64520  0.92880  0.81900  Biso   1.000  H
  H29      1.0000 0.64520  0.57120  0.31900  Biso   1.000  H
  H30      1.0000 0.85480  0.42880  0.81900  Biso   1.000  H
  H31      1.0000 0.14520  0.92880  0.68100  Biso   1.000  H
  H32      1.0000 0.35480  0.07120  0.18100  Biso   1.000  H
  H33      1.0000 0.37790  0.49110  0.72890  Biso   1.000  H
  H34      1.0000 0.12210  0.50890  0.22890  Biso   1.000  H
  H35      1.0000 0.87790  0.00890  0.27110  Biso   1.000  H
  H36      1.0000 0.62210  0.99110  0.77110  Biso   1.000  H
  H37      1.0000 0.62210  0.50890  0.27110  Biso   1.000  H
  H38      1.0000 0.87790  0.49110  0.77110  Biso   1.000  H
  H39      1.0000 0.12210  0.99110  0.72890  Biso   1.000  H
  H40      1.0000 0.37790  0.00890  0.22890  Biso   1.000  H
  N57      1.0000 0.54220  0.54370  0.77110  Biso   1.000  N
  N58      1.0000 0.95780  0.45630  0.27110  Biso   1.000  N
  N59      1.0000 0.04220  0.95630  0.22890  Biso   1.000  N
  N60      1.0000 0.45780  0.04370  0.72890  Biso   1.000  N
  N61      1.0000 0.45780  0.45630  0.22890  Biso   1.000  N
  N62      1.0000 0.04220  0.54370  0.72890  Biso   1.000  N
  N63      1.0000 0.95780  0.04370  0.77110  Biso   1.000  N
  N64      1.0000 0.54220  0.95630  0.27110  Biso   1.000  N
  N65      1.0000 0.50910  0.39170  0.64500  Biso   1.000  N
  N66      1.0000 0.99090  0.60830  0.14500  Biso   1.000  N
  N67      1.0000 0.00910  0.10830  0.35500  Biso   1.000  N
  N68      1.0000 0.49090  0.89170  0.85500  Biso   1.000  N
  N69      1.0000 0.49090  0.60830  0.35500  Biso   1.000  N
  N70      1.0000 0.00910  0.39170  0.85500  Biso   1.000  N
  N71      1.0000 0.99090  0.89170  0.64500  Biso   1.000  N
  N72      1.0000 0.50910  0.10830  0.14500  Biso   1.000  N
  C1       1.0000 0.54580  0.26950  0.56820  Biso   1.000  C
  C2       1.0000 0.95420  0.73050  0.06820  Biso   1.000  C
  C3       1.0000 0.04580  0.23050  0.43180  Biso   1.000  C
  C4       1.0000 0.45420  0.76950  0.93180  Biso   1.000  C
  C5       1.0000 0.45420  0.73050  0.43180  Biso   1.000  C
  C6       1.0000 0.04580  0.26950  0.93180  Biso   1.000  C
  C7       1.0000 0.95420  0.76950  0.56820  Biso   1.000  C
  C8       1.0000 0.54580  0.23050  0.06820  Biso   1.000  C
  H41      1.0000 0.57000  0.24350  0.52750  Biso   1.000  H
  H42      1.0000 0.93000  0.75650  0.02750  Biso   1.000  H
  H43      1.0000 0.07000  0.25650  0.47250  Biso   1.000  H
  H44      1.0000 0.43000  0.74350  0.97250  Biso   1.000  H
  H45      1.0000 0.43000  0.75650  0.47250  Biso   1.000  H
  H46      1.0000 0.07000  0.24350  0.97250  Biso   1.000  H
  H47      1.0000 0.93000  0.74350  0.52750  Biso   1.000  H
  H48      1.0000 0.57000  0.25650  0.02750  Biso   1.000  H
  H49      1.0000 0.49380  0.30000  0.55270  Biso   1.000  H
  H50      1.0000 0.00620  0.70000  0.05270  Biso   1.000  H
  H51      1.0000 0.99380  0.20000  0.44730  Biso   1.000  H
  H52      1.0000 0.50620  0.80000  0.94730  Biso   1.000  H
  H53      1.0000 0.50620  0.70000  0.44730  Biso   1.000  H
  H54      1.0000 0.99380  0.30000  0.94730  Biso   1.000  H
  H55      1.0000 0.00620  0.80000  0.55270  Biso   1.000  H
  H56      1.0000 0.49380  0.20000  0.05270  Biso   1.000  H
  C9       1.0000 0.59940  0.37640  0.63490  Biso   1.000  C
  C10      1.0000 0.90060  0.62360  0.13490  Biso   1.000  C
  C11      1.0000 0.09940  0.12360  0.36510  Biso   1.000  C
  C12      1.0000 0.40060  0.87640  0.86510  Biso   1.000  C
  C13      1.0000 0.40060  0.62360  0.36510  Biso   1.000  C
  C14      1.0000 0.09940  0.37640  0.86510  Biso   1.000  C
  C15      1.0000 0.90060  0.87640  0.63490  Biso   1.000  C
  C16      1.0000 0.59940  0.12360  0.13490  Biso   1.000  C
  C17      1.0000 0.48640  0.44630  0.68890  Biso   1.000  C
  C18      1.0000 0.01360  0.55370  0.18890  Biso   1.000  C
  C19      1.0000 0.98640  0.05370  0.31110  Biso   1.000  C
  C20      1.0000 0.51360  0.94630  0.81110  Biso   1.000  C
  C21      1.0000 0.51360  0.55370  0.31110  Biso   1.000  C
  C22      1.0000 0.98640  0.44630  0.81110  Biso   1.000  C
  C23      1.0000 0.01360  0.94630  0.68890  Biso   1.000  C
  C24      1.0000 0.48640  0.05370  0.18890  Biso   1.000  C
  C25      1.0000 0.16290  0.12620  0.65620  Biso   1.000  C
  C26      1.0000 0.33710  0.87380  0.15620  Biso   1.000  C
  C27      1.0000 0.66290  0.37380  0.34380  Biso   1.000  C
  C28      1.0000 0.83710  0.62620  0.84380  Biso   1.000  C
  C29      1.0000 0.83710  0.87380  0.34380  Biso   1.000  C
  C30      1.0000 0.66290  0.12620  0.84380  Biso   1.000  C
  C31      1.0000 0.33710  0.62620  0.65620  Biso   1.000  C
  C32      1.0000 0.16290  0.37380  0.15620  Biso   1.000  C
  C33      1.0000 0.34400  0.24400  0.62700  Biso   1.000  C
  C34      1.0000 0.15600  0.75600  0.12700  Biso   1.000  C
  C35      1.0000 0.84400  0.25600  0.37300  Biso   1.000  C
  C36      1.0000 0.65600  0.74400  0.87300  Biso   1.000  C
  C37      1.0000 0.65600  0.75600  0.37300  Biso   1.000  C
  C38      1.0000 0.84400  0.24400  0.87300  Biso   1.000  C
  C39      1.0000 0.15600  0.74400  0.62700  Biso   1.000  C
  C40      1.0000 0.34400  0.25600  0.12700  Biso   1.000  C
  H57      1.0000 0.28550  0.23370  0.60260  Biso   1.000  H
  H58      1.0000 0.21450  0.76630  0.10260  Biso   1.000  H
  H59      1.0000 0.78550  0.26630  0.39740  Biso   1.000  H
  H60      1.0000 0.71450  0.73370  0.89740  Biso   1.000  H
  H61      1.0000 0.71450  0.76630  0.39740  Biso   1.000  H
  H62      1.0000 0.78550  0.23370  0.89740  Biso   1.000  H
  H63      1.0000 0.21450  0.73370  0.60260  Biso   1.000  H
  H64      1.0000 0.28550  0.26630  0.10260  Biso   1.000  H
  H65      1.0000 0.36610  0.29200  0.61250  Biso   1.000  H
  H66      1.0000 0.13390  0.70800  0.11250  Biso   1.000  H
  H67      1.0000 0.86610  0.20800  0.38750  Biso   1.000  H
  H68      1.0000 0.63390  0.79200  0.88750  Biso   1.000  H
  H69      1.0000 0.63390  0.70800  0.38750  Biso   1.000  H
  H70      1.0000 0.86610  0.29200  0.88750  Biso   1.000  H
  H71      1.0000 0.13390  0.79200  0.61250  Biso   1.000  H
  H72      1.0000 0.36610  0.20800  0.11250  Biso   1.000  H
  C41      1.0000 0.51050  0.21430  0.62250  Biso   1.000  C
  C42      1.0000 0.98950  0.78570  0.12250  Biso   1.000  C
  C43      1.0000 0.01050  0.28570  0.37750  Biso   1.000  C
  C44      1.0000 0.48950  0.71430  0.87750  Biso   1.000  C
  C45      1.0000 0.48950  0.78570  0.37750  Biso   1.000  C
  C46      1.0000 0.01050  0.21430  0.87750  Biso   1.000  C
  C47      1.0000 0.98950  0.71430  0.62250  Biso   1.000  C
  C48      1.0000 0.51050  0.28570  0.12250  Biso   1.000  C
  H73      1.0000 0.55320  0.17270  0.62340  Biso   1.000  H
  H74      1.0000 0.94680  0.82730  0.12340  Biso   1.000  H
  H75      1.0000 0.05320  0.32730  0.37660  Biso   1.000  H
  H76      1.0000 0.44680  0.67270  0.87660  Biso   1.000  H
  H77      1.0000 0.44680  0.82730  0.37660  Biso   1.000  H
  H78      1.0000 0.05320  0.17270  0.87660  Biso   1.000  H
  H79      1.0000 0.94680  0.67270  0.62340  Biso   1.000  H
  H80      1.0000 0.55320  0.32730  0.12340  Biso   1.000  H
  H81      1.0000 0.51200  0.23700  0.66870  Biso   1.000  H
  H82      1.0000 0.98800  0.76300  0.16870  Biso   1.000  H
  H83      1.0000 0.01200  0.26300  0.33130  Biso   1.000  H
  H84      1.0000 0.48800  0.73700  0.83130  Biso   1.000  H
  H85      1.0000 0.48800  0.76300  0.33130  Biso   1.000  H
  H86      1.0000 0.01200  0.23700  0.83130  Biso   1.000  H
  H87      1.0000 0.98800  0.73700  0.66870  Biso   1.000  H
  H88      1.0000 0.51200  0.26300  0.16870  Biso   1.000  H
  C49      1.0000 0.32800  0.24280  0.70650  Biso   1.000  C
  C50      1.0000 0.17200  0.75720  0.20650  Biso   1.000  C
  C51      1.0000 0.82800  0.25720  0.29350  Biso   1.000  C
  C52      1.0000 0.67200  0.74280  0.79350  Biso   1.000  C
  C53      1.0000 0.67200  0.75720  0.29350  Biso   1.000  C
  C54      1.0000 0.82800  0.24280  0.79350  Biso   1.000  C
  C55      1.0000 0.17200  0.74280  0.70650  Biso   1.000  C
  C56      1.0000 0.32800  0.25720  0.20650  Biso   1.000  C
  H89      1.0000 0.38660  0.25400  0.73040  Biso   1.000  H
  H90      1.0000 0.11340  0.74600  0.23040  Biso   1.000  H
  H91      1.0000 0.88660  0.24600  0.26960  Biso   1.000  H
  H92      1.0000 0.61340  0.75400  0.76960  Biso   1.000  H
  H93      1.0000 0.61340  0.74600  0.26960  Biso   1.000  H
  H94      1.0000 0.88660  0.25400  0.76960  Biso   1.000  H
  H95      1.0000 0.11340  0.75400  0.73040  Biso   1.000  H
  H96      1.0000 0.38660  0.24600  0.23040  Biso   1.000  H
  H97      1.0000 0.28270  0.28050  0.71890  Biso   1.000  H
  H98      1.0000 0.21730  0.71950  0.21890  Biso   1.000  H
  H99      1.0000 0.78270  0.21950  0.28110  Biso   1.000  H
  H100     1.0000 0.71730  0.78050  0.78110  Biso   1.000  H
  H101     1.0000 0.71730  0.71950  0.28110  Biso   1.000  H
  H102     1.0000 0.78270  0.28050  0.78110  Biso   1.000  H
  H103     1.0000 0.21730  0.78050  0.71890  Biso   1.000  H
  H104     1.0000 0.28270  0.21950  0.21890  Biso   1.000  H
  C57      1.0000 0.40580  0.15640  0.53760  Biso   1.000  C
  C58      1.0000 0.09420  0.84360  0.03760  Biso   1.000  C
  C59      1.0000 0.90580  0.34360  0.46240  Biso   1.000  C
  C60      1.0000 0.59420  0.65640  0.96240  Biso   1.000  C
  C61      1.0000 0.59420  0.84360  0.46240  Biso   1.000  C
  C62      1.0000 0.90580  0.15640  0.96240  Biso   1.000  C
  C63      1.0000 0.09420  0.65640  0.53760  Biso   1.000  C
  C64      1.0000 0.40580  0.34360  0.03760  Biso   1.000  C
  H105     1.0000 0.43960  0.18700  0.50420  Biso   1.000  H
  H106     1.0000 0.06040  0.81300  0.00420  Biso   1.000  H
  H107     1.0000 0.93960  0.31300  0.49580  Biso   1.000  H
  H108     1.0000 0.56040  0.68700  0.99580  Biso   1.000  H
  H109     1.0000 0.56040  0.81300  0.49580  Biso   1.000  H
  H110     1.0000 0.93960  0.18700  0.99580  Biso   1.000  H
  H111     1.0000 0.06040  0.68700  0.50420  Biso   1.000  H
  H112     1.0000 0.43960  0.31300  0.00420  Biso   1.000  H
  H113     1.0000 0.34010  0.15540  0.52390  Biso   1.000  H
  H114     1.0000 0.15990  0.84460  0.02390  Biso   1.000  H
  H115     1.0000 0.84010  0.34460  0.47610  Biso   1.000  H
  H116     1.0000 0.65990  0.65540  0.97610  Biso   1.000  H
  H117     1.0000 0.65990  0.84460  0.47610  Biso   1.000  H
  H118     1.0000 0.84010  0.15540  0.97610  Biso   1.000  H
  H119     1.0000 0.15990  0.65540  0.52390  Biso   1.000  H
  H120     1.0000 0.34010  0.34460  0.02390  Biso   1.000  H
  C65      1.0000 0.21890  0.04690  0.56850  Biso   1.000  C
  C66      1.0000 0.28110  0.95310  0.06850  Biso   1.000  C
  C67      1.0000 0.71890  0.45310  0.43150  Biso   1.000  C
  C68      1.0000 0.78110  0.54690  0.93150  Biso   1.000  C
  C69      1.0000 0.78110  0.95310  0.43150  Biso   1.000  C
  C70      1.0000 0.71890  0.04690  0.93150  Biso   1.000  C
  C71      1.0000 0.28110  0.54690  0.56850  Biso   1.000  C
  C72      1.0000 0.21890  0.45310  0.06850  Biso   1.000  C
  C73      1.0000 0.30270  0.00190  0.54700  Biso   1.000  C
  C74      1.0000 0.19730  0.99810  0.04700  Biso   1.000  C
  C75      1.0000 0.80270  0.49810  0.45300  Biso   1.000  C
  C76      1.0000 0.69730  0.50190  0.95300  Biso   1.000  C
  C77      1.0000 0.69730  0.99810  0.45300  Biso   1.000  C
  C78      1.0000 0.80270  0.00190  0.95300  Biso   1.000  C
  C79      1.0000 0.19730  0.50190  0.54700  Biso   1.000  C
  C80      1.0000 0.30270  0.49810  0.04700  Biso   1.000  C
  H121     1.0000 0.29250  0.95100  0.56000  Biso   1.000  H
  H122     1.0000 0.20750  0.04900  0.06000  Biso   1.000  H
  H123     1.0000 0.79250  0.54900  0.44000  Biso   1.000  H
  H124     1.0000 0.70750  0.45100  0.94000  Biso   1.000  H
  H125     1.0000 0.70750  0.04900  0.44000  Biso   1.000  H
  H126     1.0000 0.79250  0.95100  0.94000  Biso   1.000  H
  H127     1.0000 0.20750  0.45100  0.56000  Biso   1.000  H
  H128     1.0000 0.29250  0.54900  0.06000  Biso   1.000  H
  H129     1.0000 0.31040  0.00430  0.49630  Biso   1.000  H
  H130     1.0000 0.18960  0.99570  0.99630  Biso   1.000  H
  H131     1.0000 0.81040  0.49570  0.50370  Biso   1.000  H
  H132     1.0000 0.68960  0.50430  0.00370  Biso   1.000  H
  H133     1.0000 0.68960  0.99570  0.50370  Biso   1.000  H
  H134     1.0000 0.81040  0.00430  0.00370  Biso   1.000  H
  H135     1.0000 0.18960  0.50430  0.49630  Biso   1.000  H
  H136     1.0000 0.31040  0.49570  0.99630  Biso   1.000  H
  C81      1.0000 0.65670  0.47550  0.70860  Biso   1.000  C
  C82      1.0000 0.84330  0.52450  0.20860  Biso   1.000  C
  C83      1.0000 0.15670  0.02450  0.29140  Biso   1.000  C
  C84      1.0000 0.34330  0.97550  0.79140  Biso   1.000  C
  C85      1.0000 0.34330  0.52450  0.29140  Biso   1.000  C
  C86      1.0000 0.15670  0.47550  0.79140  Biso   1.000  C
  C87      1.0000 0.84330  0.97550  0.70860  Biso   1.000  C
  C88      1.0000 0.65670  0.02450  0.20860  Biso   1.000  C
  C89      1.0000 0.44570  0.07890  0.53640  Biso   1.000  C
  C90      1.0000 0.05430  0.92110  0.03640  Biso   1.000  C
  C91      1.0000 0.94570  0.42110  0.46360  Biso   1.000  C
  C92      1.0000 0.55430  0.57890  0.96360  Biso   1.000  C
  C93      1.0000 0.55430  0.92110  0.46360  Biso   1.000  C
  C94      1.0000 0.94570  0.07890  0.96360  Biso   1.000  C
  C95      1.0000 0.05430  0.57890  0.53640  Biso   1.000  C
  C96      1.0000 0.44570  0.42110  0.03640  Biso   1.000  C
  H137     1.0000 0.44540  0.06040  0.48840  Biso   1.000  H
  H138     1.0000 0.05460  0.93960  0.98840  Biso   1.000  H
  H139     1.0000 0.94540  0.43960  0.51160  Biso   1.000  H
  H140     1.0000 0.55460  0.56040  0.01160  Biso   1.000  H
  H141     1.0000 0.55460  0.93960  0.51160  Biso   1.000  H
  H142     1.0000 0.94540  0.06040  0.01160  Biso   1.000  H
  H143     1.0000 0.05460  0.56040  0.48840  Biso   1.000  H
  H144     1.0000 0.44540  0.43960  0.98840  Biso   1.000  H
  H145     1.0000 0.51030  0.07980  0.55280  Biso   1.000  H
  H146     1.0000 0.98970  0.92020  0.05280  Biso   1.000  H
  H147     1.0000 0.01030  0.42020  0.44720  Biso   1.000  H
  H148     1.0000 0.48970  0.57980  0.94720  Biso   1.000  H
  H149     1.0000 0.48970  0.92020  0.44720  Biso   1.000  H
  H150     1.0000 0.01030  0.07980  0.94720  Biso   1.000  H
  H151     1.0000 0.98970  0.57980  0.55280  Biso   1.000  H
  H152     1.0000 0.51030  0.42020  0.05280  Biso   1.000  H
  C97      1.0000 0.18970  0.16220  0.72450  Biso   1.000  C
  C98      1.0000 0.31030  0.83780  0.22450  Biso   1.000  C
  C99      1.0000 0.68970  0.33780  0.27550  Biso   1.000  C
  C100     1.0000 0.81030  0.66220  0.77550  Biso   1.000  C
  C101     1.0000 0.81030  0.83780  0.27550  Biso   1.000  C
  C102     1.0000 0.68970  0.16220  0.77550  Biso   1.000  C
  C103     1.0000 0.31030  0.66220  0.72450  Biso   1.000  C
  C104     1.0000 0.18970  0.33780  0.22450  Biso   1.000  C
  H153     1.0000 0.16070  0.21030  0.72720  Biso   1.000  H
  H154     1.0000 0.33930  0.78970  0.22720  Biso   1.000  H
  H155     1.0000 0.66070  0.28970  0.27280  Biso   1.000  H
  H156     1.0000 0.83930  0.71030  0.77280  Biso   1.000  H
  H157     1.0000 0.83930  0.78970  0.27280  Biso   1.000  H
  H158     1.0000 0.66070  0.21030  0.77280  Biso   1.000  H
  H159     1.0000 0.33930  0.71030  0.72720  Biso   1.000  H
  H160     1.0000 0.16070  0.28970  0.22720  Biso   1.000  H
  H161     1.0000 0.16630  0.13300  0.76350  Biso   1.000  H
  H162     1.0000 0.33370  0.86700  0.26350  Biso   1.000  H
  H163     1.0000 0.66630  0.36700  0.23650  Biso   1.000  H
  H164     1.0000 0.83370  0.63300  0.73650  Biso   1.000  H
  H165     1.0000 0.83370  0.86700  0.23650  Biso   1.000  H
  H166     1.0000 0.66630  0.13300  0.73650  Biso   1.000  H
  H167     1.0000 0.33370  0.63300  0.76350  Biso   1.000  H
  H168     1.0000 0.16630  0.36700  0.26350  Biso   1.000  H
  C105     1.0000 0.55750  0.49030  0.72250  Biso   1.000  C
  C106     1.0000 0.94250  0.50970  0.22250  Biso   1.000  C
  C107     1.0000 0.05750  0.00970  0.27750  Biso   1.000  C
  C108     1.0000 0.44250  0.99030  0.77750  Biso   1.000  C
  C109     1.0000 0.44250  0.50970  0.27750  Biso   1.000  C
  C110     1.0000 0.05750  0.49030  0.77750  Biso   1.000  C
  C111     1.0000 0.94250  0.99030  0.72250  Biso   1.000  C
  C112     1.0000 0.55750  0.00970  0.22250  Biso   1.000  C
  C113     1.0000 0.13300  0.04630  0.53440  Biso   1.000  C
  C114     1.0000 0.36700  0.95370  0.03440  Biso   1.000  C
  C115     1.0000 0.63300  0.45370  0.46560  Biso   1.000  C
  C116     1.0000 0.86700  0.54630  0.96560  Biso   1.000  C
  C117     1.0000 0.86700  0.95370  0.46560  Biso   1.000  C
  C118     1.0000 0.63300  0.04630  0.96560  Biso   1.000  C
  C119     1.0000 0.36700  0.54630  0.53440  Biso   1.000  C
  C120     1.0000 0.13300  0.45370  0.03440  Biso   1.000  C
  H169     1.0000 0.12370  0.01910  0.49350  Biso   1.000  H
  H170     1.0000 0.37630  0.98090  0.99350  Biso   1.000  H
  H171     1.0000 0.62370  0.48090  0.50650  Biso   1.000  H
  H172     1.0000 0.87630  0.51910  0.00650  Biso   1.000  H
  H173     1.0000 0.87630  0.98090  0.50650  Biso   1.000  H
  H174     1.0000 0.62370  0.01910  0.00650  Biso   1.000  H
  H175     1.0000 0.37630  0.51910  0.49350  Biso   1.000  H
  H176     1.0000 0.12370  0.48090  0.99350  Biso   1.000  H
  C121     1.0000 0.77100  0.40090  0.64290  Biso   1.000  C
  C122     1.0000 0.72900  0.59910  0.14290  Biso   1.000  C
  C123     1.0000 0.27100  0.09910  0.35710  Biso   1.000  C
  C124     1.0000 0.22900  0.90090  0.85710  Biso   1.000  C
  C125     1.0000 0.22900  0.59910  0.35710  Biso   1.000  C
  C126     1.0000 0.27100  0.40090  0.85710  Biso   1.000  C
  C127     1.0000 0.72900  0.90090  0.64290  Biso   1.000  C
  C128     1.0000 0.77100  0.09910  0.14290  Biso   1.000  C
  H177     1.0000 0.81190  0.43570  0.66530  Biso   1.000  H
  H178     1.0000 0.68810  0.56430  0.16530  Biso   1.000  H
  H179     1.0000 0.31190  0.06430  0.33470  Biso   1.000  H
  H180     1.0000 0.18810  0.93570  0.83470  Biso   1.000  H
  H181     1.0000 0.18810  0.56430  0.33470  Biso   1.000  H
  H182     1.0000 0.31190  0.43570  0.83470  Biso   1.000  H
  H183     1.0000 0.68810  0.93570  0.66530  Biso   1.000  H
  H184     1.0000 0.81190  0.06430  0.16530  Biso   1.000  H
  H185     1.0000 0.78580  0.35230  0.65910  Biso   1.000  H
  H186     1.0000 0.71420  0.64770  0.15910  Biso   1.000  H
  H187     1.0000 0.28580  0.14770  0.34090  Biso   1.000  H
  H188     1.0000 0.21420  0.85230  0.84090  Biso   1.000  H
  H189     1.0000 0.21420  0.64770  0.34090  Biso   1.000  H
  H190     1.0000 0.28580  0.35230  0.84090  Biso   1.000  H
  H191     1.0000 0.71420  0.85230  0.65910  Biso   1.000  H
  H192     1.0000 0.78580  0.14770  0.15910  Biso   1.000  H
  H193     1.0000 0.77940  0.40340  0.59270  Biso   1.000  H
  H194     1.0000 0.72060  0.59660  0.09270  Biso   1.000  H
  H195     1.0000 0.27940  0.09660  0.40730  Biso   1.000  H
  H196     1.0000 0.22060  0.90340  0.90730  Biso   1.000  H
  H197     1.0000 0.22060  0.59660  0.40730  Biso   1.000  H
  H198     1.0000 0.27940  0.40340  0.90730  Biso   1.000  H
  H199     1.0000 0.72060  0.90340  0.59270  Biso   1.000  H
  H200     1.0000 0.77940  0.09660  0.09270  Biso   1.000  H
  C129     1.0000 0.07460  0.12830  0.62430  Biso   1.000  C
  C130     1.0000 0.42540  0.87170  0.12430  Biso   1.000  C
  C131     1.0000 0.57460  0.37170  0.37570  Biso   1.000  C
  C132     1.0000 0.92540  0.62830  0.87570  Biso   1.000  C
  C133     1.0000 0.92540  0.87170  0.37570  Biso   1.000  C
  C134     1.0000 0.57460  0.12830  0.87570  Biso   1.000  C
  C135     1.0000 0.42540  0.62830  0.62430  Biso   1.000  C
  C136     1.0000 0.07460  0.37170  0.12430  Biso   1.000  C
  H201     1.0000 0.02620  0.15620  0.64350  Biso   1.000  H
  H202     1.0000 0.47380  0.84380  0.14350  Biso   1.000  H
  H203     1.0000 0.52620  0.34380  0.35650  Biso   1.000  H
  H204     1.0000 0.97380  0.65620  0.85650  Biso   1.000  H
  H205     1.0000 0.97380  0.84380  0.35650  Biso   1.000  H
  H206     1.0000 0.52620  0.15620  0.85650  Biso   1.000  H
  H207     1.0000 0.47380  0.65620  0.64350  Biso   1.000  H
  H208     1.0000 0.02620  0.34380  0.14350  Biso   1.000  H
  C137     1.0000 0.06080  0.08820  0.56400  Biso   1.000  C
  C138     1.0000 0.43920  0.91180  0.06400  Biso   1.000  C
  C139     1.0000 0.56080  0.41180  0.43600  Biso   1.000  C
  C140     1.0000 0.93920  0.58820  0.93600  Biso   1.000  C
  C141     1.0000 0.93920  0.91180  0.43600  Biso   1.000  C
  C142     1.0000 0.56080  0.08820  0.93600  Biso   1.000  C
  C143     1.0000 0.43920  0.58820  0.56400  Biso   1.000  C
  C144     1.0000 0.06080  0.41180  0.06400  Biso   1.000  C
  H209     1.0000 0.00220  0.08890  0.54230  Biso   1.000  H
  H210     1.0000 0.49780  0.91110  0.04230  Biso   1.000  H
  H211     1.0000 0.50220  0.41110  0.45770  Biso   1.000  H
  H212     1.0000 0.99780  0.58890  0.95770  Biso   1.000  H
  H213     1.0000 0.99780  0.91110  0.45770  Biso   1.000  H
  H214     1.0000 0.50220  0.08890  0.95770  Biso   1.000  H
  H215     1.0000 0.49780  0.58890  0.54230  Biso   1.000  H
  H216     1.0000 0.00220  0.41110  0.04230  Biso   1.000  H
  O1       1.0000 0.72130  0.50800  0.73530  Biso   1.000  O
  O2       1.0000 0.77870  0.49200  0.23530  Biso   1.000  O
  O3       1.0000 0.22130  0.99200  0.26470  Biso   1.000  O
  O4       1.0000 0.27870  0.00800  0.76470  Biso   1.000  O
  O5       1.0000 0.27870  0.49200  0.26470  Biso   1.000  O
  O6       1.0000 0.22130  0.50800  0.76470  Biso   1.000  O
  O7       1.0000 0.77870  0.00800  0.73530  Biso   1.000  O
  O8       1.0000 0.72130  0.99200  0.23530  Biso   1.000  O
  O9       1.0000 0.45880  0.55790  0.78930  Biso   1.000  O
  O10      1.0000 0.04120  0.44210  0.28930  Biso   1.000  O
  O11      1.0000 0.95880  0.94210  0.21070  Biso   1.000  O
  O12      1.0000 0.54120  0.05790  0.71070  Biso   1.000  O
  O13      1.0000 0.54120  0.44210  0.21070  Biso   1.000  O
  O14      1.0000 0.95880  0.55790  0.71070  Biso   1.000  O
  O15      1.0000 0.04120  0.05790  0.78930  Biso   1.000  O
  O16      1.0000 0.45880  0.94210  0.28930  Biso   1.000  O
  Cl1      1.0000 0.29363  0.15595  0.93159  Biso   1.000  Cl
  Cl2      1.0000 0.20637  0.84405  0.43159  Biso   1.000  Cl
  Cl3      1.0000 0.79363  0.34405  0.06841  Biso   1.000  Cl
  Cl4      1.0000 0.70637  0.65595  0.56841  Biso   1.000  Cl
  Cl5      1.0000 0.70637  0.84405  0.06841  Biso   1.000  Cl
  Cl6      1.0000 0.79363  0.15595  0.56841  Biso   1.000  Cl
  Cl7      1.0000 0.20637  0.65595  0.93159  Biso   1.000  Cl
  Cl8      1.0000 0.29363  0.34405  0.43159  Biso   1.000  Cl
  O17      1.0000 0.33700  0.13310  0.99530  Biso   1.000  O
  O18      1.0000 0.16300  0.86690  0.49530  Biso   1.000  O
  O19      1.0000 0.83700  0.36690  0.00470  Biso   1.000  O
  O20      1.0000 0.66300  0.63310  0.50470  Biso   1.000  O
  O21      1.0000 0.66300  0.86690  0.00470  Biso   1.000  O
  O22      1.0000 0.83700  0.13310  0.50470  Biso   1.000  O
  O23      1.0000 0.16300  0.63310  0.99530  Biso   1.000  O
  O24      1.0000 0.33700  0.36690  0.49530  Biso   1.000  O
  O25      1.0000 0.20540  0.12420  0.92180  Biso   1.000  O
  O26      1.0000 0.29460  0.87580  0.42180  Biso   1.000  O
  O27      1.0000 0.70540  0.37580  0.07820  Biso   1.000  O
  O28      1.0000 0.79460  0.62420  0.57820  Biso   1.000  O
  O29      1.0000 0.79460  0.87580  0.07820  Biso   1.000  O
  O30      1.0000 0.70540  0.12420  0.57820  Biso   1.000  O
  O31      1.0000 0.29460  0.62420  0.92180  Biso   1.000  O
  O32      1.0000 0.20540  0.37580  0.42180  Biso   1.000  O
  O33      1.0000 0.28480  0.23130  0.93040  Biso   1.000  O
  O34      1.0000 0.21520  0.76870  0.43040  Biso   1.000  O
  O35      1.0000 0.78480  0.26870  0.06960  Biso   1.000  O
  O36      1.0000 0.71520  0.73130  0.56960  Biso   1.000  O
  O37      1.0000 0.71520  0.76870  0.06960  Biso   1.000  O
  O38      1.0000 0.78480  0.23130  0.56960  Biso   1.000  O
  O39      1.0000 0.21520  0.73130  0.93040  Biso   1.000  O
  O40      1.0000 0.28480  0.26870  0.43040  Biso   1.000  O
  O41      1.0000 0.35050  0.13190  0.87700  Biso   1.000  O
  O42      1.0000 0.14950  0.86810  0.37700  Biso   1.000  O
  O43      1.0000 0.85050  0.36810  0.12300  Biso   1.000  O
  O44      1.0000 0.64950  0.63190  0.62300  Biso   1.000  O
  O45      1.0000 0.64950  0.86810  0.12300  Biso   1.000  O
  O46      1.0000 0.85050  0.13190  0.62300  Biso   1.000  O
  O47      1.0000 0.14950  0.63190  0.87700  Biso   1.000  O
  O48      1.0000 0.35050  0.36810  0.37700  Biso   1.000  O
  Cl9      1.0000 0.43001  0.84282  0.65112  Biso   1.000  Cl
  Cl10     1.0000 0.06999  0.15718  0.15112  Biso   1.000  Cl
  Cl11     1.0000 0.93001  0.65718  0.34888  Biso   1.000  Cl
  Cl12     1.0000 0.56999  0.34282  0.84888  Biso   1.000  Cl
  Cl13     1.0000 0.56999  0.15718  0.34888  Biso   1.000  Cl
  Cl14     1.0000 0.93001  0.84282  0.84888  Biso   1.000  Cl
  Cl15     1.0000 0.06999  0.34282  0.65112  Biso   1.000  Cl
  Cl16     1.0000 0.43001  0.65718  0.15112  Biso   1.000  Cl
  O49      1.0000 0.49590  0.89940  0.63320  Biso   1.000  O
  O50      1.0000 0.00410  0.10060  0.13320  Biso   1.000  O
  O51      1.0000 0.99590  0.60060  0.36680  Biso   1.000  O
  O52      1.0000 0.50410  0.39940  0.86680  Biso   1.000  O
  O53      1.0000 0.50410  0.10060  0.36680  Biso   1.000  O
  O54      1.0000 0.99590  0.89940  0.86680  Biso   1.000  O
  O55      1.0000 0.00410  0.39940  0.63320  Biso   1.000  O
  O56      1.0000 0.49590  0.60060  0.13320  Biso   1.000  O
  O57      1.0000 0.40770  0.79800  0.59320  Biso   1.000  O
  O58      1.0000 0.09230  0.20200  0.09320  Biso   1.000  O
  O59      1.0000 0.90770  0.70200  0.40680  Biso   1.000  O
  O60      1.0000 0.59230  0.29800  0.90680  Biso   1.000  O
  O61      1.0000 0.59230  0.20200  0.40680  Biso   1.000  O
  O62      1.0000 0.90770  0.79800  0.90680  Biso   1.000  O
  O63      1.0000 0.09230  0.29800  0.59320  Biso   1.000  O
  O64      1.0000 0.40770  0.70200  0.09320  Biso   1.000  O
  O65      1.0000 0.46120  0.80450  0.70950  Biso   1.000  O
  O66      1.0000 0.03880  0.19550  0.20950  Biso   1.000  O
  O67      1.0000 0.96120  0.69550  0.29050  Biso   1.000  O
  O68      1.0000 0.53880  0.30450  0.79050  Biso   1.000  O
  O69      1.0000 0.53880  0.19550  0.29050  Biso   1.000  O
  O70      1.0000 0.96120  0.80450  0.79050  Biso   1.000  O
  O71      1.0000 0.03880  0.30450  0.70950  Biso   1.000  O
  O72      1.0000 0.46120  0.69550  0.20950  Biso   1.000  O
  O73      1.0000 0.34140  0.87790  0.67250  Biso   1.000  O
  O74      1.0000 0.15860  0.12210  0.17250  Biso   1.000  O
  O75      1.0000 0.84140  0.62210  0.32750  Biso   1.000  O
  O76      1.0000 0.65860  0.37790  0.82750  Biso   1.000  O
  O77      1.0000 0.65860  0.12210  0.32750  Biso   1.000  O
  O78      1.0000 0.84140  0.87790  0.82750  Biso   1.000  O
  O79      1.0000 0.15860  0.37790  0.67250  Biso   1.000  O
  O80      1.0000 0.34140  0.62210  0.17250  Biso   1.000  O
