data_image0
_cell_length_a       12.006
_cell_length_b       18.014
_cell_length_c       18.953
_cell_angle_alpha    90
_cell_angle_beta     93.81
_cell_angle_gamma    90

_symmetry_space_group_name_H-M    "P 1"
_symmetry_int_tables_number       1

loop_
  _symmetry_equiv_pos_as_xyz
  'x, y, z'

loop_
  _atom_site_label
  _atom_site_occupancy
  _atom_site_fract_x
  _atom_site_fract_y
  _atom_site_fract_z
  _atom_site_thermal_displace_type
  _atom_site_B_iso_or_equiv
  _atom_site_type_symbol
  Cu1      1.0000 0.76691  0.71295  0.69708  Biso   1.000  Cu
  Cu2      1.0000 0.73309  0.21295  0.80292  Biso   1.000  Cu
  Cu3      1.0000 0.23309  0.28705  0.30292  Biso   1.000  Cu
  Cu4      1.0000 0.26691  0.78705  0.19708  Biso   1.000  Cu
  S1       1.0000 0.42811  0.02560  0.35577  Biso   1.000  S
  S2       1.0000 0.07189  0.52560  0.14423  Biso   1.000  S
  S3       1.0000 0.57189  0.97440  0.64423  Biso   1.000  S
  S4       1.0000 0.92811  0.47440  0.85577  Biso   1.000  S
  N1       1.0000 0.60050  0.70747  0.66712  Biso   1.000  N
  N2       1.0000 0.89950  0.20747  0.83288  Biso   1.000  N
  N3       1.0000 0.39950  0.29253  0.33288  Biso   1.000  N
  N4       1.0000 0.10050  0.79253  0.16712  Biso   1.000  N
  N5       1.0000 0.43060  0.65630  0.65925  Biso   1.000  N
  N6       1.0000 0.06940  0.15630  0.84075  Biso   1.000  N
  N7       1.0000 0.56940  0.34370  0.34075  Biso   1.000  N
  N8       1.0000 0.93060  0.84370  0.15925  Biso   1.000  N
  N9       1.0000 0.42810  0.72531  0.63027  Biso   1.000  N
  N10      1.0000 0.07190  0.22531  0.86973  Biso   1.000  N
  N11      1.0000 0.57190  0.27469  0.36973  Biso   1.000  N
  N12      1.0000 0.92810  0.77469  0.13027  Biso   1.000  N
  N13      1.0000 0.19400  0.76260  0.40945  Biso   1.000  N
  N14      1.0000 0.30600  0.26260  0.09055  Biso   1.000  N
  N15      1.0000 0.80600  0.23740  0.59055  Biso   1.000  N
  N16      1.0000 0.69400  0.73740  0.90945  Biso   1.000  N
  N17      1.0000 0.13140  0.70630  0.38003  Biso   1.000  N
  N18      1.0000 0.36860  0.20630  0.11997  Biso   1.000  N
  N19      1.0000 0.86860  0.29370  0.61997  Biso   1.000  N
  N20      1.0000 0.63140  0.79370  0.88003  Biso   1.000  N
  N21      1.0000 0.22220  0.76584  0.29663  Biso   1.000  N
  N22      1.0000 0.27780  0.26584  0.20337  Biso   1.000  N
  N23      1.0000 0.77780  0.23416  0.70337  Biso   1.000  N
  N24      1.0000 0.72220  0.73416  0.79663  Biso   1.000  N
  N25      1.0000 0.80390  0.70503  0.59482  Biso   1.000  N
  N26      1.0000 0.69610  0.20503  0.90518  Biso   1.000  N
  N27      1.0000 0.19610  0.29497  0.40518  Biso   1.000  N
  N28      1.0000 0.30390  0.79497  0.09482  Biso   1.000  N
  N29      1.0000 0.88570  0.66990  0.49741  Biso   1.000  N
  N30      1.0000 0.61430  0.16990  0.00259  Biso   1.000  N
  N31      1.0000 0.11430  0.33010  0.50259  Biso   1.000  N
  N32      1.0000 0.38570  0.83010  0.99741  Biso   1.000  N
  N33      1.0000 0.82620  0.73286  0.48540  Biso   1.000  N
  N34      1.0000 0.67380  0.23286  0.01460  Biso   1.000  N
  N35      1.0000 0.17380  0.26714  0.51460  Biso   1.000  N
  N36      1.0000 0.32620  0.76714  0.98540  Biso   1.000  N
  N37      1.0000 0.60570  0.79432  0.26479  Biso   1.000  N
  N38      1.0000 0.89430  0.29432  0.23521  Biso   1.000  N
  N39      1.0000 0.39430  0.20568  0.73521  Biso   1.000  N
  N40      1.0000 0.10570  0.70568  0.76479  Biso   1.000  N
  N41      1.0000 0.61150  0.74692  0.20859  Biso   1.000  N
  N42      1.0000 0.88850  0.24692  0.29141  Biso   1.000  N
  N43      1.0000 0.38850  0.25308  0.79141  Biso   1.000  N
  N44      1.0000 0.11150  0.75308  0.70859  Biso   1.000  N
  N45      1.0000 0.43400  0.78232  0.22170  Biso   1.000  N
  N46      1.0000 0.06600  0.28232  0.27830  Biso   1.000  N
  N47      1.0000 0.56600  0.21768  0.77830  Biso   1.000  N
  N48      1.0000 0.93400  0.71768  0.72170  Biso   1.000  N
  N49      1.0000 0.50640  0.48250  0.90560  Biso   1.000  N
  N50      1.0000 0.99360  0.98250  0.59440  Biso   1.000  N
  N51      1.0000 0.49360  0.51750  0.09440  Biso   1.000  N
  N52      1.0000 0.00640  0.01750  0.40560  Biso   1.000  N
  O1       1.0000 0.40640  0.77586  0.48645  Biso   1.000  O
  O2       1.0000 0.09360  0.27586  0.01355  Biso   1.000  O
  O3       1.0000 0.59360  0.22414  0.51355  Biso   1.000  O
  O4       1.0000 0.90640  0.72414  0.98645  Biso   1.000  O
  O5       1.0000 0.62170  0.74724  0.40795  Biso   1.000  O
  O6       1.0000 0.87830  0.24724  0.09205  Biso   1.000  O
  O7       1.0000 0.37830  0.25276  0.59205  Biso   1.000  O
  O8       1.0000 0.12170  0.75276  0.90795  Biso   1.000  O
  O9       1.0000 0.76670  0.58410  0.72110  Biso   1.000  O
  O10      1.0000 0.73330  0.08410  0.77890  Biso   1.000  O
  O11      1.0000 0.23330  0.41590  0.27890  Biso   1.000  O
  O12      1.0000 0.26670  0.91590  0.22110  Biso   1.000  O
  O13      1.0000 0.37350  0.07726  0.40261  Biso   1.000  O
  O14      1.0000 0.12650  0.57726  0.09739  Biso   1.000  O
  O15      1.0000 0.62650  0.92274  0.59739  Biso   1.000  O
  O16      1.0000 0.87350  0.42274  0.90261  Biso   1.000  O
  O17      1.0000 0.42260  0.05949  0.28579  Biso   1.000  O
  O18      1.0000 0.07740  0.55949  0.21421  Biso   1.000  O
  O19      1.0000 0.57740  0.94051  0.71421  Biso   1.000  O
  O20      1.0000 0.92260  0.44051  0.78579  Biso   1.000  O
  O21      1.0000 0.36850  0.95517  0.35393  Biso   1.000  O
  O22      1.0000 0.13150  0.45517  0.14607  Biso   1.000  O
  O23      1.0000 0.63150  0.04483  0.64607  Biso   1.000  O
  O24      1.0000 0.86850  0.54483  0.85393  Biso   1.000  O
  O25      1.0000 0.54390  0.01420  0.38145  Biso   1.000  O
  O26      1.0000 0.95610  0.51420  0.11855  Biso   1.000  O
  O27      1.0000 0.45610  0.98580  0.61855  Biso   1.000  O
  O28      1.0000 0.04390  0.48580  0.88145  Biso   1.000  O
  O29      1.0000 0.53380  0.37370  0.96440  Biso   1.000  O
  O30      1.0000 0.96620  0.87370  0.53560  Biso   1.000  O
  O31      1.0000 0.46620  0.62630  0.03560  Biso   1.000  O
  O32      1.0000 0.03380  0.12630  0.46440  Biso   1.000  O
  O33      1.0000 0.92420  0.49930  0.65490  Biso   1.000  O
  O34      1.0000 0.57580  0.99930  0.84510  Biso   1.000  O
  O35      1.0000 0.07580  0.50070  0.34510  Biso   1.000  O
  O36      1.0000 0.42420  0.00070  0.15490  Biso   1.000  O
  H1       1.0000 0.89260  0.53640  0.63840  Biso   1.000  H
  H2       1.0000 0.60740  0.03640  0.86160  Biso   1.000  H
  H3       1.0000 0.10740  0.46360  0.36160  Biso   1.000  H
  H4       1.0000 0.39260  0.96360  0.13840  Biso   1.000  H
  O37      1.0000 0.79050  0.84950  0.68852  Biso   1.000  O
  O38      1.0000 0.70950  0.34950  0.81148  Biso   1.000  O
  O39      1.0000 0.20950  0.15050  0.31148  Biso   1.000  O
  O40      1.0000 0.29050  0.65050  0.18852  Biso   1.000  O
  O41      1.0000 0.61990  0.88980  0.45510  Biso   1.000  O
  O42      1.0000 0.88010  0.38980  0.04490  Biso   1.000  O
  O43      1.0000 0.38010  0.11020  0.54490  Biso   1.000  O
  O44      1.0000 0.11990  0.61020  0.95510  Biso   1.000  O
  O45      1.0000 0.65300  0.08000  0.49650  Biso   1.000  O
  O46      1.0000 0.84700  0.58000  0.00350  Biso   1.000  O
  O47      1.0000 0.34700  0.92000  0.50350  Biso   1.000  O
  O48      1.0000 0.15300  0.42000  0.99650  Biso   1.000  O
  F1       1.0000 0.17110  0.62766  0.56680  Biso   1.000  F
  F2       1.0000 0.32890  0.12766  0.93320  Biso   1.000  F
  F3       1.0000 0.82890  0.37234  0.43320  Biso   1.000  F
  F4       1.0000 0.67110  0.87234  0.06680  Biso   1.000  F
  F5       1.0000 0.34420  0.43498  0.45050  Biso   1.000  F
  F6       1.0000 0.15580  0.93498  0.04950  Biso   1.000  F
  F7       1.0000 0.65580  0.56502  0.54950  Biso   1.000  F
  F8       1.0000 0.84420  0.06502  0.95050  Biso   1.000  F
  F9       1.0000 0.88310  0.70826  0.27302  Biso   1.000  F
  F10      1.0000 0.61690  0.20826  0.22698  Biso   1.000  F
  F11      1.0000 0.11690  0.29174  0.72698  Biso   1.000  F
  F12      1.0000 0.38310  0.79174  0.77302  Biso   1.000  F
  F13      1.0000 0.76350  0.46192  0.25289  Biso   1.000  F
  F14      1.0000 0.73650  0.96192  0.24711  Biso   1.000  F
  F15      1.0000 0.23650  0.53808  0.74711  Biso   1.000  F
  F16      1.0000 0.26350  0.03808  0.75289  Biso   1.000  F
  C1       1.0000 0.53620  0.64810  0.68030  Biso   1.000  C
  C2       1.0000 0.96380  0.14810  0.81970  Biso   1.000  C
  C3       1.0000 0.46380  0.35190  0.31970  Biso   1.000  C
  C4       1.0000 0.03620  0.85190  0.18030  Biso   1.000  C
  H5       1.0000 0.56440  0.60530  0.70230  Biso   1.000  H
  H6       1.0000 0.93560  0.10530  0.79770  Biso   1.000  H
  H7       1.0000 0.43560  0.39470  0.29770  Biso   1.000  H
  H8       1.0000 0.06440  0.89470  0.20230  Biso   1.000  H
  C5       1.0000 0.52930  0.75520  0.63577  Biso   1.000  C
  C6       1.0000 0.97070  0.25520  0.86423  Biso   1.000  C
  C7       1.0000 0.47070  0.24480  0.36423  Biso   1.000  C
  C8       1.0000 0.02930  0.74480  0.13577  Biso   1.000  C
  H9       1.0000 0.54750  0.80230  0.62000  Biso   1.000  H
  H10      1.0000 0.95250  0.30230  0.88000  Biso   1.000  H
  H11      1.0000 0.45250  0.19770  0.38000  Biso   1.000  H
  H12      1.0000 0.04750  0.69770  0.12000  Biso   1.000  H
  C9       1.0000 0.32460  0.75580  0.59686  Biso   1.000  C
  C10      1.0000 0.17540  0.25580  0.90314  Biso   1.000  C
  C11      1.0000 0.67540  0.24420  0.40314  Biso   1.000  C
  C12      1.0000 0.82460  0.74420  0.09686  Biso   1.000  C
  H13      1.0000 0.32250  0.80900  0.60470  Biso   1.000  H
  H14      1.0000 0.17750  0.30900  0.89530  Biso   1.000  H
  H15      1.0000 0.67750  0.19100  0.39530  Biso   1.000  H
  H16      1.0000 0.82250  0.69100  0.10470  Biso   1.000  H
  H17      1.0000 0.26110  0.73390  0.61820  Biso   1.000  H
  H18      1.0000 0.23890  0.23390  0.88180  Biso   1.000  H
  H19      1.0000 0.73890  0.26610  0.38180  Biso   1.000  H
  H20      1.0000 0.76110  0.76610  0.11820  Biso   1.000  H
  C13      1.0000 0.31670  0.74000  0.51747  Biso   1.000  C
  C14      1.0000 0.18330  0.24000  0.98253  Biso   1.000  C
  C15      1.0000 0.68330  0.26000  0.48253  Biso   1.000  C
  C16      1.0000 0.81670  0.76000  0.01747  Biso   1.000  C
  C17      1.0000 0.32390  0.65830  0.50044  Biso   1.000  C
  C18      1.0000 0.17610  0.15830  0.99956  Biso   1.000  C
  C19      1.0000 0.67610  0.34170  0.49956  Biso   1.000  C
  C20      1.0000 0.82390  0.84170  0.00044  Biso   1.000  C
  C21      1.0000 0.25140  0.60530  0.52510  Biso   1.000  C
  C22      1.0000 0.24860  0.10530  0.97490  Biso   1.000  C
  C23      1.0000 0.74860  0.39470  0.47490  Biso   1.000  C
  C24      1.0000 0.75140  0.89470  0.02510  Biso   1.000  C
  C25      1.0000 0.25640  0.53060  0.50930  Biso   1.000  C
  C26      1.0000 0.24360  0.03060  0.99070  Biso   1.000  C
  C27      1.0000 0.74360  0.46940  0.49070  Biso   1.000  C
  C28      1.0000 0.75640  0.96940  0.00930  Biso   1.000  C
  H21      1.0000 0.20670  0.49690  0.52710  Biso   1.000  H
  H22      1.0000 0.29330  0.99690  0.97290  Biso   1.000  H
  H23      1.0000 0.79330  0.50310  0.47290  Biso   1.000  H
  H24      1.0000 0.70670  0.00310  0.02710  Biso   1.000  H
  C29      1.0000 0.33710  0.50830  0.46670  Biso   1.000  C
  C30      1.0000 0.16290  0.00830  0.03330  Biso   1.000  C
  C31      1.0000 0.66290  0.49170  0.53330  Biso   1.000  C
  C32      1.0000 0.83710  0.99170  0.96670  Biso   1.000  C
  C33      1.0000 0.41080  0.55660  0.43970  Biso   1.000  C
  C34      1.0000 0.08920  0.05660  0.06030  Biso   1.000  C
  C35      1.0000 0.58920  0.44340  0.56030  Biso   1.000  C
  C36      1.0000 0.91080  0.94340  0.93970  Biso   1.000  C
  H25      1.0000 0.46480  0.53980  0.41050  Biso   1.000  H
  H26      1.0000 0.03520  0.03980  0.08950  Biso   1.000  H
  H27      1.0000 0.53520  0.46020  0.58950  Biso   1.000  H
  H28      1.0000 0.96480  0.96020  0.91050  Biso   1.000  H
  C37      1.0000 0.40340  0.63130  0.45680  Biso   1.000  C
  C38      1.0000 0.09660  0.13130  0.04320  Biso   1.000  C
  C39      1.0000 0.59660  0.36870  0.54320  Biso   1.000  C
  C40      1.0000 0.90340  0.86870  0.95680  Biso   1.000  C
  H29      1.0000 0.45330  0.66440  0.43840  Biso   1.000  H
  H30      1.0000 0.04670  0.16440  0.06160  Biso   1.000  H
  H31      1.0000 0.54670  0.33560  0.56160  Biso   1.000  H
  H32      1.0000 0.95330  0.83560  0.93840  Biso   1.000  H
  C41      1.0000 0.20490  0.77280  0.48611  Biso   1.000  C
  C42      1.0000 0.29510  0.27280  0.01389  Biso   1.000  C
  C43      1.0000 0.79510  0.22720  0.51389  Biso   1.000  C
  C44      1.0000 0.70490  0.72720  0.98611  Biso   1.000  C
  H33      1.0000 0.14330  0.74840  0.50730  Biso   1.000  H
  H34      1.0000 0.35670  0.24840  0.99270  Biso   1.000  H
  H35      1.0000 0.85670  0.25160  0.49270  Biso   1.000  H
  H36      1.0000 0.64330  0.75160  0.00730  Biso   1.000  H
  H37      1.0000 0.20180  0.82530  0.49710  Biso   1.000  H
  H38      1.0000 0.29820  0.32530  0.00290  Biso   1.000  H
  H39      1.0000 0.79820  0.17470  0.50290  Biso   1.000  H
  H40      1.0000 0.70180  0.67470  0.99710  Biso   1.000  H
  C45      1.0000 0.24850  0.79750  0.35937  Biso   1.000  C
  C46      1.0000 0.25150  0.29750  0.14063  Biso   1.000  C
  C47      1.0000 0.75150  0.20250  0.64063  Biso   1.000  C
  C48      1.0000 0.74850  0.70250  0.85937  Biso   1.000  C
  H41      1.0000 0.29690  0.83740  0.36710  Biso   1.000  H
  H42      1.0000 0.20310  0.33740  0.13290  Biso   1.000  H
  H43      1.0000 0.70310  0.16260  0.63290  Biso   1.000  H
  H44      1.0000 0.79690  0.66260  0.86710  Biso   1.000  H
  C49      1.0000 0.15050  0.71140  0.31270  Biso   1.000  C
  C50      1.0000 0.34950  0.21140  0.18730  Biso   1.000  C
  C51      1.0000 0.84950  0.28860  0.68730  Biso   1.000  C
  C52      1.0000 0.65050  0.78860  0.81270  Biso   1.000  C
  H45      1.0000 0.11710  0.67990  0.27860  Biso   1.000  H
  H46      1.0000 0.38290  0.17990  0.22140  Biso   1.000  H
  H47      1.0000 0.88290  0.32010  0.72140  Biso   1.000  H
  H48      1.0000 0.61710  0.82010  0.77860  Biso   1.000  H
  C53      1.0000 0.86960  0.65540  0.56416  Biso   1.000  C
  C54      1.0000 0.63040  0.15540  0.93584  Biso   1.000  C
  C55      1.0000 0.13040  0.34460  0.43584  Biso   1.000  C
  C56      1.0000 0.36960  0.84460  0.06416  Biso   1.000  C
  H49      1.0000 0.90070  0.61450  0.58800  Biso   1.000  H
  H50      1.0000 0.59930  0.11450  0.91200  Biso   1.000  H
  H51      1.0000 0.09930  0.38550  0.41200  Biso   1.000  H
  H52      1.0000 0.40070  0.88550  0.08800  Biso   1.000  H
  C57      1.0000 0.77880  0.75350  0.54348  Biso   1.000  C
  C58      1.0000 0.72120  0.25350  0.95652  Biso   1.000  C
  C59      1.0000 0.22120  0.24650  0.45652  Biso   1.000  C
  C60      1.0000 0.27880  0.74650  0.04348  Biso   1.000  C
  H53      1.0000 0.73470  0.79560  0.54760  Biso   1.000  H
  H54      1.0000 0.76530  0.29560  0.95240  Biso   1.000  H
  H55      1.0000 0.26530  0.20440  0.45240  Biso   1.000  H
  H56      1.0000 0.23470  0.70440  0.04760  Biso   1.000  H
  C61      1.0000 0.82140  0.77160  0.41771  Biso   1.000  C
  C62      1.0000 0.67860  0.27160  0.08229  Biso   1.000  C
  C63      1.0000 0.17860  0.22840  0.58229  Biso   1.000  C
  C64      1.0000 0.32140  0.72840  0.91771  Biso   1.000  C
  H57      1.0000 0.88860  0.76090  0.39390  Biso   1.000  H
  H58      1.0000 0.61140  0.26090  0.10610  Biso   1.000  H
  H59      1.0000 0.11140  0.23910  0.60610  Biso   1.000  H
  H60      1.0000 0.38860  0.73910  0.89390  Biso   1.000  H
  H61      1.0000 0.81900  0.82470  0.42600  Biso   1.000  H
  H62      1.0000 0.68100  0.32470  0.07400  Biso   1.000  H
  H63      1.0000 0.18100  0.17530  0.57400  Biso   1.000  H
  H64      1.0000 0.31900  0.67530  0.92600  Biso   1.000  H
  C65      1.0000 0.71910  0.74890  0.36961  Biso   1.000  C
  C66      1.0000 0.78090  0.24890  0.13039  Biso   1.000  C
  C67      1.0000 0.28090  0.25110  0.63039  Biso   1.000  C
  C68      1.0000 0.21910  0.75110  0.86961  Biso   1.000  C
  C69      1.0000 0.73190  0.67140  0.33929  Biso   1.000  C
  C70      1.0000 0.76810  0.17140  0.16071  Biso   1.000  C
  C71      1.0000 0.26810  0.32860  0.66071  Biso   1.000  C
  C72      1.0000 0.23190  0.82860  0.83929  Biso   1.000  C
  C73      1.0000 0.81150  0.65390  0.29164  Biso   1.000  C
  C74      1.0000 0.68850  0.15390  0.20836  Biso   1.000  C
  C75      1.0000 0.18850  0.34610  0.70836  Biso   1.000  C
  C76      1.0000 0.31150  0.84610  0.79164  Biso   1.000  C
  C77      1.0000 0.82260  0.58510  0.26080  Biso   1.000  C
  C78      1.0000 0.67740  0.08510  0.23920  Biso   1.000  C
  C79      1.0000 0.17740  0.41490  0.73920  Biso   1.000  C
  C80      1.0000 0.32260  0.91490  0.76080  Biso   1.000  C
  H65      1.0000 0.87490  0.57640  0.22770  Biso   1.000  H
  H66      1.0000 0.62510  0.07640  0.27230  Biso   1.000  H
  H67      1.0000 0.12510  0.42360  0.77230  Biso   1.000  H
  H68      1.0000 0.37490  0.92360  0.72770  Biso   1.000  H
  C81      1.0000 0.75370  0.53130  0.28110  Biso   1.000  C
  C82      1.0000 0.74630  0.03130  0.21890  Biso   1.000  C
  C83      1.0000 0.24630  0.46870  0.71890  Biso   1.000  C
  C84      1.0000 0.25370  0.96870  0.78110  Biso   1.000  C
  C85      1.0000 0.67350  0.54220  0.32780  Biso   1.000  C
  C86      1.0000 0.82650  0.04220  0.17220  Biso   1.000  C
  C87      1.0000 0.32650  0.45780  0.67220  Biso   1.000  C
  C88      1.0000 0.17350  0.95780  0.82780  Biso   1.000  C
  H69      1.0000 0.62710  0.50380  0.34030  Biso   1.000  H
  H70      1.0000 0.87290  0.00380  0.15970  Biso   1.000  H
  H71      1.0000 0.37290  0.49620  0.65970  Biso   1.000  H
  H72      1.0000 0.12710  0.99620  0.84030  Biso   1.000  H
  C89      1.0000 0.66400  0.61330  0.35600  Biso   1.000  C
  C90      1.0000 0.83600  0.11330  0.14400  Biso   1.000  C
  C91      1.0000 0.33600  0.38670  0.64400  Biso   1.000  C
  C92      1.0000 0.16400  0.88670  0.85600  Biso   1.000  C
  H73      1.0000 0.60940  0.62170  0.38760  Biso   1.000  H
  H74      1.0000 0.89060  0.12170  0.11240  Biso   1.000  H
  H75      1.0000 0.39060  0.37830  0.61240  Biso   1.000  H
  H76      1.0000 0.10940  0.87830  0.88760  Biso   1.000  H
  C93      1.0000 0.70340  0.80940  0.31116  Biso   1.000  C
  C94      1.0000 0.79660  0.30940  0.18884  Biso   1.000  C
  C95      1.0000 0.29660  0.19060  0.68884  Biso   1.000  C
  C96      1.0000 0.20340  0.69060  0.81116  Biso   1.000  C
  H77      1.0000 0.69590  0.85760  0.33310  Biso   1.000  H
  H78      1.0000 0.80410  0.35760  0.16690  Biso   1.000  H
  H79      1.0000 0.30410  0.14240  0.66690  Biso   1.000  H
  H80      1.0000 0.19590  0.64240  0.83310  Biso   1.000  H
  H81      1.0000 0.76890  0.81060  0.28380  Biso   1.000  H
  H82      1.0000 0.73110  0.31060  0.21620  Biso   1.000  H
  H83      1.0000 0.23110  0.18940  0.71620  Biso   1.000  H
  H84      1.0000 0.26890  0.68940  0.78380  Biso   1.000  H
  C97      1.0000 0.50680  0.74170  0.18483  Biso   1.000  C
  C98      1.0000 0.99320  0.24170  0.31517  Biso   1.000  C
  C99      1.0000 0.49320  0.25830  0.81517  Biso   1.000  C
  C100     1.0000 0.00680  0.75830  0.68483  Biso   1.000  C
  H85      1.0000 0.48390  0.71260  0.14600  Biso   1.000  H
  H86      1.0000 0.01610  0.21260  0.35400  Biso   1.000  H
  H87      1.0000 0.51610  0.28740  0.85400  Biso   1.000  H
  H88      1.0000 0.98390  0.78740  0.64600  Biso   1.000  H
  C101     1.0000 0.50080  0.81460  0.27153  Biso   1.000  C
  C102     1.0000 0.99920  0.31460  0.22847  Biso   1.000  C
  C103     1.0000 0.49920  0.18540  0.72847  Biso   1.000  C
  C104     1.0000 0.00080  0.68540  0.77153  Biso   1.000  C
  H89      1.0000 0.47740  0.84660  0.30600  Biso   1.000  H
  H90      1.0000 0.02260  0.34660  0.19400  Biso   1.000  H
  H91      1.0000 0.52260  0.15340  0.69400  Biso   1.000  H
  H92      1.0000 0.97740  0.65340  0.80600  Biso   1.000  H
  C105     1.0000 0.55140  0.55020  0.87950  Biso   1.000  C
  C106     1.0000 0.94860  0.05020  0.62050  Biso   1.000  C
  C107     1.0000 0.44860  0.44980  0.12050  Biso   1.000  C
  C108     1.0000 0.05140  0.94980  0.37950  Biso   1.000  C
  H93      1.0000 0.63090  0.55050  0.88890  Biso   1.000  H
  H94      1.0000 0.86910  0.05050  0.61110  Biso   1.000  H
  H95      1.0000 0.36910  0.44950  0.11110  Biso   1.000  H
  H96      1.0000 0.13090  0.94950  0.38890  Biso   1.000  H
  H97      1.0000 0.51950  0.59170  0.90280  Biso   1.000  H
  H98      1.0000 0.98050  0.09170  0.59720  Biso   1.000  H
  H99      1.0000 0.48050  0.40830  0.09720  Biso   1.000  H
  H100     1.0000 0.01950  0.90830  0.40280  Biso   1.000  H
  H101     1.0000 0.53370  0.55380  0.82950  Biso   1.000  H
  H102     1.0000 0.96630  0.05380  0.67050  Biso   1.000  H
  H103     1.0000 0.46630  0.44620  0.17050  Biso   1.000  H
  H104     1.0000 0.03370  0.94620  0.32950  Biso   1.000  H
  C109     1.0000 0.38840  0.47050  0.89450  Biso   1.000  C
  C110     1.0000 0.11160  0.97050  0.60550  Biso   1.000  C
  C111     1.0000 0.61160  0.52950  0.10550  Biso   1.000  C
  C112     1.0000 0.88840  0.02950  0.39450  Biso   1.000  C
  H105     1.0000 0.36950  0.42330  0.91400  Biso   1.000  H
  H106     1.0000 0.13050  0.92330  0.58600  Biso   1.000  H
  H107     1.0000 0.63050  0.57670  0.08600  Biso   1.000  H
  H108     1.0000 0.86950  0.07670  0.41400  Biso   1.000  H
  H109     1.0000 0.36750  0.47090  0.84470  Biso   1.000  H
  H110     1.0000 0.13250  0.97090  0.65530  Biso   1.000  H
  H111     1.0000 0.63250  0.52910  0.15530  Biso   1.000  H
  H112     1.0000 0.86750  0.02910  0.34470  Biso   1.000  H
  H113     1.0000 0.34920  0.50920  0.91730  Biso   1.000  H
  H114     1.0000 0.15080  0.00920  0.58270  Biso   1.000  H
  H115     1.0000 0.65080  0.49080  0.08270  Biso   1.000  H
  H116     1.0000 0.84920  0.99080  0.41730  Biso   1.000  H
  C113     1.0000 0.56930  0.43210  0.94080  Biso   1.000  C
  C114     1.0000 0.93070  0.93210  0.55920  Biso   1.000  C
  C115     1.0000 0.43070  0.56790  0.05920  Biso   1.000  C
  C116     1.0000 0.06930  0.06790  0.44080  Biso   1.000  C
  H117     1.0000 0.64530  0.44170  0.94800  Biso   1.000  H
  H118     1.0000 0.85470  0.94170  0.55200  Biso   1.000  H
  H119     1.0000 0.35470  0.55830  0.05200  Biso   1.000  H
  H120     1.0000 0.14530  0.05830  0.44800  Biso   1.000  H
  C117     1.0000 0.98310  0.46770  0.60550  Biso   1.000  C
  C118     1.0000 0.51690  0.96770  0.89450  Biso   1.000  C
  C119     1.0000 0.01690  0.53230  0.39450  Biso   1.000  C
  C120     1.0000 0.48310  0.03230  0.10550  Biso   1.000  C
  H121     1.0000 0.96930  0.49360  0.56150  Biso   1.000  H
  H122     1.0000 0.53070  0.99360  0.93850  Biso   1.000  H
  H123     1.0000 0.03070  0.50640  0.43850  Biso   1.000  H
  H124     1.0000 0.46930  0.00640  0.06150  Biso   1.000  H
  H125     1.0000 0.96100  0.41680  0.59960  Biso   1.000  H
  H126     1.0000 0.53900  0.91680  0.90040  Biso   1.000  H
  H127     1.0000 0.03900  0.58320  0.40040  Biso   1.000  H
  H128     1.0000 0.46100  0.08320  0.09960  Biso   1.000  H
  H129     1.0000 0.06120  0.47010  0.61990  Biso   1.000  H
  H130     1.0000 0.43880  0.97010  0.88010  Biso   1.000  H
  H131     1.0000 0.93880  0.52990  0.38010  Biso   1.000  H
  H132     1.0000 0.56120  0.02990  0.11990  Biso   1.000  H
  C121     1.0000 0.84640  0.89300  0.74260  Biso   1.000  C
  C122     1.0000 0.65360  0.39300  0.75740  Biso   1.000  C
  C123     1.0000 0.15360  0.10700  0.25740  Biso   1.000  C
  C124     1.0000 0.34640  0.60700  0.24260  Biso   1.000  C
  H133     1.0000 0.91610  0.91050  0.72670  Biso   1.000  H
  H134     1.0000 0.58390  0.41050  0.77330  Biso   1.000  H
  H135     1.0000 0.08390  0.08950  0.27330  Biso   1.000  H
  H136     1.0000 0.41610  0.58950  0.22670  Biso   1.000  H
  H137     1.0000 0.86030  0.86330  0.78430  Biso   1.000  H
  H138     1.0000 0.63970  0.36330  0.71570  Biso   1.000  H
  H139     1.0000 0.13970  0.13670  0.21570  Biso   1.000  H
  H140     1.0000 0.36030  0.63670  0.28430  Biso   1.000  H
  H141     1.0000 0.80060  0.93470  0.75320  Biso   1.000  H
  H142     1.0000 0.69940  0.43470  0.74680  Biso   1.000  H
  H143     1.0000 0.19940  0.06530  0.24680  Biso   1.000  H
  H144     1.0000 0.30060  0.56530  0.25320  Biso   1.000  H
  H145     1.0000 0.61100  0.80000  0.42280  Biso   1.000  H
  H146     1.0000 0.88900  0.30000  0.07720  Biso   1.000  H
  H147     1.0000 0.38900  0.20000  0.57720  Biso   1.000  H
  H148     1.0000 0.11100  0.70000  0.92280  Biso   1.000  H
  H149     1.0000 0.39300  0.82600  0.49460  Biso   1.000  H
  H150     1.0000 0.10700  0.32600  0.00540  Biso   1.000  H
  H151     1.0000 0.60700  0.17400  0.50540  Biso   1.000  H
  H152     1.0000 0.89300  0.67400  0.99460  Biso   1.000  H
  H153     1.0000 0.60700  0.89900  0.48900  Biso   1.000  H
  H154     1.0000 0.89300  0.39900  0.01100  Biso   1.000  H
  H155     1.0000 0.39300  0.10100  0.51100  Biso   1.000  H
  H156     1.0000 0.10700  0.60100  0.98900  Biso   1.000  H
  H157     1.0000 0.64000  0.05200  0.52500  Biso   1.000  H
  H158     1.0000 0.86000  0.55200  0.97500  Biso   1.000  H
  H159     1.0000 0.36000  0.94800  0.47500  Biso   1.000  H
  H160     1.0000 0.14000  0.44800  0.02500  Biso   1.000  H
  H161     1.0000 0.78800  0.56000  0.76100  Biso   1.000  H
  H162     1.0000 0.71200  0.06000  0.73900  Biso   1.000  H
  H163     1.0000 0.21200  0.44000  0.23900  Biso   1.000  H
  H164     1.0000 0.28800  0.94000  0.26100  Biso   1.000  H
  H165     1.0000 0.78800  0.56200  0.69800  Biso   1.000  H
  H166     1.0000 0.71200  0.06200  0.80200  Biso   1.000  H
  H167     1.0000 0.21200  0.43800  0.30200  Biso   1.000  H
  H168     1.0000 0.28800  0.93800  0.19800  Biso   1.000  H
  H169     1.0000 0.60000  0.93400  0.42300  Biso   1.000  H
  H170     1.0000 0.90000  0.43400  0.07700  Biso   1.000  H
  H171     1.0000 0.40000  0.06600  0.57700  Biso   1.000  H
  H172     1.0000 0.10000  0.56600  0.92300  Biso   1.000  H
  H173     1.0000 0.75600  0.87200  0.66800  Biso   1.000  H
  H174     1.0000 0.74400  0.37200  0.83200  Biso   1.000  H
  H175     1.0000 0.24400  0.12800  0.33200  Biso   1.000  H
  H176     1.0000 0.25600  0.62800  0.16800  Biso   1.000  H
  H177     1.0000 0.62000  0.05300  0.46300  Biso   1.000  H
  H178     1.0000 0.88000  0.55300  0.03700  Biso   1.000  H
  H179     1.0000 0.38000  0.94700  0.53700  Biso   1.000  H
  H180     1.0000 0.12000  0.44700  0.96300  Biso   1.000  H
