data_image0
_cell_length_a       5.1538
_cell_length_b       8.498
_cell_length_c       17.05
_cell_angle_alpha    84.18
_cell_angle_beta     85.88
_cell_angle_gamma    76.21

_symmetry_space_group_name_H-M    "P 1"
_symmetry_int_tables_number       1

loop_
  _symmetry_equiv_pos_as_xyz
  'x, y, z'

loop_
  _atom_site_label
  _atom_site_occupancy
  _atom_site_fract_x
  _atom_site_fract_y
  _atom_site_fract_z
  _atom_site_thermal_displace_type
  _atom_site_B_iso_or_equiv
  _atom_site_type_symbol
  Cu1      1.0000 0.72830  0.98687  0.46181  Biso   1.000  Cu
  Cu2      1.0000 0.27170  0.01313  0.53819  Biso   1.000  Cu
  O1       1.0000 0.55530  0.94619  0.36936  Biso   1.000  O
  O2       1.0000 0.44470  0.05381  0.63064  Biso   1.000  O
  O3       1.0000 0.15870  0.96779  0.43388  Biso   1.000  O
  O4       1.0000 0.84130  0.03221  0.56612  Biso   1.000  O
  O5       1.0000 0.61470  0.21900  0.43134  Biso   1.000  O
  O6       1.0000 0.38530  0.78100  0.56866  Biso   1.000  O
  O7       1.0000 0.22280  0.24040  0.49950  Biso   1.000  O
  O8       1.0000 0.77720  0.75960  0.50050  Biso   1.000  O
  C1       1.0000 0.31130  0.94690  0.37198  Biso   1.000  C
  C2       1.0000 0.68870  0.05310  0.62802  Biso   1.000  C
  C3       1.0000 0.18720  0.92350  0.29841  Biso   1.000  C
  C4       1.0000 0.81280  0.07650  0.70159  Biso   1.000  C
  H1       1.0000 0.05830  0.02470  0.28250  Biso   1.000  H
  H2       1.0000 0.94170  0.97530  0.71750  Biso   1.000  H
  H3       1.0000 0.08700  0.83880  0.31100  Biso   1.000  H
  H4       1.0000 0.91300  0.16120  0.68900  Biso   1.000  H
  C5       1.0000 0.37870  0.87730  0.22932  Biso   1.000  C
  C6       1.0000 0.62130  0.12270  0.77068  Biso   1.000  C
  H5       1.0000 0.51160  0.77800  0.24530  Biso   1.000  H
  H6       1.0000 0.48840  0.22200  0.75470  Biso   1.000  H
  H7       1.0000 0.47380  0.96380  0.21490  Biso   1.000  H
  H8       1.0000 0.52620  0.03620  0.78510  Biso   1.000  H
  C7       1.0000 0.24530  0.84880  0.15727  Biso   1.000  C
  C8       1.0000 0.75470  0.15120  0.84273  Biso   1.000  C
  H9       1.0000 0.14660  0.76410  0.17210  Biso   1.000  H
  H10      1.0000 0.85340  0.23590  0.82790  Biso   1.000  H
  H11      1.0000 0.11520  0.94890  0.14070  Biso   1.000  H
  H12      1.0000 0.88480  0.05110  0.85930  Biso   1.000  H
  C9       1.0000 0.43560  0.79880  0.08820  Biso   1.000  C
  C10      1.0000 0.56440  0.20120  0.91180  Biso   1.000  C
  H13      1.0000 0.53300  0.88400  0.07300  Biso   1.000  H
  H14      1.0000 0.46700  0.11600  0.92700  Biso   1.000  H
  H15      1.0000 0.56690  0.69930  0.10500  Biso   1.000  H
  H16      1.0000 0.43310  0.30070  0.89500  Biso   1.000  H
  C11      1.0000 0.30460  0.76910  0.01750  Biso   1.000  C
  C12      1.0000 0.69540  0.23090  0.98250  Biso   1.000  C
  H17      1.0000 0.23030  0.67430  0.02960  Biso   1.000  H
  H18      1.0000 0.76970  0.32570  0.97040  Biso   1.000  H
  H19      1.0000 0.43600  0.75060  0.97370  Biso   1.000  H
  H20      1.0000 0.56400  0.24940  0.02630  Biso   1.000  H
  H21      1.0000 0.16260  0.86320  0.00330  Biso   1.000  H
  H22      1.0000 0.83740  0.13680  0.99670  Biso   1.000  H
  C13      1.0000 0.38580  0.29750  0.45341  Biso   1.000  C
  C14      1.0000 0.61420  0.70250  0.54659  Biso   1.000  C
  C15      1.0000 0.29150  0.47200  0.42009  Biso   1.000  C
  C16      1.0000 0.70850  0.52800  0.57991  Biso   1.000  C
  H23      1.0000 0.44180  0.51000  0.39260  Biso   1.000  H
  H24      1.0000 0.55820  0.49000  0.60740  Biso   1.000  H
  H25      1.0000 0.22190  0.54120  0.46310  Biso   1.000  H
  H26      1.0000 0.77810  0.45880  0.53690  Biso   1.000  H
  C17      1.0000 0.07140  0.48390  0.36236  Biso   1.000  C
  C18      1.0000 0.92860  0.51610  0.63764  Biso   1.000  C
  H27      1.0000 0.93810  0.42730  0.38760  Biso   1.000  H
  H28      1.0000 0.06190  0.57270  0.61240  Biso   1.000  H
  H29      1.0000 0.98160  0.59850  0.35110  Biso   1.000  H
  H30      1.0000 0.01840  0.40150  0.64890  Biso   1.000  H
  C19      1.0000 0.17500  0.41200  0.28539  Biso   1.000  C
  C20      1.0000 0.82500  0.58800  0.71461  Biso   1.000  C
  H31      1.0000 0.27220  0.29880  0.29670  Biso   1.000  H
  H32      1.0000 0.72780  0.70120  0.70330  Biso   1.000  H
  H33      1.0000 0.30160  0.47200  0.25880  Biso   1.000  H
  H34      1.0000 0.69840  0.52800  0.74120  Biso   1.000  H
  C21      1.0000 0.95500  0.41700  0.23033  Biso   1.000  C
  C22      1.0000 0.04500  0.58300  0.76967  Biso   1.000  C
  H35      1.0000 0.83570  0.35040  0.25550  Biso   1.000  H
  H36      1.0000 0.16430  0.64960  0.74450  Biso   1.000  H
  H37      1.0000 0.84950  0.52910  0.22220  Biso   1.000  H
  H38      1.0000 0.15050  0.47090  0.77780  Biso   1.000  H
  C23      1.0000 0.05750  0.35650  0.15090  Biso   1.000  C
  C24      1.0000 0.94250  0.64350  0.84910  Biso   1.000  C
  H39      1.0000 0.18930  0.41450  0.12780  Biso   1.000  H
  H40      1.0000 0.81070  0.58550  0.87220  Biso   1.000  H
  H41      1.0000 0.90980  0.37520  0.11630  Biso   1.000  H
  H42      1.0000 0.09020  0.62480  0.88370  Biso   1.000  H
  H43      1.0000 0.13930  0.24100  0.15760  Biso   1.000  H
  H44      1.0000 0.86070  0.75900  0.84240  Biso   1.000  H
