data_image0
_cell_length_a       7.5866
_cell_length_b       9.8144
_cell_length_c       10.0945
_cell_angle_alpha    86.302
_cell_angle_beta     88.91
_cell_angle_gamma    85.664

_symmetry_space_group_name_H-M    "P 1"
_symmetry_int_tables_number       1

loop_
  _symmetry_equiv_pos_as_xyz
  'x, y, z'

loop_
  _atom_site_label
  _atom_site_occupancy
  _atom_site_fract_x
  _atom_site_fract_y
  _atom_site_fract_z
  _atom_site_thermal_displace_type
  _atom_site_B_iso_or_equiv
  _atom_site_type_symbol
  Cu1      1.0000 0.85742  0.28050  0.20816  Biso   1.000  Cu
  Cu2      1.0000 0.14258  0.71950  0.79184  Biso   1.000  Cu
  Cl1      1.0000 0.03350  0.47700  0.22530  Biso   1.000  Cl
  Cl2      1.0000 0.96650  0.52300  0.77470  Biso   1.000  Cl
  O1       1.0000 0.00430  0.22310  0.05400  Biso   1.000  O
  O2       1.0000 0.99570  0.77690  0.94600  Biso   1.000  O
  O3       1.0000 0.79070  0.96340  0.16280  Biso   1.000  O
  O4       1.0000 0.20930  0.03660  0.83720  Biso   1.000  O
  O5       1.0000 0.03040  0.15330  0.32170  Biso   1.000  O
  O6       1.0000 0.96960  0.84670  0.67830  Biso   1.000  O
  O7       1.0000 0.69900  0.00930  0.48400  Biso   1.000  O
  O8       1.0000 0.30100  0.99070  0.51600  Biso   1.000  O
  O9       1.0000 0.81200  0.72380  0.34130  Biso   1.000  O
  O10      1.0000 0.18800  0.27620  0.65870  Biso   1.000  O
  H1       1.0000 0.90920  0.67320  0.27230  Biso   1.000  H
  H2       1.0000 0.09080  0.32680  0.72770  Biso   1.000  H
  H3       1.0000 0.86720  0.80870  0.29390  Biso   1.000  H
  H4       1.0000 0.13280  0.19130  0.70610  Biso   1.000  H
  N1       1.0000 0.47950  0.31060  0.50370  Biso   1.000  N
  N2       1.0000 0.52050  0.68940  0.49630  Biso   1.000  N
  H5       1.0000 0.37590  0.29930  0.53670  Biso   1.000  H
  H6       1.0000 0.62410  0.70070  0.46330  Biso   1.000  H
  N3       1.0000 0.70700  0.31810  0.36270  Biso   1.000  N
  N4       1.0000 0.29300  0.68190  0.63730  Biso   1.000  N
  N5       1.0000 0.64230  0.29950  0.09390  Biso   1.000  N
  N6       1.0000 0.35770  0.70050  0.90610  Biso   1.000  N
  N7       1.0000 0.36100  0.31490  0.04060  Biso   1.000  N
  N8       1.0000 0.63900  0.68510  0.95940  Biso   1.000  N
  H7       1.0000 0.24830  0.31140  0.04750  Biso   1.000  H
  H8       1.0000 0.75170  0.68860  0.95250  Biso   1.000  H
  N9       1.0000 0.46130  0.07650  0.28890  Biso   1.000  N
  N10      1.0000 0.53870  0.92350  0.71110  Biso   1.000  N
  H9       1.0000 0.57860  0.05440  0.28800  Biso   1.000  H
  H10      1.0000 0.42140  0.94560  0.71200  Biso   1.000  H
  H11      1.0000 0.41900  0.04690  0.36860  Biso   1.000  H
  H12      1.0000 0.58100  0.95310  0.63140  Biso   1.000  H
  C1       1.0000 0.38100  0.00110  0.18610  Biso   1.000  C
  C2       1.0000 0.61900  0.99890  0.81390  Biso   1.000  C
  H13      1.0000 0.40880  0.90460  0.20340  Biso   1.000  H
  H14      1.0000 0.59120  0.09540  0.79660  Biso   1.000  H
  H15      1.0000 0.42700  0.02940  0.10030  Biso   1.000  H
  H16      1.0000 0.57300  0.97060  0.89970  Biso   1.000  H
  H17      1.0000 0.25500  0.02030  0.18800  Biso   1.000  H
  H18      1.0000 0.74500  0.97970  0.81200  Biso   1.000  H
  C3       1.0000 0.43110  0.23220  0.27590  Biso   1.000  C
  C4       1.0000 0.56890  0.76780  0.72410  Biso   1.000  C
  H19      1.0000 0.30530  0.25720  0.29170  Biso   1.000  H
  H20      1.0000 0.69470  0.74280  0.70830  Biso   1.000  H
  C5       1.0000 0.53250  0.28870  0.37820  Biso   1.000  C
  C6       1.0000 0.46750  0.71130  0.62180  Biso   1.000  C
  C7       1.0000 0.61770  0.35370  0.56920  Biso   1.000  C
  C8       1.0000 0.38230  0.64630  0.43080  Biso   1.000  C
  H21      1.0000 0.61780  0.37570  0.65750  Biso   1.000  H
  H22      1.0000 0.38220  0.62430  0.34250  Biso   1.000  H
  C9       1.0000 0.75550  0.35860  0.48210  Biso   1.000  C
  C10      1.0000 0.24450  0.64140  0.51790  Biso   1.000  C
  H23      1.0000 0.86660  0.38560  0.50120  Biso   1.000  H
  H24      1.0000 0.13340  0.61440  0.49880  Biso   1.000  H
  C11      1.0000 0.47920  0.28440  0.13800  Biso   1.000  C
  C12      1.0000 0.52080  0.71560  0.86200  Biso   1.000  C
  C13      1.0000 0.62890  0.34310  0.96170  Biso   1.000  C
  C14      1.0000 0.37110  0.65690  0.03830  Biso   1.000  C
  H25      1.0000 0.72300  0.36270  0.90500  Biso   1.000  H
  H26      1.0000 0.27700  0.63730  0.09500  Biso   1.000  H
  C15      1.0000 0.45540  0.35280  0.92790  Biso   1.000  C
  C16      1.0000 0.54460  0.64720  0.07210  Biso   1.000  C
  H27      1.0000 0.40940  0.37980  0.84480  Biso   1.000  H
  H28      1.0000 0.59060  0.62020  0.15520  Biso   1.000  H
  C17      1.0000 0.00150  0.10050  0.02330  Biso   1.000  C
  C18      1.0000 0.99850  0.89950  0.97670  Biso   1.000  C
  C19      1.0000 0.90680  0.98390  0.07470  Biso   1.000  C
  C20      1.0000 0.09320  0.01610  0.92530  Biso   1.000  C
  C21      1.0000 0.00640  0.07110  0.41920  Biso   1.000  C
  C22      1.0000 0.99360  0.92890  0.58080  Biso   1.000  C
  C23      1.0000 0.86420  0.00600  0.49230  Biso   1.000  C
  C24      1.0000 0.13580  0.99400  0.50770  Biso   1.000  C
