data_image0
_cell_length_a       8.9677
_cell_length_b       8.9677
_cell_length_c       20.0386
_cell_angle_alpha    90
_cell_angle_beta     90
_cell_angle_gamma    120

_symmetry_space_group_name_H-M    "P 1"
_symmetry_int_tables_number       1

loop_
  _symmetry_equiv_pos_as_xyz
  'x, y, z'

loop_
  _atom_site_label
  _atom_site_occupancy
  _atom_site_fract_x
  _atom_site_fract_y
  _atom_site_fract_z
  _atom_site_thermal_displace_type
  _atom_site_B_iso_or_equiv
  _atom_site_type_symbol
  Cu1      1.0000 0.00000  0.40381  0.16670  Biso   1.000  Cu
  Cu2      1.0000 0.59619  0.59619  0.50003  Biso   1.000  Cu
  Cu3      1.0000 0.40381  0.00000  0.83337  Biso   1.000  Cu
  Cu4      1.0000 0.43011  0.43011  0.00000  Biso   1.000  Cu
  Cu5      1.0000 0.56989  0.00000  0.33333  Biso   1.000  Cu
  Cu6      1.0000 0.00000  0.56989  0.66667  Biso   1.000  Cu
  Cu7      1.0000 0.88538  0.88538  0.00000  Biso   1.000  Cu
  Cu8      1.0000 0.11462  0.00000  0.33333  Biso   1.000  Cu
  Cu9      1.0000 0.00000  0.11462  0.66667  Biso   1.000  Cu
  N1       1.0000 0.74150  0.13430  0.26479  Biso   1.000  N
  N2       1.0000 0.86570  0.60720  0.59812  Biso   1.000  N
  N3       1.0000 0.39280  0.25850  0.93146  Biso   1.000  N
  N4       1.0000 0.13430  0.74150  0.73521  Biso   1.000  N
  N5       1.0000 0.25850  0.39280  0.06854  Biso   1.000  N
  N6       1.0000 0.60720  0.86570  0.40188  Biso   1.000  N
  N7       1.0000 0.10840  0.95870  0.04905  Biso   1.000  N
  N8       1.0000 0.04130  0.14970  0.38238  Biso   1.000  N
  N9       1.0000 0.85030  0.89160  0.71572  Biso   1.000  N
  N10      1.0000 0.95870  0.10840  0.95095  Biso   1.000  N
  N11      1.0000 0.89160  0.85030  0.28428  Biso   1.000  N
  N12      1.0000 0.14970  0.04130  0.61762  Biso   1.000  N
  N13      1.0000 0.81810  0.66310  0.04042  Biso   1.000  N
  N14      1.0000 0.33690  0.15500  0.37375  Biso   1.000  N
  N15      1.0000 0.84500  0.18190  0.70709  Biso   1.000  N
  N16      1.0000 0.66310  0.81810  0.95958  Biso   1.000  N
  N17      1.0000 0.18190  0.84500  0.29291  Biso   1.000  N
  N18      1.0000 0.15500  0.33690  0.62625  Biso   1.000  N
  N19      1.0000 0.67200  0.51200  0.05051  Biso   1.000  N
  N20      1.0000 0.48800  0.16000  0.38384  Biso   1.000  N
  N21      1.0000 0.84000  0.32800  0.71718  Biso   1.000  N
  N22      1.0000 0.51200  0.67200  0.94949  Biso   1.000  N
  N23      1.0000 0.32800  0.84000  0.28282  Biso   1.000  N
  N24      1.0000 0.16000  0.48800  0.61616  Biso   1.000  N
  N25      1.0000 0.70730  0.41880  0.09060  Biso   1.000  N
  N26      1.0000 0.58120  0.28850  0.42393  Biso   1.000  N
  N27      1.0000 0.71150  0.29270  0.75727  Biso   1.000  N
  N28      1.0000 0.41880  0.70730  0.90940  Biso   1.000  N
  N29      1.0000 0.29270  0.71150  0.24273  Biso   1.000  N
  N30      1.0000 0.28850  0.58120  0.57607  Biso   1.000  N
  N31      1.0000 0.87590  0.50610  0.10730  Biso   1.000  N
  N32      1.0000 0.49390  0.36980  0.44063  Biso   1.000  N
  N33      1.0000 0.63020  0.12410  0.77397  Biso   1.000  N
  N34      1.0000 0.50610  0.87590  0.89270  Biso   1.000  N
  N35      1.0000 0.12410  0.63020  0.22603  Biso   1.000  N
  N36      1.0000 0.36980  0.49390  0.55937  Biso   1.000  N
  C1       1.0000 0.83750  0.22280  0.22681  Biso   1.000  C
  C2       1.0000 0.77720  0.61470  0.56014  Biso   1.000  C
  C3       1.0000 0.38530  0.16250  0.89348  Biso   1.000  C
  C4       1.0000 0.22280  0.83750  0.77319  Biso   1.000  C
  C5       1.0000 0.16250  0.38530  0.10652  Biso   1.000  C
  C6       1.0000 0.61470  0.77720  0.43986  Biso   1.000  C
  C7       1.0000 0.23840  0.77850  0.03110  Biso   1.000  C
  C8       1.0000 0.22150  0.45990  0.36443  Biso   1.000  C
  C9       1.0000 0.54010  0.76160  0.69777  Biso   1.000  C
  C10      1.0000 0.77850  0.23840  0.96890  Biso   1.000  C
  C11      1.0000 0.76160  0.54010  0.30223  Biso   1.000  C
  C12      1.0000 0.45990  0.22150  0.63557  Biso   1.000  C
  H1       1.0000 0.24630  0.68250  0.04790  Biso   1.000  H
  H2       1.0000 0.31750  0.56380  0.38123  Biso   1.000  H
  H3       1.0000 0.43620  0.75370  0.71457  Biso   1.000  H
  H4       1.0000 0.68250  0.24630  0.95210  Biso   1.000  H
  H5       1.0000 0.75370  0.43620  0.28543  Biso   1.000  H
  H6       1.0000 0.56380  0.31750  0.61877  Biso   1.000  H
  H7       1.0000 0.19310  0.75400  0.98650  Biso   1.000  H
  H8       1.0000 0.24600  0.43910  0.31983  Biso   1.000  H
  H9       1.0000 0.56090  0.80690  0.65317  Biso   1.000  H
  H10      1.0000 0.75400  0.19310  0.01350  Biso   1.000  H
  H11      1.0000 0.80690  0.56090  0.34683  Biso   1.000  H
  H12      1.0000 0.43910  0.24600  0.68017  Biso   1.000  H
  H13      1.0000 0.35070  0.87930  0.03070  Biso   1.000  H
  H14      1.0000 0.12070  0.47140  0.36403  Biso   1.000  H
  H15      1.0000 0.52860  0.64930  0.69737  Biso   1.000  H
  H16      1.0000 0.87930  0.35070  0.96930  Biso   1.000  H
  H17      1.0000 0.64930  0.52860  0.30263  Biso   1.000  H
  H18      1.0000 0.47140  0.12070  0.63597  Biso   1.000  H
  C13      1.0000 0.12060  0.80960  0.07524  Biso   1.000  C
  C14      1.0000 0.19040  0.31100  0.40857  Biso   1.000  C
  C15      1.0000 0.68900  0.87940  0.74191  Biso   1.000  C
  C16      1.0000 0.80960  0.12060  0.92476  Biso   1.000  C
  C17      1.0000 0.87940  0.68900  0.25809  Biso   1.000  C
  C18      1.0000 0.31100  0.19040  0.59143  Biso   1.000  C
  H19      1.0000 0.16640  0.83450  0.12080  Biso   1.000  H
  H20      1.0000 0.16550  0.33190  0.45413  Biso   1.000  H
  H21      1.0000 0.66810  0.83360  0.78747  Biso   1.000  H
  H22      1.0000 0.83450  0.16640  0.87920  Biso   1.000  H
  H23      1.0000 0.83360  0.66810  0.21253  Biso   1.000  H
  H24      1.0000 0.33190  0.16550  0.54587  Biso   1.000  H
  C19      1.0000 0.94050  0.65640  0.07591  Biso   1.000  C
  C20      1.0000 0.34360  0.28410  0.40924  Biso   1.000  C
  C21      1.0000 0.71590  0.05950  0.74258  Biso   1.000  C
  C22      1.0000 0.65640  0.94050  0.92409  Biso   1.000  C
  C23      1.0000 0.05950  0.71590  0.25742  Biso   1.000  C
  C24      1.0000 0.28410  0.34360  0.59076  Biso   1.000  C
