data_image0
_cell_length_a       14.9922
_cell_length_b       10.7225
_cell_length_c       15.0113
_cell_angle_alpha    90
_cell_angle_beta     116.043
_cell_angle_gamma    90

_symmetry_space_group_name_H-M    "P 1"
_symmetry_int_tables_number       1

loop_
  _symmetry_equiv_pos_as_xyz
  'x, y, z'

loop_
  _atom_site_label
  _atom_site_occupancy
  _atom_site_fract_x
  _atom_site_fract_y
  _atom_site_fract_z
  _atom_site_thermal_displace_type
  _atom_site_B_iso_or_equiv
  _atom_site_type_symbol
  Cu1      1.0000 0.06967  0.08781  0.53414  Biso   1.000  Cu
  Cu2      1.0000 0.93033  0.58781  0.96586  Biso   1.000  Cu
  Cu3      1.0000 0.93033  0.91219  0.46586  Biso   1.000  Cu
  Cu4      1.0000 0.06967  0.41219  0.03414  Biso   1.000  Cu
  C1       1.0000 0.48660  0.75010  0.47660  Biso   1.000  C
  C2       1.0000 0.51340  0.25010  0.02340  Biso   1.000  C
  C3       1.0000 0.51340  0.24990  0.52340  Biso   1.000  C
  C4       1.0000 0.48660  0.74990  0.97660  Biso   1.000  C
  C5       1.0000 0.45630  0.65890  0.52650  Biso   1.000  C
  C6       1.0000 0.54370  0.15890  0.97350  Biso   1.000  C
  C7       1.0000 0.54370  0.34110  0.47350  Biso   1.000  C
  C8       1.0000 0.45630  0.84110  0.02650  Biso   1.000  C
  H1       1.0000 0.38770  0.64110  0.50340  Biso   1.000  H
  H2       1.0000 0.61230  0.14110  0.99660  Biso   1.000  H
  H3       1.0000 0.61230  0.35890  0.49660  Biso   1.000  H
  H4       1.0000 0.38770  0.85890  0.00340  Biso   1.000  H
  C9       1.0000 0.52400  0.59650  0.60700  Biso   1.000  C
  C10      1.0000 0.47600  0.09650  0.89300  Biso   1.000  C
  C11      1.0000 0.47600  0.40350  0.39300  Biso   1.000  C
  C12      1.0000 0.52400  0.90350  0.10700  Biso   1.000  C
  H5       1.0000 0.50190  0.53700  0.63990  Biso   1.000  H
  H6       1.0000 0.49810  0.03700  0.86010  Biso   1.000  H
  H7       1.0000 0.49810  0.46300  0.36010  Biso   1.000  H
  H8       1.0000 0.50190  0.96300  0.13990  Biso   1.000  H
  C13      1.0000 0.62690  0.61960  0.64210  Biso   1.000  C
  C14      1.0000 0.37310  0.11960  0.85790  Biso   1.000  C
  C15      1.0000 0.37310  0.38040  0.35790  Biso   1.000  C
  C16      1.0000 0.62690  0.88040  0.14210  Biso   1.000  C
  H9       1.0000 0.67340  0.57610  0.69860  Biso   1.000  H
  H10      1.0000 0.32660  0.07610  0.80140  Biso   1.000  H
  H11      1.0000 0.32660  0.42390  0.30140  Biso   1.000  H
  H12      1.0000 0.67340  0.92390  0.19860  Biso   1.000  H
  C17      1.0000 0.65920  0.70340  0.59560  Biso   1.000  C
  C18      1.0000 0.34080  0.20340  0.90440  Biso   1.000  C
  C19      1.0000 0.34080  0.29660  0.40440  Biso   1.000  C
  C20      1.0000 0.65920  0.79660  0.09560  Biso   1.000  C
  H13      1.0000 0.72850  0.71710  0.61960  Biso   1.000  H
  H14      1.0000 0.27150  0.21710  0.88040  Biso   1.000  H
  H15      1.0000 0.27150  0.28290  0.38040  Biso   1.000  H
  H16      1.0000 0.72850  0.78290  0.11960  Biso   1.000  H
  C21      1.0000 0.59160  0.77180  0.51120  Biso   1.000  C
  C22      1.0000 0.40840  0.27180  0.98880  Biso   1.000  C
  C23      1.0000 0.40840  0.22820  0.48880  Biso   1.000  C
  C24      1.0000 0.59160  0.72820  0.01120  Biso   1.000  C
  C25      1.0000 0.62390  0.86060  0.46460  Biso   1.000  C
  C26      1.0000 0.37610  0.36060  0.03540  Biso   1.000  C
  C27      1.0000 0.37610  0.13940  0.53540  Biso   1.000  C
  C28      1.0000 0.62390  0.63940  0.96460  Biso   1.000  C
  H17      1.0000 0.69300  0.87000  0.48440  Biso   1.000  H
  H18      1.0000 0.30700  0.37000  0.01560  Biso   1.000  H
  H19      1.0000 0.30700  0.13000  0.51560  Biso   1.000  H
  H20      1.0000 0.69300  0.63000  0.98440  Biso   1.000  H
  C29      1.0000 0.55700  0.93640  0.38910  Biso   1.000  C
  C30      1.0000 0.44300  0.43640  0.11090  Biso   1.000  C
  C31      1.0000 0.44300  0.06360  0.61090  Biso   1.000  C
  C32      1.0000 0.55700  0.56360  0.88910  Biso   1.000  C
  C33      1.0000 0.58900  0.03810  0.34880  Biso   1.000  C
  C34      1.0000 0.41100  0.53810  0.15120  Biso   1.000  C
  C35      1.0000 0.41100  0.96190  0.65120  Biso   1.000  C
  C36      1.0000 0.58900  0.46190  0.84880  Biso   1.000  C
  H21      1.0000 0.65800  0.05000  0.36900  Biso   1.000  H
  H22      1.0000 0.34200  0.55000  0.13100  Biso   1.000  H
  H23      1.0000 0.34200  0.95000  0.63100  Biso   1.000  H
  H24      1.0000 0.65800  0.45000  0.86900  Biso   1.000  H
  C37      1.0000 0.52310  0.11800  0.28240  Biso   1.000  C
  C38      1.0000 0.47690  0.61800  0.21760  Biso   1.000  C
  C39      1.0000 0.47690  0.88200  0.71760  Biso   1.000  C
  C40      1.0000 0.52310  0.38200  0.78240  Biso   1.000  C
  H25      1.0000 0.54630  0.18680  0.25850  Biso   1.000  H
  H26      1.0000 0.45370  0.68680  0.24150  Biso   1.000  H
  H27      1.0000 0.45370  0.81320  0.74150  Biso   1.000  H
  H28      1.0000 0.54630  0.31320  0.75850  Biso   1.000  H
  C41      1.0000 0.41950  0.09900  0.24840  Biso   1.000  C
  C42      1.0000 0.58050  0.59900  0.25160  Biso   1.000  C
  C43      1.0000 0.58050  0.90100  0.75160  Biso   1.000  C
  C44      1.0000 0.41950  0.40100  0.74840  Biso   1.000  C
  H29      1.0000 0.37360  0.15540  0.20210  Biso   1.000  H
  H30      1.0000 0.62640  0.65540  0.29790  Biso   1.000  H
  H31      1.0000 0.62640  0.84460  0.79790  Biso   1.000  H
  H32      1.0000 0.37360  0.34460  0.70210  Biso   1.000  H
  C45      1.0000 0.38570  0.00050  0.28200  Biso   1.000  C
  C46      1.0000 0.61430  0.50050  0.21800  Biso   1.000  C
  C47      1.0000 0.61430  0.99950  0.71800  Biso   1.000  C
  C48      1.0000 0.38570  0.49950  0.78200  Biso   1.000  C
  H33      1.0000 0.31620  0.98660  0.25600  Biso   1.000  H
  H34      1.0000 0.68380  0.48660  0.24400  Biso   1.000  H
  H35      1.0000 0.68380  0.01340  0.74400  Biso   1.000  H
  H36      1.0000 0.31620  0.51340  0.75600  Biso   1.000  H
  C49      1.0000 0.45200  0.91780  0.35520  Biso   1.000  C
  C50      1.0000 0.54800  0.41780  0.14480  Biso   1.000  C
  C51      1.0000 0.54800  0.08220  0.64480  Biso   1.000  C
  C52      1.0000 0.45200  0.58220  0.85520  Biso   1.000  C
  C53      1.0000 0.41930  0.82140  0.39800  Biso   1.000  C
  C54      1.0000 0.58070  0.32140  0.10200  Biso   1.000  C
  C55      1.0000 0.58070  0.17860  0.60200  Biso   1.000  C
  C56      1.0000 0.41930  0.67860  0.89800  Biso   1.000  C
  C57      1.0000 0.30990  0.79810  0.36060  Biso   1.000  C
  C58      1.0000 0.69010  0.29810  0.13940  Biso   1.000  C
  C59      1.0000 0.69010  0.20190  0.63940  Biso   1.000  C
  C60      1.0000 0.30990  0.70190  0.86060  Biso   1.000  C
  C61      1.0000 0.25950  0.71290  0.28410  Biso   1.000  C
  C62      1.0000 0.74050  0.21290  0.21590  Biso   1.000  C
  C63      1.0000 0.74050  0.28710  0.71590  Biso   1.000  C
  C64      1.0000 0.25950  0.78710  0.78410  Biso   1.000  C
  H37      1.0000 0.29560  0.66550  0.25740  Biso   1.000  H
  H38      1.0000 0.70440  0.16550  0.24260  Biso   1.000  H
  H39      1.0000 0.70440  0.33450  0.74260  Biso   1.000  H
  H40      1.0000 0.29560  0.83450  0.75740  Biso   1.000  H
  C65      1.0000 0.15750  0.69690  0.24690  Biso   1.000  C
  C66      1.0000 0.84250  0.19690  0.25310  Biso   1.000  C
  C67      1.0000 0.84250  0.30310  0.75310  Biso   1.000  C
  C68      1.0000 0.15750  0.80310  0.74690  Biso   1.000  C
  C69      1.0000 0.10500  0.76030  0.28980  Biso   1.000  C
  C70      1.0000 0.89500  0.26030  0.21020  Biso   1.000  C
  C71      1.0000 0.89500  0.23970  0.71020  Biso   1.000  C
  C72      1.0000 0.10500  0.73970  0.78980  Biso   1.000  C
  H41      1.0000 0.03530  0.74880  0.26480  Biso   1.000  H
  H42      1.0000 0.96470  0.24880  0.23520  Biso   1.000  H
  H43      1.0000 0.96470  0.25120  0.73520  Biso   1.000  H
  H44      1.0000 0.03530  0.75120  0.76480  Biso   1.000  H
  C73      1.0000 0.15460  0.84020  0.36910  Biso   1.000  C
  C74      1.0000 0.84540  0.34020  0.13090  Biso   1.000  C
  C75      1.0000 0.84540  0.15980  0.63090  Biso   1.000  C
  C76      1.0000 0.15460  0.65980  0.86910  Biso   1.000  C
  C77      1.0000 0.25590  0.86120  0.40230  Biso   1.000  C
  C78      1.0000 0.74410  0.36120  0.09770  Biso   1.000  C
  C79      1.0000 0.74410  0.13880  0.59770  Biso   1.000  C
  C80      1.0000 0.25590  0.63880  0.90230  Biso   1.000  C
  H45      1.0000 0.28880  0.91940  0.45420  Biso   1.000  H
  H46      1.0000 0.71120  0.41940  0.04580  Biso   1.000  H
  H47      1.0000 0.71120  0.08060  0.54580  Biso   1.000  H
  H48      1.0000 0.28880  0.58060  0.95420  Biso   1.000  H
  C81      1.0000 0.10230  0.61670  0.15750  Biso   1.000  C
  C82      1.0000 0.89770  0.11670  0.34250  Biso   1.000  C
  C83      1.0000 0.89770  0.38330  0.84250  Biso   1.000  C
  C84      1.0000 0.10230  0.88330  0.65750  Biso   1.000  C
  O1       1.0000 0.14230  0.51640  0.15103  Biso   1.000  O
  O2       1.0000 0.85770  0.01640  0.34897  Biso   1.000  O
  O3       1.0000 0.85770  0.48360  0.84897  Biso   1.000  O
  O4       1.0000 0.14230  0.98360  0.65103  Biso   1.000  O
  O5       1.0000 0.02019  0.65930  0.09553  Biso   1.000  O
  O6       1.0000 0.97981  0.15930  0.40447  Biso   1.000  O
  O7       1.0000 0.97981  0.34070  0.90447  Biso   1.000  O
  O8       1.0000 0.02019  0.84070  0.59553  Biso   1.000  O
  C85      1.0000 0.09960  0.90370  0.41900  Biso   1.000  C
  C86      1.0000 0.90040  0.40370  0.08100  Biso   1.000  C
  C87      1.0000 0.90040  0.09630  0.58100  Biso   1.000  C
  C88      1.0000 0.09960  0.59630  0.91900  Biso   1.000  C
  O9       1.0000 0.01910  0.85540  0.40789  Biso   1.000  O
  O10      1.0000 0.98090  0.35540  0.09211  Biso   1.000  O
  O11      1.0000 0.98090  0.14460  0.59211  Biso   1.000  O
  O12      1.0000 0.01910  0.64460  0.90789  Biso   1.000  O
  O13      1.0000 0.13891  0.99970  0.46898  Biso   1.000  O
  O14      1.0000 0.86109  0.49970  0.03102  Biso   1.000  O
  O15      1.0000 0.86109  0.00030  0.53102  Biso   1.000  O
  O16      1.0000 0.13891  0.50030  0.96898  Biso   1.000  O
  O17      1.0000 0.15958  0.25210  0.57380  Biso   1.000  O
  O18      1.0000 0.84042  0.75210  0.92620  Biso   1.000  O
  O19      1.0000 0.84042  0.74790  0.42620  Biso   1.000  O
  O20      1.0000 0.15958  0.24790  0.07380  Biso   1.000  O
  C89      1.0000 0.14310  0.35650  0.59630  Biso   1.000  C
  C90      1.0000 0.85690  0.85650  0.90370  Biso   1.000  C
  C91      1.0000 0.85690  0.64350  0.40370  Biso   1.000  C
  C92      1.0000 0.14310  0.14350  0.09630  Biso   1.000  C
  N1       1.0000 0.14260  0.45780  0.54560  Biso   1.000  N
  N2       1.0000 0.85740  0.95780  0.95440  Biso   1.000  N
  N3       1.0000 0.85740  0.54220  0.45440  Biso   1.000  N
  N4       1.0000 0.14260  0.04220  0.04560  Biso   1.000  N
  C93      1.0000 0.12300  0.37300  0.68700  Biso   1.000  C
  C94      1.0000 0.87700  0.87300  0.81300  Biso   1.000  C
  C95      1.0000 0.87700  0.62700  0.31300  Biso   1.000  C
  C96      1.0000 0.12300  0.12700  0.18700  Biso   1.000  C
  H49      1.0000 0.11460  0.29100  0.71120  Biso   1.000  H
  H50      1.0000 0.88540  0.79100  0.78880  Biso   1.000  H
  H51      1.0000 0.88540  0.70900  0.28880  Biso   1.000  H
  H52      1.0000 0.11460  0.20900  0.21120  Biso   1.000  H
  H53      1.0000 0.06240  0.42220  0.66870  Biso   1.000  H
  H54      1.0000 0.93760  0.92220  0.83130  Biso   1.000  H
  H55      1.0000 0.93760  0.57780  0.33130  Biso   1.000  H
  H56      1.0000 0.06240  0.07780  0.16870  Biso   1.000  H
  H57      1.0000 0.17910  0.41640  0.73930  Biso   1.000  H
  H58      1.0000 0.82090  0.91640  0.76070  Biso   1.000  H
  H59      1.0000 0.82090  0.58360  0.26070  Biso   1.000  H
  H60      1.0000 0.17910  0.08360  0.23930  Biso   1.000  H
  C97      1.0000 0.13250  0.58520  0.57030  Biso   1.000  C
  C98      1.0000 0.86750  0.08520  0.92970  Biso   1.000  C
  C99      1.0000 0.86750  0.41480  0.42970  Biso   1.000  C
  C100     1.0000 0.13250  0.91480  0.07030  Biso   1.000  C
  H61      1.0000 0.11070  0.58680  0.62300  Biso   1.000  H
  H62      1.0000 0.88930  0.08680  0.87700  Biso   1.000  H
  H63      1.0000 0.88930  0.41320  0.37700  Biso   1.000  H
  H64      1.0000 0.11070  0.91320  0.12300  Biso   1.000  H
  H65      1.0000 0.08340  0.62790  0.51150  Biso   1.000  H
  H66      1.0000 0.91660  0.12790  0.98850  Biso   1.000  H
  H67      1.0000 0.91660  0.37210  0.48850  Biso   1.000  H
  H68      1.0000 0.08340  0.87210  0.01150  Biso   1.000  H
  H69      1.0000 0.19670  0.62760  0.59320  Biso   1.000  H
  H70      1.0000 0.80330  0.12760  0.90680  Biso   1.000  H
  H71      1.0000 0.80330  0.37240  0.40680  Biso   1.000  H
  H72      1.0000 0.19670  0.87240  0.09320  Biso   1.000  H
  C101     1.0000 0.16380  0.44110  0.45960  Biso   1.000  C
  C102     1.0000 0.83620  0.94110  0.04040  Biso   1.000  C
  C103     1.0000 0.83620  0.55890  0.54040  Biso   1.000  C
  C104     1.0000 0.16380  0.05890  0.95960  Biso   1.000  C
  H73      1.0000 0.14200  0.35810  0.43110  Biso   1.000  H
  H74      1.0000 0.85800  0.85810  0.06890  Biso   1.000  H
  H75      1.0000 0.85800  0.64190  0.56890  Biso   1.000  H
  H76      1.0000 0.14200  0.14190  0.93110  Biso   1.000  H
  H77      1.0000 0.23540  0.44950  0.48070  Biso   1.000  H
  H78      1.0000 0.76460  0.94950  0.01930  Biso   1.000  H
  H79      1.0000 0.76460  0.55050  0.51930  Biso   1.000  H
  H80      1.0000 0.23540  0.05050  0.98070  Biso   1.000  H
  H81      1.0000 0.12840  0.50470  0.40960  Biso   1.000  H
  H82      1.0000 0.87160  0.00470  0.09040  Biso   1.000  H
  H83      1.0000 0.87160  0.49530  0.59040  Biso   1.000  H
  H84      1.0000 0.12840  0.99530  0.90960  Biso   1.000  H
