data_image0
_cell_length_a       12.8014
_cell_length_b       12.9402
_cell_length_c       26.5305
_cell_angle_alpha    90
_cell_angle_beta     90
_cell_angle_gamma    90

_symmetry_space_group_name_H-M    "P 1"
_symmetry_int_tables_number       1

loop_
  _symmetry_equiv_pos_as_xyz
  'x, y, z'

loop_
  _atom_site_label
  _atom_site_occupancy
  _atom_site_fract_x
  _atom_site_fract_y
  _atom_site_fract_z
  _atom_site_thermal_displace_type
  _atom_site_B_iso_or_equiv
  _atom_site_type_symbol
  C1       1.0000 0.44421  0.33417  0.45826  Biso   1.000  C
  C2       1.0000 0.05579  0.66583  0.95826  Biso   1.000  C
  C3       1.0000 0.55579  0.83417  0.04174  Biso   1.000  C
  C4       1.0000 0.94421  0.16583  0.54174  Biso   1.000  C
  C5       1.0000 0.55579  0.66583  0.54174  Biso   1.000  C
  C6       1.0000 0.94421  0.33417  0.04174  Biso   1.000  C
  C7       1.0000 0.44421  0.16583  0.95826  Biso   1.000  C
  C8       1.0000 0.05579  0.83417  0.45826  Biso   1.000  C
  C9       1.0000 0.38577  0.25116  0.43071  Biso   1.000  C
  C10      1.0000 0.11423  0.74884  0.93071  Biso   1.000  C
  C11      1.0000 0.61423  0.75116  0.06929  Biso   1.000  C
  C12      1.0000 0.88577  0.24884  0.56929  Biso   1.000  C
  C13      1.0000 0.61423  0.74884  0.56929  Biso   1.000  C
  C14      1.0000 0.88577  0.25116  0.06929  Biso   1.000  C
  C15      1.0000 0.38577  0.24884  0.93071  Biso   1.000  C
  C16      1.0000 0.11423  0.75116  0.43071  Biso   1.000  C
  C17      1.0000 0.30744  0.19606  0.45530  Biso   1.000  C
  C18      1.0000 0.19256  0.80394  0.95530  Biso   1.000  C
  C19      1.0000 0.69256  0.69606  0.04470  Biso   1.000  C
  C20      1.0000 0.80744  0.30394  0.54470  Biso   1.000  C
  C21      1.0000 0.69256  0.80394  0.54470  Biso   1.000  C
  C22      1.0000 0.80744  0.19606  0.04470  Biso   1.000  C
  C23      1.0000 0.30744  0.30394  0.95530  Biso   1.000  C
  C24      1.0000 0.19256  0.69606  0.45530  Biso   1.000  C
  H1       1.0000 0.29900  0.20200  0.49080  Biso   1.000  H
  H2       1.0000 0.20100  0.79800  0.99080  Biso   1.000  H
  H3       1.0000 0.70100  0.70200  0.00920  Biso   1.000  H
  H4       1.0000 0.79900  0.29800  0.50920  Biso   1.000  H
  H5       1.0000 0.70100  0.79800  0.50920  Biso   1.000  H
  H6       1.0000 0.79900  0.20200  0.00920  Biso   1.000  H
  H7       1.0000 0.29900  0.29800  0.99080  Biso   1.000  H
  H8       1.0000 0.20100  0.70200  0.49080  Biso   1.000  H
  C25      1.0000 0.24165  0.13226  0.42752  Biso   1.000  C
  C26      1.0000 0.25835  0.86774  0.92752  Biso   1.000  C
  C27      1.0000 0.75835  0.63226  0.07248  Biso   1.000  C
  C28      1.0000 0.74165  0.36774  0.57248  Biso   1.000  C
  C29      1.0000 0.75835  0.86774  0.57248  Biso   1.000  C
  C30      1.0000 0.74165  0.13226  0.07248  Biso   1.000  C
  C31      1.0000 0.24165  0.36774  0.92752  Biso   1.000  C
  C32      1.0000 0.25835  0.63226  0.42752  Biso   1.000  C
  C33      1.0000 0.25590  0.12144  0.37574  Biso   1.000  C
  C34      1.0000 0.24410  0.87856  0.87574  Biso   1.000  C
  C35      1.0000 0.74410  0.62144  0.12426  Biso   1.000  C
  C36      1.0000 0.75590  0.37856  0.62426  Biso   1.000  C
  C37      1.0000 0.74410  0.87856  0.62426  Biso   1.000  C
  C38      1.0000 0.75590  0.12144  0.12426  Biso   1.000  C
  C39      1.0000 0.25590  0.37856  0.87574  Biso   1.000  C
  C40      1.0000 0.24410  0.62144  0.37574  Biso   1.000  C
  H9       1.0000 0.20960  0.07910  0.35690  Biso   1.000  H
  H10      1.0000 0.29040  0.92090  0.85690  Biso   1.000  H
  H11      1.0000 0.79040  0.57910  0.14310  Biso   1.000  H
  H12      1.0000 0.70960  0.42090  0.64310  Biso   1.000  H
  H13      1.0000 0.79040  0.92090  0.64310  Biso   1.000  H
  H14      1.0000 0.70960  0.07910  0.14310  Biso   1.000  H
  H15      1.0000 0.20960  0.42090  0.85690  Biso   1.000  H
  H16      1.0000 0.29040  0.57910  0.35690  Biso   1.000  H
  C41      1.0000 0.33766  0.17227  0.35130  Biso   1.000  C
  C42      1.0000 0.16234  0.82773  0.85130  Biso   1.000  C
  C43      1.0000 0.66234  0.67227  0.14870  Biso   1.000  C
  C44      1.0000 0.83766  0.32773  0.64870  Biso   1.000  C
  C45      1.0000 0.66234  0.82773  0.64870  Biso   1.000  C
  C46      1.0000 0.83766  0.17227  0.14870  Biso   1.000  C
  C47      1.0000 0.33766  0.32773  0.85130  Biso   1.000  C
  C48      1.0000 0.16234  0.67227  0.35130  Biso   1.000  C
  C49      1.0000 0.40199  0.23778  0.37919  Biso   1.000  C
  C50      1.0000 0.09801  0.76222  0.87919  Biso   1.000  C
  C51      1.0000 0.59801  0.73778  0.12081  Biso   1.000  C
  C52      1.0000 0.90199  0.26222  0.62081  Biso   1.000  C
  C53      1.0000 0.59801  0.76222  0.62081  Biso   1.000  C
  C54      1.0000 0.90199  0.23778  0.12081  Biso   1.000  C
  C55      1.0000 0.40199  0.26222  0.87919  Biso   1.000  C
  C56      1.0000 0.09801  0.73778  0.37919  Biso   1.000  C
  H17      1.0000 0.45730  0.27360  0.36290  Biso   1.000  H
  H18      1.0000 0.04270  0.72640  0.86290  Biso   1.000  H
  H19      1.0000 0.54270  0.77360  0.13710  Biso   1.000  H
  H20      1.0000 0.95730  0.22640  0.63710  Biso   1.000  H
  H21      1.0000 0.54270  0.72640  0.63710  Biso   1.000  H
  H22      1.0000 0.95730  0.27360  0.13710  Biso   1.000  H
  H23      1.0000 0.45730  0.22640  0.86290  Biso   1.000  H
  H24      1.0000 0.04270  0.77360  0.36290  Biso   1.000  H
  C57      1.0000 0.15134  0.08147  0.45369  Biso   1.000  C
  C58      1.0000 0.34866  0.91853  0.95369  Biso   1.000  C
  C59      1.0000 0.84866  0.58147  0.04631  Biso   1.000  C
  C60      1.0000 0.65134  0.41853  0.54631  Biso   1.000  C
  C61      1.0000 0.84866  0.91853  0.54631  Biso   1.000  C
  C62      1.0000 0.65134  0.08147  0.04631  Biso   1.000  C
  C63      1.0000 0.15134  0.41853  0.95369  Biso   1.000  C
  C64      1.0000 0.34866  0.58147  0.45369  Biso   1.000  C
  C65      1.0000 0.35252  0.16255  0.29562  Biso   1.000  C
  C66      1.0000 0.14748  0.83745  0.79562  Biso   1.000  C
  C67      1.0000 0.64748  0.66255  0.20438  Biso   1.000  C
  C68      1.0000 0.85252  0.33745  0.70438  Biso   1.000  C
  C69      1.0000 0.64748  0.83745  0.70438  Biso   1.000  C
  C70      1.0000 0.85252  0.16255  0.20438  Biso   1.000  C
  C71      1.0000 0.35252  0.33745  0.79562  Biso   1.000  C
  C72      1.0000 0.14748  0.66255  0.29562  Biso   1.000  C
  C73      1.0000 0.43645  0.10580  0.27555  Biso   1.000  C
  C74      1.0000 0.06355  0.89420  0.77555  Biso   1.000  C
  C75      1.0000 0.56355  0.60580  0.22445  Biso   1.000  C
  C76      1.0000 0.93645  0.39420  0.72445  Biso   1.000  C
  C77      1.0000 0.56355  0.89420  0.72445  Biso   1.000  C
  C78      1.0000 0.93645  0.10580  0.22445  Biso   1.000  C
  C79      1.0000 0.43645  0.39420  0.77555  Biso   1.000  C
  C80      1.0000 0.06355  0.60580  0.27555  Biso   1.000  C
  C81      1.0000 0.51310  0.05516  0.30568  Biso   1.000  C
  C82      1.0000 0.98690  0.94484  0.80568  Biso   1.000  C
  C83      1.0000 0.48690  0.55516  0.19432  Biso   1.000  C
  C84      1.0000 0.01310  0.44484  0.69432  Biso   1.000  C
  C85      1.0000 0.48690  0.94484  0.69432  Biso   1.000  C
  C86      1.0000 0.01310  0.05516  0.19432  Biso   1.000  C
  C87      1.0000 0.51310  0.44484  0.80568  Biso   1.000  C
  C88      1.0000 0.98690  0.55516  0.30568  Biso   1.000  C
  H25      1.0000 0.50950  0.06010  0.34140  Biso   1.000  H
  H26      1.0000 0.99050  0.93990  0.84140  Biso   1.000  H
  H27      1.0000 0.49050  0.56010  0.15860  Biso   1.000  H
  H28      1.0000 0.00950  0.43990  0.65860  Biso   1.000  H
  H29      1.0000 0.49050  0.93990  0.65860  Biso   1.000  H
  H30      1.0000 0.00950  0.06010  0.15860  Biso   1.000  H
  H31      1.0000 0.50950  0.43990  0.84140  Biso   1.000  H
  H32      1.0000 0.99050  0.56010  0.34140  Biso   1.000  H
  C89      1.0000 0.59169  0.99954  0.28384  Biso   1.000  C
  C90      1.0000 0.90831  0.00046  0.78384  Biso   1.000  C
  C91      1.0000 0.40831  0.49954  0.21616  Biso   1.000  C
  C92      1.0000 0.09169  0.50046  0.71616  Biso   1.000  C
  C93      1.0000 0.40831  0.00046  0.71616  Biso   1.000  C
  C94      1.0000 0.09169  0.99954  0.21616  Biso   1.000  C
  C95      1.0000 0.59169  0.50046  0.78384  Biso   1.000  C
  C96      1.0000 0.90831  0.49954  0.28384  Biso   1.000  C
  H33      1.0000 0.64290  0.96730  0.30440  Biso   1.000  H
  H34      1.0000 0.85710  0.03270  0.80440  Biso   1.000  H
  H35      1.0000 0.35710  0.46730  0.19560  Biso   1.000  H
  H36      1.0000 0.14290  0.53270  0.69560  Biso   1.000  H
  H37      1.0000 0.35710  0.03270  0.69560  Biso   1.000  H
  H38      1.0000 0.14290  0.96730  0.19560  Biso   1.000  H
  H39      1.0000 0.64290  0.53270  0.80440  Biso   1.000  H
  H40      1.0000 0.85710  0.46730  0.30440  Biso   1.000  H
  C97      1.0000 0.59742  0.98950  0.23067  Biso   1.000  C
  C98      1.0000 0.90258  0.01050  0.73067  Biso   1.000  C
  C99      1.0000 0.40258  0.48950  0.26933  Biso   1.000  C
  C100     1.0000 0.09742  0.51050  0.76933  Biso   1.000  C
  C101     1.0000 0.40258  0.01050  0.76933  Biso   1.000  C
  C102     1.0000 0.09742  0.98950  0.26933  Biso   1.000  C
  C103     1.0000 0.59742  0.51050  0.73067  Biso   1.000  C
  C104     1.0000 0.90258  0.48950  0.23067  Biso   1.000  C
  H41      1.0000 0.65180  0.94950  0.21610  Biso   1.000  H
  H42      1.0000 0.84820  0.05050  0.71610  Biso   1.000  H
  H43      1.0000 0.34820  0.44950  0.28390  Biso   1.000  H
  H44      1.0000 0.15180  0.55050  0.78390  Biso   1.000  H
  H45      1.0000 0.34820  0.05050  0.78390  Biso   1.000  H
  H46      1.0000 0.15180  0.94950  0.28390  Biso   1.000  H
  H47      1.0000 0.65180  0.55050  0.71610  Biso   1.000  H
  H48      1.0000 0.84820  0.44950  0.21610  Biso   1.000  H
  C105     1.0000 0.52627  0.03634  0.20040  Biso   1.000  C
  C106     1.0000 0.97373  0.96366  0.70040  Biso   1.000  C
  C107     1.0000 0.47373  0.53634  0.29960  Biso   1.000  C
  C108     1.0000 0.02627  0.46366  0.79960  Biso   1.000  C
  C109     1.0000 0.47373  0.96366  0.79960  Biso   1.000  C
  C110     1.0000 0.02627  0.03634  0.29960  Biso   1.000  C
  C111     1.0000 0.52627  0.46366  0.70040  Biso   1.000  C
  C112     1.0000 0.97373  0.53634  0.20040  Biso   1.000  C
  H49      1.0000 0.53090  0.02850  0.16490  Biso   1.000  H
  H50      1.0000 0.96910  0.97150  0.66490  Biso   1.000  H
  H51      1.0000 0.46910  0.52850  0.33510  Biso   1.000  H
  H52      1.0000 0.03090  0.47150  0.83510  Biso   1.000  H
  H53      1.0000 0.46910  0.97150  0.83510  Biso   1.000  H
  H54      1.0000 0.03090  0.02850  0.33510  Biso   1.000  H
  H55      1.0000 0.53090  0.47150  0.66490  Biso   1.000  H
  H56      1.0000 0.96910  0.52850  0.16490  Biso   1.000  H
  C113     1.0000 0.44441  0.09730  0.22169  Biso   1.000  C
  C114     1.0000 0.05559  0.90270  0.72169  Biso   1.000  C
  C115     1.0000 0.55559  0.59730  0.27831  Biso   1.000  C
  C116     1.0000 0.94441  0.40270  0.77831  Biso   1.000  C
  C117     1.0000 0.55559  0.90270  0.77831  Biso   1.000  C
  C118     1.0000 0.94441  0.09730  0.27831  Biso   1.000  C
  C119     1.0000 0.44441  0.40270  0.72169  Biso   1.000  C
  C120     1.0000 0.05559  0.59730  0.22169  Biso   1.000  C
  C121     1.0000 0.30211  0.20426  0.20931  Biso   1.000  C
  C122     1.0000 0.19789  0.79574  0.70931  Biso   1.000  C
  C123     1.0000 0.69789  0.70426  0.29069  Biso   1.000  C
  C124     1.0000 0.80211  0.29574  0.79069  Biso   1.000  C
  C125     1.0000 0.69789  0.79574  0.79069  Biso   1.000  C
  C126     1.0000 0.80211  0.20426  0.29069  Biso   1.000  C
  C127     1.0000 0.30211  0.29574  0.70931  Biso   1.000  C
  C128     1.0000 0.19789  0.70426  0.20931  Biso   1.000  C
  C129     1.0000 0.23783  0.26149  0.17510  Biso   1.000  C
  C130     1.0000 0.26217  0.73851  0.67510  Biso   1.000  C
  C131     1.0000 0.76217  0.76149  0.32490  Biso   1.000  C
  C132     1.0000 0.73783  0.23851  0.82490  Biso   1.000  C
  C133     1.0000 0.76217  0.73851  0.82490  Biso   1.000  C
  C134     1.0000 0.73783  0.26149  0.32490  Biso   1.000  C
  C135     1.0000 0.23783  0.23851  0.67510  Biso   1.000  C
  C136     1.0000 0.26217  0.76149  0.17510  Biso   1.000  C
  H57      1.0000 0.25070  0.25750  0.13990  Biso   1.000  H
  H58      1.0000 0.24930  0.74250  0.63990  Biso   1.000  H
  H59      1.0000 0.74930  0.75750  0.36010  Biso   1.000  H
  H60      1.0000 0.75070  0.24250  0.86010  Biso   1.000  H
  H61      1.0000 0.74930  0.74250  0.86010  Biso   1.000  H
  H62      1.0000 0.75070  0.25750  0.36010  Biso   1.000  H
  H63      1.0000 0.25070  0.24250  0.63990  Biso   1.000  H
  H64      1.0000 0.24930  0.75750  0.13990  Biso   1.000  H
  C137     1.0000 0.15864  0.32146  0.19257  Biso   1.000  C
  C138     1.0000 0.34136  0.67854  0.69257  Biso   1.000  C
  C139     1.0000 0.84136  0.82146  0.30743  Biso   1.000  C
  C140     1.0000 0.65864  0.17854  0.80743  Biso   1.000  C
  C141     1.0000 0.84136  0.67854  0.80743  Biso   1.000  C
  C142     1.0000 0.65864  0.32146  0.30743  Biso   1.000  C
  C143     1.0000 0.15864  0.17854  0.69257  Biso   1.000  C
  C144     1.0000 0.34136  0.82146  0.19257  Biso   1.000  C
  H65      1.0000 0.11730  0.36000  0.16950  Biso   1.000  H
  H66      1.0000 0.38270  0.64000  0.66950  Biso   1.000  H
  H67      1.0000 0.88270  0.86000  0.33050  Biso   1.000  H
  H68      1.0000 0.61730  0.14000  0.83050  Biso   1.000  H
  H69      1.0000 0.88270  0.64000  0.83050  Biso   1.000  H
  H70      1.0000 0.61730  0.36000  0.33050  Biso   1.000  H
  H71      1.0000 0.11730  0.14000  0.66950  Biso   1.000  H
  H72      1.0000 0.38270  0.86000  0.16950  Biso   1.000  H
  C145     1.0000 0.13716  0.32692  0.24508  Biso   1.000  C
  C146     1.0000 0.36284  0.67308  0.74508  Biso   1.000  C
  C147     1.0000 0.86284  0.82692  0.25492  Biso   1.000  C
  C148     1.0000 0.63716  0.17308  0.75492  Biso   1.000  C
  C149     1.0000 0.86284  0.67308  0.75492  Biso   1.000  C
  C150     1.0000 0.63716  0.32692  0.25492  Biso   1.000  C
  C151     1.0000 0.13716  0.17308  0.74508  Biso   1.000  C
  C152     1.0000 0.36284  0.82692  0.24508  Biso   1.000  C
  H73      1.0000 0.08010  0.36730  0.25670  Biso   1.000  H
  H74      1.0000 0.41990  0.63270  0.75670  Biso   1.000  H
  H75      1.0000 0.91990  0.86730  0.24330  Biso   1.000  H
  H76      1.0000 0.58010  0.13270  0.74330  Biso   1.000  H
  H77      1.0000 0.91990  0.63270  0.74330  Biso   1.000  H
  H78      1.0000 0.58010  0.36730  0.24330  Biso   1.000  H
  H79      1.0000 0.08010  0.13270  0.75670  Biso   1.000  H
  H80      1.0000 0.41990  0.86730  0.25670  Biso   1.000  H
  C153     1.0000 0.19765  0.27472  0.27887  Biso   1.000  C
  C154     1.0000 0.30235  0.72528  0.77887  Biso   1.000  C
  C155     1.0000 0.80235  0.77472  0.22113  Biso   1.000  C
  C156     1.0000 0.69765  0.22528  0.72113  Biso   1.000  C
  C157     1.0000 0.80235  0.72528  0.72113  Biso   1.000  C
  C158     1.0000 0.69765  0.27472  0.22113  Biso   1.000  C
  C159     1.0000 0.19765  0.22528  0.77887  Biso   1.000  C
  C160     1.0000 0.30235  0.77472  0.27887  Biso   1.000  C
  H81      1.0000 0.18240  0.27950  0.31380  Biso   1.000  H
  H82      1.0000 0.31760  0.72050  0.81380  Biso   1.000  H
  H83      1.0000 0.81760  0.77950  0.18620  Biso   1.000  H
  H84      1.0000 0.68240  0.22050  0.68620  Biso   1.000  H
  H85      1.0000 0.81760  0.72050  0.68620  Biso   1.000  H
  H86      1.0000 0.68240  0.27950  0.18620  Biso   1.000  H
  H87      1.0000 0.18240  0.22050  0.81380  Biso   1.000  H
  H88      1.0000 0.31760  0.77950  0.31380  Biso   1.000  H
  C161     1.0000 0.28346  0.21307  0.26250  Biso   1.000  C
  C162     1.0000 0.21654  0.78693  0.76250  Biso   1.000  C
  C163     1.0000 0.71654  0.71307  0.23750  Biso   1.000  C
  C164     1.0000 0.78346  0.28693  0.73750  Biso   1.000  C
  C165     1.0000 0.71654  0.78693  0.73750  Biso   1.000  C
  C166     1.0000 0.78346  0.21307  0.23750  Biso   1.000  C
  C167     1.0000 0.28346  0.28693  0.76250  Biso   1.000  C
  C168     1.0000 0.21654  0.71307  0.26250  Biso   1.000  C
  C169     1.0000 0.22720  0.45990  0.59636  Biso   1.000  C
  C170     1.0000 0.27280  0.54010  0.09636  Biso   1.000  C
  C171     1.0000 0.77280  0.95990  0.90364  Biso   1.000  C
  C172     1.0000 0.72720  0.04010  0.40364  Biso   1.000  C
  C173     1.0000 0.77280  0.54010  0.40364  Biso   1.000  C
  C174     1.0000 0.72720  0.45990  0.90364  Biso   1.000  C
  C175     1.0000 0.22720  0.04010  0.09636  Biso   1.000  C
  C176     1.0000 0.27280  0.95990  0.59636  Biso   1.000  C
  H89      1.0000 0.21090  0.53290  0.58860  Biso   1.000  H
  H90      1.0000 0.28910  0.46710  0.08860  Biso   1.000  H
  H91      1.0000 0.78910  0.03290  0.91140  Biso   1.000  H
  H92      1.0000 0.71090  0.96710  0.41140  Biso   1.000  H
  H93      1.0000 0.78910  0.46710  0.41140  Biso   1.000  H
  H94      1.0000 0.71090  0.53290  0.91140  Biso   1.000  H
  H95      1.0000 0.21090  0.96710  0.08860  Biso   1.000  H
  H96      1.0000 0.28910  0.03290  0.58860  Biso   1.000  H
  H97      1.0000 0.19820  0.44480  0.63020  Biso   1.000  H
  H98      1.0000 0.30180  0.55520  0.13020  Biso   1.000  H
  H99      1.0000 0.80180  0.94480  0.86980  Biso   1.000  H
  H100     1.0000 0.69820  0.05520  0.36980  Biso   1.000  H
  H101     1.0000 0.80180  0.55520  0.36980  Biso   1.000  H
  H102     1.0000 0.69820  0.44480  0.86980  Biso   1.000  H
  H103     1.0000 0.19820  0.05520  0.13020  Biso   1.000  H
  H104     1.0000 0.30180  0.94480  0.63020  Biso   1.000  H
  C177     1.0000 0.17120  0.39250  0.55834  Biso   1.000  C
  C178     1.0000 0.32880  0.60750  0.05834  Biso   1.000  C
  C179     1.0000 0.82880  0.89250  0.94166  Biso   1.000  C
  C180     1.0000 0.67120  0.10750  0.44166  Biso   1.000  C
  C181     1.0000 0.82880  0.60750  0.44166  Biso   1.000  C
  C182     1.0000 0.67120  0.39250  0.94166  Biso   1.000  C
  C183     1.0000 0.17120  0.10750  0.05834  Biso   1.000  C
  C184     1.0000 0.32880  0.89250  0.55834  Biso   1.000  C
  H105     1.0000 0.09590  0.40620  0.55990  Biso   1.000  H
  H106     1.0000 0.40410  0.59380  0.05990  Biso   1.000  H
  H107     1.0000 0.90410  0.90620  0.94010  Biso   1.000  H
  H108     1.0000 0.59590  0.09380  0.44010  Biso   1.000  H
  H109     1.0000 0.90410  0.59380  0.44010  Biso   1.000  H
  H110     1.0000 0.59590  0.40620  0.94010  Biso   1.000  H
  H111     1.0000 0.09590  0.09380  0.05990  Biso   1.000  H
  H112     1.0000 0.40410  0.90620  0.55990  Biso   1.000  H
  H113     1.0000 0.18430  0.31960  0.56610  Biso   1.000  H
  H114     1.0000 0.31570  0.68040  0.06610  Biso   1.000  H
  H115     1.0000 0.81570  0.81960  0.93390  Biso   1.000  H
  H116     1.0000 0.68430  0.18040  0.43390  Biso   1.000  H
  H117     1.0000 0.81570  0.68040  0.43390  Biso   1.000  H
  H118     1.0000 0.68430  0.31960  0.93390  Biso   1.000  H
  H119     1.0000 0.18430  0.18040  0.06610  Biso   1.000  H
  H120     1.0000 0.31570  0.81960  0.56610  Biso   1.000  H
  H121     1.0000 0.19700  0.40800  0.52440  Biso   1.000  H
  H122     1.0000 0.30300  0.59200  0.02440  Biso   1.000  H
  H123     1.0000 0.80300  0.90800  0.97560  Biso   1.000  H
  H124     1.0000 0.69700  0.09200  0.47560  Biso   1.000  H
  H125     1.0000 0.80300  0.59200  0.47560  Biso   1.000  H
  H126     1.0000 0.69700  0.40800  0.97560  Biso   1.000  H
  H127     1.0000 0.19700  0.09200  0.02440  Biso   1.000  H
  H128     1.0000 0.30300  0.90800  0.52440  Biso   1.000  H
  N1       1.0000 0.37876  0.14538  0.18998  Biso   1.000  N
  N2       1.0000 0.12124  0.85462  0.68998  Biso   1.000  N
  N3       1.0000 0.62124  0.64538  0.31002  Biso   1.000  N
  N4       1.0000 0.87876  0.35462  0.81002  Biso   1.000  N
  N5       1.0000 0.62124  0.85462  0.81002  Biso   1.000  N
  N6       1.0000 0.87876  0.14538  0.31002  Biso   1.000  N
  N7       1.0000 0.37876  0.35462  0.68998  Biso   1.000  N
  N8       1.0000 0.12124  0.64538  0.18998  Biso   1.000  N
  O1       1.0000 0.41661  0.35273  0.50287  Biso   1.000  O
  O2       1.0000 0.08339  0.64727  0.00287  Biso   1.000  O
  O3       1.0000 0.58339  0.85273  0.99713  Biso   1.000  O
  O4       1.0000 0.91661  0.14727  0.49713  Biso   1.000  O
  O5       1.0000 0.58339  0.64727  0.49713  Biso   1.000  O
  O6       1.0000 0.91661  0.35273  0.99713  Biso   1.000  O
  O7       1.0000 0.41661  0.14727  0.00287  Biso   1.000  O
  O8       1.0000 0.08339  0.85273  0.50287  Biso   1.000  O
  O9       1.0000 0.51290  0.38209  0.43392  Biso   1.000  O
  O10      1.0000 0.98710  0.61791  0.93392  Biso   1.000  O
  O11      1.0000 0.48710  0.88209  0.06608  Biso   1.000  O
  O12      1.0000 0.01290  0.11791  0.56608  Biso   1.000  O
  O13      1.0000 0.48710  0.61791  0.56608  Biso   1.000  O
  O14      1.0000 0.01290  0.38209  0.06608  Biso   1.000  O
  O15      1.0000 0.51290  0.11791  0.93392  Biso   1.000  O
  O16      1.0000 0.98710  0.88209  0.43392  Biso   1.000  O
  O17      1.0000 0.16603  0.05245  0.49824  Biso   1.000  O
  O18      1.0000 0.33397  0.94755  0.99824  Biso   1.000  O
  O19      1.0000 0.83397  0.55245  0.00176  Biso   1.000  O
  O20      1.0000 0.66603  0.44755  0.50176  Biso   1.000  O
  O21      1.0000 0.83397  0.94755  0.50176  Biso   1.000  O
  O22      1.0000 0.66603  0.05245  0.00176  Biso   1.000  O
  O23      1.0000 0.16603  0.44755  0.99824  Biso   1.000  O
  O24      1.0000 0.33397  0.55245  0.49824  Biso   1.000  O
  O25      1.0000 0.06765  0.07343  0.42893  Biso   1.000  O
  O26      1.0000 0.43235  0.92657  0.92893  Biso   1.000  O
  O27      1.0000 0.93235  0.57343  0.07107  Biso   1.000  O
  O28      1.0000 0.56765  0.42657  0.57107  Biso   1.000  O
  O29      1.0000 0.93235  0.92657  0.57107  Biso   1.000  O
  O30      1.0000 0.56765  0.07343  0.07107  Biso   1.000  O
  O31      1.0000 0.06765  0.42657  0.92893  Biso   1.000  O
  O32      1.0000 0.43235  0.57343  0.42893  Biso   1.000  O
  O33      1.0000 0.33735  0.44934  0.59891  Biso   1.000  O
  O34      1.0000 0.16265  0.55066  0.09891  Biso   1.000  O
  O35      1.0000 0.66265  0.94934  0.90109  Biso   1.000  O
  O36      1.0000 0.83735  0.05066  0.40109  Biso   1.000  O
  O37      1.0000 0.66265  0.55066  0.40109  Biso   1.000  O
  O38      1.0000 0.83735  0.44934  0.90109  Biso   1.000  O
  O39      1.0000 0.33735  0.05066  0.09891  Biso   1.000  O
  O40      1.0000 0.16265  0.94934  0.59891  Biso   1.000  O
  H129     1.0000 0.35000  0.41800  0.62490  Biso   1.000  H
  H130     1.0000 0.15000  0.58200  0.12490  Biso   1.000  H
  H131     1.0000 0.65000  0.91800  0.87510  Biso   1.000  H
  H132     1.0000 0.85000  0.08200  0.37510  Biso   1.000  H
  H133     1.0000 0.65000  0.58200  0.37510  Biso   1.000  H
  H134     1.0000 0.85000  0.41800  0.87510  Biso   1.000  H
  H135     1.0000 0.35000  0.08200  0.12490  Biso   1.000  H
  H136     1.0000 0.15000  0.91800  0.62490  Biso   1.000  H
  Cu1      1.0000 0.44039  0.48385  0.53997  Biso   1.000  Cu
  Cu2      1.0000 0.05961  0.51615  0.03997  Biso   1.000  Cu
  Cu3      1.0000 0.55961  0.98385  0.96003  Biso   1.000  Cu
  Cu4      1.0000 0.94039  0.01615  0.46003  Biso   1.000  Cu
  Cu5      1.0000 0.55961  0.51615  0.46003  Biso   1.000  Cu
  Cu6      1.0000 0.94039  0.48385  0.96003  Biso   1.000  Cu
  Cu7      1.0000 0.44039  0.01615  0.03997  Biso   1.000  Cu
  Cu8      1.0000 0.05961  0.98385  0.53997  Biso   1.000  Cu
  O41      1.0000 0.91930  0.31153  0.42047  Biso   1.000  O
  O42      1.0000 0.58070  0.68847  0.92047  Biso   1.000  O
  O43      1.0000 0.08070  0.81153  0.07953  Biso   1.000  O
  O44      1.0000 0.41930  0.18847  0.57953  Biso   1.000  O
  O45      1.0000 0.08070  0.68847  0.57953  Biso   1.000  O
  O46      1.0000 0.41930  0.31153  0.07953  Biso   1.000  O
  O47      1.0000 0.91930  0.18847  0.92047  Biso   1.000  O
  O48      1.0000 0.58070  0.81153  0.42047  Biso   1.000  O
  H137     1.0000 0.93020  0.27210  0.44510  Biso   1.000  H
  H138     1.0000 0.56980  0.72790  0.94510  Biso   1.000  H
  H139     1.0000 0.06980  0.77210  0.05490  Biso   1.000  H
  H140     1.0000 0.43020  0.22790  0.55490  Biso   1.000  H
  H141     1.0000 0.06980  0.72790  0.55490  Biso   1.000  H
  H142     1.0000 0.43020  0.27210  0.05490  Biso   1.000  H
  H143     1.0000 0.93020  0.22790  0.94510  Biso   1.000  H
  H144     1.0000 0.56980  0.77210  0.44510  Biso   1.000  H
  C185     1.0000 0.00850  0.31470  0.38993  Biso   1.000  C
  C186     1.0000 0.49150  0.68530  0.88993  Biso   1.000  C
  C187     1.0000 0.99150  0.81470  0.11007  Biso   1.000  C
  C188     1.0000 0.50850  0.18530  0.61007  Biso   1.000  C
  C189     1.0000 0.99150  0.68530  0.61007  Biso   1.000  C
  C190     1.0000 0.50850  0.31470  0.11007  Biso   1.000  C
  C191     1.0000 0.00850  0.18530  0.88993  Biso   1.000  C
  C192     1.0000 0.49150  0.81470  0.38993  Biso   1.000  C
  H145     1.0000 0.03100  0.24320  0.38240  Biso   1.000  H
  H146     1.0000 0.46900  0.75680  0.88240  Biso   1.000  H
  H147     1.0000 0.96900  0.74320  0.11760  Biso   1.000  H
  H148     1.0000 0.53100  0.25680  0.61760  Biso   1.000  H
  H149     1.0000 0.96900  0.75680  0.61760  Biso   1.000  H
  H150     1.0000 0.53100  0.24320  0.11760  Biso   1.000  H
  H151     1.0000 0.03100  0.25680  0.88240  Biso   1.000  H
  H152     1.0000 0.46900  0.74320  0.38240  Biso   1.000  H
  H153     1.0000 0.99060  0.34840  0.35760  Biso   1.000  H
  H154     1.0000 0.50940  0.65160  0.85760  Biso   1.000  H
  H155     1.0000 0.00940  0.84840  0.14240  Biso   1.000  H
  H156     1.0000 0.49060  0.15160  0.64240  Biso   1.000  H
  H157     1.0000 0.00940  0.65160  0.64240  Biso   1.000  H
  H158     1.0000 0.49060  0.34840  0.14240  Biso   1.000  H
  H159     1.0000 0.99060  0.15160  0.85760  Biso   1.000  H
  H160     1.0000 0.50940  0.84840  0.35760  Biso   1.000  H
  C193     1.0000 0.09710  0.37180  0.41383  Biso   1.000  C
  C194     1.0000 0.40290  0.62820  0.91383  Biso   1.000  C
  C195     1.0000 0.90290  0.87180  0.08617  Biso   1.000  C
  C196     1.0000 0.59710  0.12820  0.58617  Biso   1.000  C
  C197     1.0000 0.90290  0.62820  0.58617  Biso   1.000  C
  C198     1.0000 0.59710  0.37180  0.08617  Biso   1.000  C
  C199     1.0000 0.09710  0.12820  0.91383  Biso   1.000  C
  C200     1.0000 0.40290  0.87180  0.41383  Biso   1.000  C
  H161     1.0000 0.11400  0.34000  0.44630  Biso   1.000  H
  H162     1.0000 0.38600  0.66000  0.94630  Biso   1.000  H
  H163     1.0000 0.88600  0.84000  0.05370  Biso   1.000  H
  H164     1.0000 0.61400  0.16000  0.55370  Biso   1.000  H
  H165     1.0000 0.88600  0.66000  0.55370  Biso   1.000  H
  H166     1.0000 0.61400  0.34000  0.05370  Biso   1.000  H
  H167     1.0000 0.11400  0.16000  0.94630  Biso   1.000  H
  H168     1.0000 0.38600  0.84000  0.44630  Biso   1.000  H
  H169     1.0000 0.15840  0.36870  0.39170  Biso   1.000  H
  H170     1.0000 0.34160  0.63130  0.89170  Biso   1.000  H
  H171     1.0000 0.84160  0.86870  0.10830  Biso   1.000  H
  H172     1.0000 0.65840  0.13130  0.60830  Biso   1.000  H
  H173     1.0000 0.84160  0.63130  0.60830  Biso   1.000  H
  H174     1.0000 0.65840  0.36870  0.10830  Biso   1.000  H
  H175     1.0000 0.15840  0.13130  0.89170  Biso   1.000  H
  H176     1.0000 0.34160  0.86870  0.39170  Biso   1.000  H
  H177     1.0000 0.07710  0.44410  0.41910  Biso   1.000  H
  H178     1.0000 0.42290  0.55590  0.91910  Biso   1.000  H
  H179     1.0000 0.92290  0.94410  0.08090  Biso   1.000  H
  H180     1.0000 0.57710  0.05590  0.58090  Biso   1.000  H
  H181     1.0000 0.92290  0.55590  0.58090  Biso   1.000  H
  H182     1.0000 0.57710  0.44410  0.08090  Biso   1.000  H
  H183     1.0000 0.07710  0.05590  0.91910  Biso   1.000  H
  H184     1.0000 0.42290  0.94410  0.41910  Biso   1.000  H
  H185     1.0000 0.28000  0.47800  0.59850  Biso   1.000  H
  H186     1.0000 0.22000  0.52200  0.09850  Biso   1.000  H
  H187     1.0000 0.72000  0.97800  0.90150  Biso   1.000  H
  H188     1.0000 0.78000  0.02200  0.40150  Biso   1.000  H
  H189     1.0000 0.72000  0.52200  0.40150  Biso   1.000  H
  H190     1.0000 0.78000  0.47800  0.90150  Biso   1.000  H
  H191     1.0000 0.28000  0.02200  0.09850  Biso   1.000  H
  H192     1.0000 0.22000  0.97800  0.59850  Biso   1.000  H
  O49      1.0000 0.12710  0.46830  0.57350  Biso   1.000  O
  O50      1.0000 0.37290  0.53170  0.07350  Biso   1.000  O
  O51      1.0000 0.87290  0.96830  0.92650  Biso   1.000  O
  O52      1.0000 0.62710  0.03170  0.42650  Biso   1.000  O
  O53      1.0000 0.87290  0.53170  0.42650  Biso   1.000  O
  O54      1.0000 0.62710  0.46830  0.92650  Biso   1.000  O
  O55      1.0000 0.12710  0.03170  0.07350  Biso   1.000  O
  O56      1.0000 0.37290  0.96830  0.57350  Biso   1.000  O
  H193     1.0000 0.11700  0.52810  0.56220  Biso   1.000  H
  H194     1.0000 0.38300  0.47190  0.06220  Biso   1.000  H
  H195     1.0000 0.88300  0.02810  0.93780  Biso   1.000  H
  H196     1.0000 0.61700  0.97190  0.43780  Biso   1.000  H
  H197     1.0000 0.88300  0.47190  0.43780  Biso   1.000  H
  H198     1.0000 0.61700  0.52810  0.93780  Biso   1.000  H
  H199     1.0000 0.11700  0.97190  0.06220  Biso   1.000  H
  H200     1.0000 0.38300  0.02810  0.56220  Biso   1.000  H
  C201     1.0000 0.13090  0.39440  0.53150  Biso   1.000  C
  C202     1.0000 0.36910  0.60560  0.03150  Biso   1.000  C
  C203     1.0000 0.86910  0.89440  0.96850  Biso   1.000  C
  C204     1.0000 0.63090  0.10560  0.46850  Biso   1.000  C
  C205     1.0000 0.86910  0.60560  0.46850  Biso   1.000  C
  C206     1.0000 0.63090  0.39440  0.96850  Biso   1.000  C
  C207     1.0000 0.13090  0.10560  0.03150  Biso   1.000  C
  C208     1.0000 0.36910  0.89440  0.53150  Biso   1.000  C
  H201     1.0000 0.11430  0.32430  0.54410  Biso   1.000  H
  H202     1.0000 0.38570  0.67570  0.04410  Biso   1.000  H
  H203     1.0000 0.88570  0.82430  0.95590  Biso   1.000  H
  H204     1.0000 0.61430  0.17570  0.45590  Biso   1.000  H
  H205     1.0000 0.88570  0.67570  0.45590  Biso   1.000  H
  H206     1.0000 0.61430  0.32430  0.95590  Biso   1.000  H
  H207     1.0000 0.11430  0.17570  0.04410  Biso   1.000  H
  H208     1.0000 0.38570  0.82430  0.54410  Biso   1.000  H
  H209     1.0000 0.20220  0.39300  0.51710  Biso   1.000  H
  H210     1.0000 0.29780  0.60700  0.01710  Biso   1.000  H
  H211     1.0000 0.79780  0.89300  0.98290  Biso   1.000  H
  H212     1.0000 0.70220  0.10700  0.48290  Biso   1.000  H
  H213     1.0000 0.79780  0.60700  0.48290  Biso   1.000  H
  H214     1.0000 0.70220  0.39300  0.98290  Biso   1.000  H
  H215     1.0000 0.20220  0.10700  0.01710  Biso   1.000  H
  H216     1.0000 0.29780  0.89300  0.51710  Biso   1.000  H
  C209     1.0000 0.05310  0.42470  0.49090  Biso   1.000  C
  C210     1.0000 0.44690  0.57530  0.99090  Biso   1.000  C
  C211     1.0000 0.94690  0.92470  0.00910  Biso   1.000  C
  C212     1.0000 0.55310  0.07530  0.50910  Biso   1.000  C
  C213     1.0000 0.94690  0.57530  0.50910  Biso   1.000  C
  C214     1.0000 0.55310  0.42470  0.00910  Biso   1.000  C
  C215     1.0000 0.05310  0.07530  0.99090  Biso   1.000  C
  C216     1.0000 0.44690  0.92470  0.49090  Biso   1.000  C
  H217     1.0000 0.98290  0.42860  0.50550  Biso   1.000  H
  H218     1.0000 0.51710  0.57140  0.00550  Biso   1.000  H
  H219     1.0000 0.01710  0.92860  0.99450  Biso   1.000  H
  H220     1.0000 0.48290  0.07140  0.49450  Biso   1.000  H
  H221     1.0000 0.01710  0.57140  0.49450  Biso   1.000  H
  H222     1.0000 0.48290  0.42860  0.99450  Biso   1.000  H
  H223     1.0000 0.98290  0.07140  0.00550  Biso   1.000  H
  H224     1.0000 0.51710  0.92860  0.50550  Biso   1.000  H
  H225     1.0000 0.05390  0.37290  0.46400  Biso   1.000  H
  H226     1.0000 0.44610  0.62710  0.96400  Biso   1.000  H
  H227     1.0000 0.94610  0.87290  0.03600  Biso   1.000  H
  H228     1.0000 0.55390  0.12710  0.53600  Biso   1.000  H
  H229     1.0000 0.94610  0.62710  0.53600  Biso   1.000  H
  H230     1.0000 0.55390  0.37290  0.03600  Biso   1.000  H
  H231     1.0000 0.05390  0.12710  0.96400  Biso   1.000  H
  H232     1.0000 0.44610  0.87290  0.46400  Biso   1.000  H
  H233     1.0000 0.07220  0.49230  0.47700  Biso   1.000  H
  H234     1.0000 0.42780  0.50770  0.97700  Biso   1.000  H
  H235     1.0000 0.92780  0.99230  0.02300  Biso   1.000  H
  H236     1.0000 0.57220  0.00770  0.52300  Biso   1.000  H
  H237     1.0000 0.92780  0.50770  0.52300  Biso   1.000  H
  H238     1.0000 0.57220  0.49230  0.02300  Biso   1.000  H
  H239     1.0000 0.07220  0.00770  0.97700  Biso   1.000  H
  H240     1.0000 0.42780  0.99230  0.47700  Biso   1.000  H
  O57      1.0000 0.13810  0.49520  0.58420  Biso   1.000  O
  O58      1.0000 0.36190  0.50480  0.08420  Biso   1.000  O
  O59      1.0000 0.86190  0.99520  0.91580  Biso   1.000  O
  O60      1.0000 0.63810  0.00480  0.41580  Biso   1.000  O
  O61      1.0000 0.86190  0.50480  0.41580  Biso   1.000  O
  O62      1.0000 0.63810  0.49520  0.91580  Biso   1.000  O
  O63      1.0000 0.13810  0.00480  0.08420  Biso   1.000  O
  O64      1.0000 0.36190  0.99520  0.58420  Biso   1.000  O
  H241     1.0000 0.12490  0.55880  0.58350  Biso   1.000  H
  H242     1.0000 0.37510  0.44120  0.08350  Biso   1.000  H
  H243     1.0000 0.87510  0.05880  0.91650  Biso   1.000  H
  H244     1.0000 0.62490  0.94120  0.41650  Biso   1.000  H
  H245     1.0000 0.87510  0.44120  0.41650  Biso   1.000  H
  H246     1.0000 0.62490  0.55880  0.91650  Biso   1.000  H
  H247     1.0000 0.12490  0.94120  0.08350  Biso   1.000  H
  H248     1.0000 0.37510  0.05880  0.58350  Biso   1.000  H
  C217     1.0000 0.09630  0.44600  0.53880  Biso   1.000  C
  C218     1.0000 0.40370  0.55400  0.03880  Biso   1.000  C
  C219     1.0000 0.90370  0.94600  0.96120  Biso   1.000  C
  C220     1.0000 0.59630  0.05400  0.46120  Biso   1.000  C
  C221     1.0000 0.90370  0.55400  0.46120  Biso   1.000  C
  C222     1.0000 0.59630  0.44600  0.96120  Biso   1.000  C
  C223     1.0000 0.09630  0.05400  0.03880  Biso   1.000  C
  C224     1.0000 0.40370  0.94600  0.53880  Biso   1.000  C
  H249     1.0000 0.11980  0.48350  0.50830  Biso   1.000  H
  H250     1.0000 0.38020  0.51650  0.00830  Biso   1.000  H
  H251     1.0000 0.88020  0.98350  0.99170  Biso   1.000  H
  H252     1.0000 0.61980  0.01650  0.49170  Biso   1.000  H
  H253     1.0000 0.88020  0.51650  0.49170  Biso   1.000  H
  H254     1.0000 0.61980  0.48350  0.99170  Biso   1.000  H
  H255     1.0000 0.11980  0.01650  0.00830  Biso   1.000  H
  H256     1.0000 0.38020  0.98350  0.50830  Biso   1.000  H
  H257     1.0000 0.01900  0.44600  0.53960  Biso   1.000  H
  H258     1.0000 0.48100  0.55400  0.03960  Biso   1.000  H
  H259     1.0000 0.98100  0.94600  0.96040  Biso   1.000  H
  H260     1.0000 0.51900  0.05400  0.46040  Biso   1.000  H
  H261     1.0000 0.98100  0.55400  0.46040  Biso   1.000  H
  H262     1.0000 0.51900  0.44600  0.96040  Biso   1.000  H
  H263     1.0000 0.01900  0.05400  0.03960  Biso   1.000  H
  H264     1.0000 0.48100  0.94600  0.53960  Biso   1.000  H
  C225     1.0000 0.13790  0.33560  0.53860  Biso   1.000  C
  C226     1.0000 0.36210  0.66440  0.03860  Biso   1.000  C
  C227     1.0000 0.86210  0.83560  0.96140  Biso   1.000  C
  C228     1.0000 0.63790  0.16440  0.46140  Biso   1.000  C
  C229     1.0000 0.86210  0.66440  0.46140  Biso   1.000  C
  C230     1.0000 0.63790  0.33560  0.96140  Biso   1.000  C
  C231     1.0000 0.13790  0.16440  0.03860  Biso   1.000  C
  C232     1.0000 0.36210  0.83560  0.53860  Biso   1.000  C
  H265     1.0000 0.21440  0.33680  0.53930  Biso   1.000  H
  H266     1.0000 0.28560  0.66320  0.03930  Biso   1.000  H
  H267     1.0000 0.78560  0.83680  0.96070  Biso   1.000  H
  H268     1.0000 0.71440  0.16320  0.46070  Biso   1.000  H
  H269     1.0000 0.78560  0.66320  0.46070  Biso   1.000  H
  H270     1.0000 0.71440  0.33680  0.96070  Biso   1.000  H
  H271     1.0000 0.21440  0.16320  0.03930  Biso   1.000  H
  H272     1.0000 0.28560  0.83680  0.53930  Biso   1.000  H
  H273     1.0000 0.11420  0.30020  0.50800  Biso   1.000  H
  H274     1.0000 0.38580  0.69980  0.00800  Biso   1.000  H
  H275     1.0000 0.88580  0.80020  0.99200  Biso   1.000  H
  H276     1.0000 0.61420  0.19980  0.49200  Biso   1.000  H
  H277     1.0000 0.88580  0.69980  0.49200  Biso   1.000  H
  H278     1.0000 0.61420  0.30020  0.99200  Biso   1.000  H
  H279     1.0000 0.11420  0.19980  0.00800  Biso   1.000  H
  H280     1.0000 0.38580  0.80020  0.50800  Biso   1.000  H
  H281     1.0000 0.11170  0.29870  0.56830  Biso   1.000  H
  H282     1.0000 0.38830  0.70130  0.06830  Biso   1.000  H
  H283     1.0000 0.88830  0.79870  0.93170  Biso   1.000  H
  H284     1.0000 0.61170  0.20130  0.43170  Biso   1.000  H
  H285     1.0000 0.88830  0.70130  0.43170  Biso   1.000  H
  H286     1.0000 0.61170  0.29870  0.93170  Biso   1.000  H
  H287     1.0000 0.11170  0.20130  0.06830  Biso   1.000  H
  H288     1.0000 0.38830  0.79870  0.56830  Biso   1.000  H
