data_image0
_cell_length_a       10.546
_cell_length_b       37.161
_cell_length_c       19.459
_cell_angle_alpha    90
_cell_angle_beta     122.469
_cell_angle_gamma    90

_symmetry_space_group_name_H-M    "P 1"
_symmetry_int_tables_number       1

loop_
  _symmetry_equiv_pos_as_xyz
  'x, y, z'

loop_
  _atom_site_label
  _atom_site_occupancy
  _atom_site_fract_x
  _atom_site_fract_y
  _atom_site_fract_z
  _atom_site_thermal_displace_type
  _atom_site_B_iso_or_equiv
  _atom_site_type_symbol
  Cu1      1.0000 0.97344  0.09361  0.81240  Biso   1.000  Cu
  Cu2      1.0000 0.02656  0.59361  0.68760  Biso   1.000  Cu
  Cu3      1.0000 0.02656  0.90639  0.18760  Biso   1.000  Cu
  Cu4      1.0000 0.97344  0.40639  0.31240  Biso   1.000  Cu
  Cu5      1.0000 0.47038  0.08930  0.93212  Biso   1.000  Cu
  Cu6      1.0000 0.52962  0.58930  0.56788  Biso   1.000  Cu
  Cu7      1.0000 0.52962  0.91070  0.06788  Biso   1.000  Cu
  Cu8      1.0000 0.47038  0.41070  0.43212  Biso   1.000  Cu
  Cu9      1.0000 0.01397  0.34423  0.88829  Biso   1.000  Cu
  Cu10     1.0000 0.98603  0.84423  0.61171  Biso   1.000  Cu
  Cu11     1.0000 0.98603  0.65577  0.11171  Biso   1.000  Cu
  Cu12     1.0000 0.01397  0.15577  0.38829  Biso   1.000  Cu
  Cu13     1.0000 0.49983  0.33928  0.99677  Biso   1.000  Cu
  Cu14     1.0000 0.50017  0.83928  0.50323  Biso   1.000  Cu
  Cu15     1.0000 0.50017  0.66072  0.00323  Biso   1.000  Cu
  Cu16     1.0000 0.49983  0.16072  0.49677  Biso   1.000  Cu
  Mn1      1.0000 0.73820  0.97173  0.62251  Biso   1.000  Mn
  Mn2      1.0000 0.26180  0.47173  0.87749  Biso   1.000  Mn
  Mn3      1.0000 0.26180  0.02827  0.37749  Biso   1.000  Mn
  Mn4      1.0000 0.73820  0.52827  0.12251  Biso   1.000  Mn
  Mn5      1.0000 0.19111  0.96986  0.76858  Biso   1.000  Mn
  Mn6      1.0000 0.80889  0.46986  0.73142  Biso   1.000  Mn
  Mn7      1.0000 0.80889  0.03014  0.23142  Biso   1.000  Mn
  Mn8      1.0000 0.19111  0.53014  0.26858  Biso   1.000  Mn
  Mn9      1.0000 0.25526  0.21252  0.00183  Biso   1.000  Mn
  Mn10     1.0000 0.74474  0.71252  0.49817  Biso   1.000  Mn
  Mn11     1.0000 0.74474  0.78748  0.99817  Biso   1.000  Mn
  Mn12     1.0000 0.25526  0.28748  0.50183  Biso   1.000  Mn
  Mn13     1.0000 0.71194  0.20456  0.13446  Biso   1.000  Mn
  Mn14     1.0000 0.28806  0.70456  0.36554  Biso   1.000  Mn
  Mn15     1.0000 0.28806  0.79544  0.86554  Biso   1.000  Mn
  Mn16     1.0000 0.71194  0.29544  0.63446  Biso   1.000  Mn
  O1       1.0000 0.96350  0.99969  0.70961  Biso   1.000  O
  O2       1.0000 0.03650  0.49969  0.79039  Biso   1.000  O
  O3       1.0000 0.03650  0.00031  0.29039  Biso   1.000  O
  O4       1.0000 0.96350  0.50031  0.20961  Biso   1.000  O
  O5       1.0000 0.69290  0.00011  0.51530  Biso   1.000  O
  O6       1.0000 0.30710  0.50011  0.98470  Biso   1.000  O
  O7       1.0000 0.30710  0.99989  0.48470  Biso   1.000  O
  O8       1.0000 0.69290  0.49989  0.01530  Biso   1.000  O
  O9       1.0000 0.04420  0.05311  0.77336  Biso   1.000  O
  O10      1.0000 0.95580  0.55311  0.72664  Biso   1.000  O
  O11      1.0000 0.95580  0.94689  0.22664  Biso   1.000  O
  O12      1.0000 0.04420  0.44689  0.27336  Biso   1.000  O
  O13      1.0000 0.77200  0.94410  0.73460  Biso   1.000  O
  O14      1.0000 0.22800  0.44410  0.76540  Biso   1.000  O
  O15      1.0000 0.22800  0.05590  0.26540  Biso   1.000  O
  O16      1.0000 0.77200  0.55590  0.23460  Biso   1.000  O
  O17      1.0000 0.68250  0.01683  0.66845  Biso   1.000  O
  O18      1.0000 0.31750  0.51683  0.83155  Biso   1.000  O
  O19      1.0000 0.31750  0.98317  0.33155  Biso   1.000  O
  O20      1.0000 0.68250  0.48317  0.16845  Biso   1.000  O
  O21      1.0000 0.42070  0.94285  0.84040  Biso   1.000  O
  O22      1.0000 0.57930  0.44285  0.65960  Biso   1.000  O
  O23      1.0000 0.57930  0.05715  0.15960  Biso   1.000  O
  O24      1.0000 0.42070  0.55715  0.34040  Biso   1.000  O
  O25      1.0000 0.25720  0.99671  0.87966  Biso   1.000  O
  O26      1.0000 0.74280  0.49671  0.62034  Biso   1.000  O
  O27      1.0000 0.74280  0.00329  0.12034  Biso   1.000  O
  O28      1.0000 0.25720  0.50329  0.37966  Biso   1.000  O
  O29      1.0000 0.06730  0.05551  0.93150  Biso   1.000  O
  O30      1.0000 0.93270  0.55551  0.56850  Biso   1.000  O
  O31      1.0000 0.93270  0.94449  0.06850  Biso   1.000  O
  O32      1.0000 0.06730  0.44449  0.43150  Biso   1.000  O
  O33      1.0000 0.36350  0.04792  0.94335  Biso   1.000  O
  O34      1.0000 0.63650  0.54792  0.55665  Biso   1.000  O
  O35      1.0000 0.63650  0.95208  0.05665  Biso   1.000  O
  O36      1.0000 0.36350  0.45208  0.44335  Biso   1.000  O
  O37      1.0000 0.69940  0.04598  0.99230  Biso   1.000  O
  O38      1.0000 0.30060  0.54598  0.50770  Biso   1.000  O
  O39      1.0000 0.30060  0.95402  0.00770  Biso   1.000  O
  O40      1.0000 0.69940  0.45402  0.49230  Biso   1.000  O
  O41      1.0000 0.29530  0.01520  0.75702  Biso   1.000  O
  O42      1.0000 0.70470  0.51520  0.74298  Biso   1.000  O
  O43      1.0000 0.70470  0.98480  0.24298  Biso   1.000  O
  O44      1.0000 0.29530  0.48480  0.25702  Biso   1.000  O
  O45      1.0000 0.29450  0.18223  0.10420  Biso   1.000  O
  O46      1.0000 0.70550  0.68223  0.39580  Biso   1.000  O
  O47      1.0000 0.70550  0.81777  0.89580  Biso   1.000  O
  O48      1.0000 0.29450  0.31777  0.60420  Biso   1.000  O
  O49      1.0000 0.28980  0.16660  0.94178  Biso   1.000  O
  O50      1.0000 0.71020  0.66660  0.55822  Biso   1.000  O
  O51      1.0000 0.71020  0.83340  0.05822  Biso   1.000  O
  O52      1.0000 0.28980  0.33340  0.44178  Biso   1.000  O
  O53      1.0000 0.94990  0.19253  0.18790  Biso   1.000  O
  O54      1.0000 0.05010  0.69253  0.31210  Biso   1.000  O
  O55      1.0000 0.05010  0.80747  0.81210  Biso   1.000  O
  O56      1.0000 0.94990  0.30747  0.68790  Biso   1.000  O
  O57      1.0000 0.17500  0.11765  0.86581  Biso   1.000  O
  O58      1.0000 0.82500  0.61765  0.63419  Biso   1.000  O
  O59      1.0000 0.82500  0.88235  0.13419  Biso   1.000  O
  O60      1.0000 0.17500  0.38235  0.36581  Biso   1.000  O
  O61      1.0000 0.72900  0.20543  0.24850  Biso   1.000  O
  O62      1.0000 0.27100  0.70543  0.25150  Biso   1.000  O
  O63      1.0000 0.27100  0.79457  0.75150  Biso   1.000  O
  O64      1.0000 0.72900  0.29457  0.74850  Biso   1.000  O
  O65      1.0000 0.03380  0.18640  0.92990  Biso   1.000  O
  O66      1.0000 0.96620  0.68640  0.57010  Biso   1.000  O
  O67      1.0000 0.96620  0.81360  0.07010  Biso   1.000  O
  O68      1.0000 0.03380  0.31360  0.42990  Biso   1.000  O
  O69      1.0000 0.41620  0.32264  0.86180  Biso   1.000  O
  O70      1.0000 0.58380  0.82264  0.63820  Biso   1.000  O
  O71      1.0000 0.58380  0.67736  0.13820  Biso   1.000  O
  O72      1.0000 0.41620  0.17736  0.36180  Biso   1.000  O
  O73      1.0000 0.60480  0.15299  0.12051  Biso   1.000  O
  O74      1.0000 0.39520  0.65299  0.37949  Biso   1.000  O
  O75      1.0000 0.39520  0.84701  0.87949  Biso   1.000  O
  O76      1.0000 0.60480  0.34701  0.62051  Biso   1.000  O
  O77      1.0000 0.51520  0.10503  0.03958  Biso   1.000  O
  O78      1.0000 0.48480  0.60503  0.46042  Biso   1.000  O
  O79      1.0000 0.48480  0.89497  0.96042  Biso   1.000  O
  O80      1.0000 0.51520  0.39497  0.53958  Biso   1.000  O
  O81      1.0000 0.67300  0.18412  0.01950  Biso   1.000  O
  O82      1.0000 0.32700  0.68412  0.48050  Biso   1.000  O
  O83      1.0000 0.32700  0.81588  0.98050  Biso   1.000  O
  O84      1.0000 0.67300  0.31588  0.51950  Biso   1.000  O
  O85      1.0000 0.17650  0.24801  0.89769  Biso   1.000  O
  O86      1.0000 0.82350  0.74801  0.60231  Biso   1.000  O
  O87      1.0000 0.82350  0.75199  0.10231  Biso   1.000  O
  O88      1.0000 0.17650  0.25199  0.39769  Biso   1.000  O
  O89      1.0000 0.09080  0.30370  0.85700  Biso   1.000  O
  O90      1.0000 0.90920  0.80370  0.64300  Biso   1.000  O
  O91      1.0000 0.90920  0.69630  0.14300  Biso   1.000  O
  O92      1.0000 0.09080  0.19630  0.35700  Biso   1.000  O
  O93      1.0000 0.15530  0.25685  0.02968  Biso   1.000  O
  O94      1.0000 0.84470  0.75685  0.47032  Biso   1.000  O
  O95      1.0000 0.84470  0.74315  0.97032  Biso   1.000  O
  O96      1.0000 0.15530  0.24315  0.52968  Biso   1.000  O
  O97      1.0000 0.48320  0.23844  0.06120  Biso   1.000  O
  O98      1.0000 0.51680  0.73844  0.43880  Biso   1.000  O
  O99      1.0000 0.51680  0.76156  0.93880  Biso   1.000  O
  O100     1.0000 0.48320  0.26156  0.56120  Biso   1.000  O
  O101     1.0000 0.41540  0.29527  0.01673  Biso   1.000  O
  O102     1.0000 0.58460  0.79527  0.48327  Biso   1.000  O
  O103     1.0000 0.58460  0.70473  0.98327  Biso   1.000  O
  O104     1.0000 0.41540  0.20473  0.51673  Biso   1.000  O
  O105     1.0000 0.77300  0.25632  0.11942  Biso   1.000  O
  O106     1.0000 0.22700  0.75632  0.38058  Biso   1.000  O
  O107     1.0000 0.22700  0.74368  0.88058  Biso   1.000  O
  O108     1.0000 0.77300  0.24368  0.61942  Biso   1.000  O
  O109     1.0000 0.02140  0.86776  0.71171  Biso   1.000  O
  O110     1.0000 0.97860  0.36776  0.78829  Biso   1.000  O
  O111     1.0000 0.97860  0.13224  0.28829  Biso   1.000  O
  O112     1.0000 0.02140  0.63224  0.21171  Biso   1.000  O
  O113     1.0000 0.09360  0.92071  0.77491  Biso   1.000  O
  O114     1.0000 0.90640  0.42071  0.72509  Biso   1.000  O
  O115     1.0000 0.90640  0.07929  0.22509  Biso   1.000  O
  O116     1.0000 0.09360  0.57929  0.27491  Biso   1.000  O
  O117     1.0000 0.15230  0.94397  0.66311  Biso   1.000  O
  O118     1.0000 0.84770  0.44397  0.83689  Biso   1.000  O
  O119     1.0000 0.84770  0.05603  0.33689  Biso   1.000  O
  O120     1.0000 0.15230  0.55603  0.16311  Biso   1.000  O
  O121     1.0000 0.69380  0.86622  0.54314  Biso   1.000  O
  O122     1.0000 0.30620  0.36622  0.95686  Biso   1.000  O
  O123     1.0000 0.30620  0.13378  0.45686  Biso   1.000  O
  O124     1.0000 0.69380  0.63378  0.04314  Biso   1.000  O
  O125     1.0000 0.79030  0.92095  0.58859  Biso   1.000  O
  O126     1.0000 0.20970  0.42095  0.91141  Biso   1.000  O
  O127     1.0000 0.20970  0.07905  0.41141  Biso   1.000  O
  O128     1.0000 0.79030  0.57905  0.08859  Biso   1.000  O
  O129     1.0000 0.52360  0.94443  0.55785  Biso   1.000  O
  O130     1.0000 0.47640  0.44443  0.94215  Biso   1.000  O
  O131     1.0000 0.47640  0.05557  0.44215  Biso   1.000  O
  O132     1.0000 0.52360  0.55557  0.05785  Biso   1.000  O
  N1       1.0000 0.77920  0.06772  0.74790  Biso   1.000  N
  N2       1.0000 0.22080  0.56772  0.75210  Biso   1.000  N
  N3       1.0000 0.22080  0.93228  0.25210  Biso   1.000  N
  N4       1.0000 0.77920  0.43228  0.24790  Biso   1.000  N
  N5       1.0000 0.41720  0.06645  0.82920  Biso   1.000  N
  N6       1.0000 0.58280  0.56645  0.67080  Biso   1.000  N
  N7       1.0000 0.58280  0.93355  0.17080  Biso   1.000  N
  N8       1.0000 0.41720  0.43355  0.32920  Biso   1.000  N
  N9       1.0000 0.91590  0.13841  0.84260  Biso   1.000  N
  N10      1.0000 0.08410  0.63841  0.65740  Biso   1.000  N
  N11      1.0000 0.08410  0.86159  0.15740  Biso   1.000  N
  N12      1.0000 0.91590  0.36159  0.34260  Biso   1.000  N
  N13      1.0000 0.57150  0.13435  0.93560  Biso   1.000  N
  N14      1.0000 0.42850  0.63435  0.56440  Biso   1.000  N
  N15      1.0000 0.42850  0.86565  0.06440  Biso   1.000  N
  N16      1.0000 0.57150  0.36565  0.43560  Biso   1.000  N
  N17      1.0000 0.05270  0.31326  0.97890  Biso   1.000  N
  N18      1.0000 0.94730  0.81326  0.52110  Biso   1.000  N
  N19      1.0000 0.94730  0.68674  0.02110  Biso   1.000  N
  N20      1.0000 0.05270  0.18674  0.47890  Biso   1.000  N
  N21      1.0000 0.68980  0.31182  0.05930  Biso   1.000  N
  N22      1.0000 0.31020  0.81182  0.44070  Biso   1.000  N
  N23      1.0000 0.31020  0.68818  0.94070  Biso   1.000  N
  N24      1.0000 0.68980  0.18818  0.55930  Biso   1.000  N
  N25      1.0000 0.08340  0.88775  0.60390  Biso   1.000  N
  N26      1.0000 0.91660  0.38775  0.89610  Biso   1.000  N
  N27      1.0000 0.91660  0.11225  0.39610  Biso   1.000  N
  N28      1.0000 0.08340  0.61225  0.10390  Biso   1.000  N
  N29      1.0000 0.42960  0.88714  0.51310  Biso   1.000  N
  N30      1.0000 0.57040  0.38714  0.98690  Biso   1.000  N
  N31      1.0000 0.57040  0.11286  0.48690  Biso   1.000  N
  N32      1.0000 0.42960  0.61286  0.01310  Biso   1.000  N
  C1       1.0000 0.94520  0.02949  0.73410  Biso   1.000  C
  C2       1.0000 0.05480  0.52949  0.76590  Biso   1.000  C
  C3       1.0000 0.05480  0.97051  0.26590  Biso   1.000  C
  C4       1.0000 0.94520  0.47051  0.23410  Biso   1.000  C
  C5       1.0000 0.78670  0.03830  0.71420  Biso   1.000  C
  C6       1.0000 0.21330  0.53830  0.78580  Biso   1.000  C
  C7       1.0000 0.21330  0.96170  0.28580  Biso   1.000  C
  C8       1.0000 0.78670  0.46170  0.21420  Biso   1.000  C
  C9       1.0000 0.31900  0.02627  0.88530  Biso   1.000  C
  C10      1.0000 0.68100  0.52627  0.61470  Biso   1.000  C
  C11      1.0000 0.68100  0.97373  0.11470  Biso   1.000  C
  C12      1.0000 0.31900  0.47373  0.38530  Biso   1.000  C
  C13      1.0000 0.34350  0.03664  0.81700  Biso   1.000  C
  C14      1.0000 0.65650  0.53664  0.68300  Biso   1.000  C
  C15      1.0000 0.65650  0.96336  0.18300  Biso   1.000  C
  C16      1.0000 0.34350  0.46336  0.31700  Biso   1.000  C
  C17      1.0000 0.63260  0.07661  0.73040  Biso   1.000  C
  C18      1.0000 0.36740  0.57661  0.76960  Biso   1.000  C
  C19      1.0000 0.36740  0.92339  0.26960  Biso   1.000  C
  C20      1.0000 0.63260  0.42339  0.23040  Biso   1.000  C
  C21      1.0000 0.52590  0.09147  0.65600  Biso   1.000  C
  C22      1.0000 0.47410  0.59147  0.84400  Biso   1.000  C
  C23      1.0000 0.47410  0.90853  0.34400  Biso   1.000  C
  C24      1.0000 0.52590  0.40853  0.15600  Biso   1.000  C
  H1       1.0000 0.55060  0.09700  0.61800  Biso   1.000  H
  H2       1.0000 0.44940  0.59700  0.88200  Biso   1.000  H
  H3       1.0000 0.44940  0.90300  0.38200  Biso   1.000  H
  H4       1.0000 0.55060  0.40300  0.11800  Biso   1.000  H
  C25      1.0000 0.38230  0.09801  0.63870  Biso   1.000  C
  C26      1.0000 0.61770  0.59801  0.86130  Biso   1.000  C
  C27      1.0000 0.61770  0.90199  0.36130  Biso   1.000  C
  C28      1.0000 0.38230  0.40199  0.13870  Biso   1.000  C
  H5       1.0000 0.31030  0.10790  0.58870  Biso   1.000  H
  H6       1.0000 0.68970  0.60790  0.91130  Biso   1.000  H
  H7       1.0000 0.68970  0.89210  0.41130  Biso   1.000  H
  H8       1.0000 0.31030  0.39210  0.08870  Biso   1.000  H
  C29      1.0000 0.34500  0.08994  0.69570  Biso   1.000  C
  C30      1.0000 0.65500  0.58994  0.80430  Biso   1.000  C
  C31      1.0000 0.65500  0.91006  0.30430  Biso   1.000  C
  C32      1.0000 0.34500  0.41006  0.19570  Biso   1.000  C
  H9       1.0000 0.24830  0.09430  0.68370  Biso   1.000  H
  H10      1.0000 0.75170  0.59430  0.81630  Biso   1.000  H
  H11      1.0000 0.75170  0.90570  0.31630  Biso   1.000  H
  H12      1.0000 0.24830  0.40570  0.18370  Biso   1.000  H
  C33      1.0000 0.45230  0.07539  0.77020  Biso   1.000  C
  C34      1.0000 0.54770  0.57539  0.72980  Biso   1.000  C
  C35      1.0000 0.54770  0.92461  0.22980  Biso   1.000  C
  C36      1.0000 0.45230  0.42461  0.27020  Biso   1.000  C
  C37      1.0000 0.59740  0.06876  0.78810  Biso   1.000  C
  C38      1.0000 0.40260  0.56876  0.71190  Biso   1.000  C
  C39      1.0000 0.40260  0.93124  0.21190  Biso   1.000  C
  C40      1.0000 0.59740  0.43124  0.28810  Biso   1.000  C
  H13      1.0000 0.66990  0.05910  0.83820  Biso   1.000  H
  H14      1.0000 0.33010  0.55910  0.66180  Biso   1.000  H
  H15      1.0000 0.33010  0.94090  0.16180  Biso   1.000  H
  H16      1.0000 0.66990  0.44090  0.33820  Biso   1.000  H
  C41      1.0000 0.17890  0.14677  0.90100  Biso   1.000  C
  C42      1.0000 0.82110  0.64677  0.59900  Biso   1.000  C
  C43      1.0000 0.82110  0.85323  0.09900  Biso   1.000  C
  C44      1.0000 0.17890  0.35323  0.40100  Biso   1.000  C
  C45      1.0000 0.03140  0.15877  0.89150  Biso   1.000  C
  C46      1.0000 0.96860  0.65877  0.60850  Biso   1.000  C
  C47      1.0000 0.96860  0.84123  0.10850  Biso   1.000  C
  C48      1.0000 0.03140  0.34123  0.39150  Biso   1.000  C
  C49      1.0000 0.57310  0.13627  0.05830  Biso   1.000  C
  C50      1.0000 0.42690  0.63627  0.44170  Biso   1.000  C
  C51      1.0000 0.42690  0.86373  0.94170  Biso   1.000  C
  C52      1.0000 0.57310  0.36373  0.55830  Biso   1.000  C
  C53      1.0000 0.60850  0.15368  0.99930  Biso   1.000  C
  C54      1.0000 0.39150  0.65368  0.50070  Biso   1.000  C
  C55      1.0000 0.39150  0.84632  0.00070  Biso   1.000  C
  C56      1.0000 0.60850  0.34632  0.49930  Biso   1.000  C
  C57      1.0000 0.77560  0.14923  0.83170  Biso   1.000  C
  C58      1.0000 0.22440  0.64923  0.66830  Biso   1.000  C
  C59      1.0000 0.22440  0.85077  0.16830  Biso   1.000  C
  C60      1.0000 0.77560  0.35077  0.33170  Biso   1.000  C
  C61      1.0000 0.67620  0.17094  0.76650  Biso   1.000  C
  C62      1.0000 0.32380  0.67094  0.73350  Biso   1.000  C
  C63      1.0000 0.32380  0.82906  0.23350  Biso   1.000  C
  C64      1.0000 0.67620  0.32906  0.26650  Biso   1.000  C
  H17      1.0000 0.69870  0.17840  0.72860  Biso   1.000  H
  H18      1.0000 0.30130  0.67840  0.77140  Biso   1.000  H
  H19      1.0000 0.30130  0.82160  0.27140  Biso   1.000  H
  H20      1.0000 0.69870  0.32160  0.22860  Biso   1.000  H
  C65      1.0000 0.54190  0.18144  0.75880  Biso   1.000  C
  C66      1.0000 0.45810  0.68144  0.74120  Biso   1.000  C
  C67      1.0000 0.45810  0.81856  0.24120  Biso   1.000  C
  C68      1.0000 0.54190  0.31856  0.25880  Biso   1.000  C
  H21      1.0000 0.47540  0.19630  0.71590  Biso   1.000  H
  H22      1.0000 0.52460  0.69630  0.78410  Biso   1.000  H
  H23      1.0000 0.52460  0.80370  0.28410  Biso   1.000  H
  H24      1.0000 0.47540  0.30370  0.21590  Biso   1.000  H
  C69      1.0000 0.50650  0.16994  0.81450  Biso   1.000  C
  C70      1.0000 0.49350  0.66994  0.68550  Biso   1.000  C
  C71      1.0000 0.49350  0.83006  0.18550  Biso   1.000  C
  C72      1.0000 0.50650  0.33006  0.31450  Biso   1.000  C
  H25      1.0000 0.41640  0.17680  0.80870  Biso   1.000  H
  H26      1.0000 0.58360  0.67680  0.69130  Biso   1.000  H
  H27      1.0000 0.58360  0.82320  0.19130  Biso   1.000  H
  H28      1.0000 0.41640  0.32320  0.30870  Biso   1.000  H
  C73      1.0000 0.60670  0.14803  0.87900  Biso   1.000  C
  C74      1.0000 0.39330  0.64803  0.62100  Biso   1.000  C
  C75      1.0000 0.39330  0.85197  0.12100  Biso   1.000  C
  C76      1.0000 0.60670  0.35197  0.37900  Biso   1.000  C
  C77      1.0000 0.74120  0.13785  0.88780  Biso   1.000  C
  C78      1.0000 0.25880  0.63785  0.61220  Biso   1.000  C
  C79      1.0000 0.25880  0.86215  0.11220  Biso   1.000  C
  C80      1.0000 0.74120  0.36215  0.38780  Biso   1.000  C
  H29      1.0000 0.80840  0.12340  0.93130  Biso   1.000  H
  H30      1.0000 0.19160  0.62340  0.56870  Biso   1.000  H
  H31      1.0000 0.19160  0.87660  0.06870  Biso   1.000  H
  H32      1.0000 0.80840  0.37660  0.43130  Biso   1.000  H
  C81      1.0000 0.12920  0.27749  0.90600  Biso   1.000  C
  C82      1.0000 0.87080  0.77749  0.59400  Biso   1.000  C
  C83      1.0000 0.87080  0.72251  0.09400  Biso   1.000  C
  C84      1.0000 0.12920  0.22251  0.40600  Biso   1.000  C
  C85      1.0000 0.11270  0.28232  0.97860  Biso   1.000  C
  C86      1.0000 0.88730  0.78232  0.52140  Biso   1.000  C
  C87      1.0000 0.88730  0.71768  0.02140  Biso   1.000  C
  C88      1.0000 0.11270  0.21768  0.47860  Biso   1.000  C
  C89      1.0000 0.50920  0.27024  0.05040  Biso   1.000  C
  C90      1.0000 0.49080  0.77024  0.44960  Biso   1.000  C
  C91      1.0000 0.49080  0.72976  0.94960  Biso   1.000  C
  C92      1.0000 0.50920  0.22976  0.55040  Biso   1.000  C
  C93      1.0000 0.67220  0.27965  0.07970  Biso   1.000  C
  C94      1.0000 0.32780  0.77965  0.42030  Biso   1.000  C
  C95      1.0000 0.32780  0.72035  0.92030  Biso   1.000  C
  C96      1.0000 0.67220  0.22035  0.57970  Biso   1.000  C
  C97      1.0000 0.01990  0.31922  0.04010  Biso   1.000  C
  C98      1.0000 0.98010  0.81922  0.45990  Biso   1.000  C
  C99      1.0000 0.98010  0.68078  0.95990  Biso   1.000  C
  C100     1.0000 0.01990  0.18078  0.54010  Biso   1.000  C
  C101     1.0000 0.12840  0.33244  0.11640  Biso   1.000  C
  C102     1.0000 0.87160  0.83244  0.38360  Biso   1.000  C
  C103     1.0000 0.87160  0.66756  0.88360  Biso   1.000  C
  C104     1.0000 0.12840  0.16756  0.61640  Biso   1.000  C
  H33      1.0000 0.22580  0.33640  0.12930  Biso   1.000  H
  H34      1.0000 0.77420  0.83640  0.37070  Biso   1.000  H
  H35      1.0000 0.77420  0.66360  0.87070  Biso   1.000  H
  H36      1.0000 0.22580  0.16360  0.62930  Biso   1.000  H
  C105     1.0000 0.09090  0.33969  0.17350  Biso   1.000  C
  C106     1.0000 0.90910  0.83969  0.32650  Biso   1.000  C
  C107     1.0000 0.90910  0.66031  0.82650  Biso   1.000  C
  C108     1.0000 0.09090  0.16031  0.67350  Biso   1.000  C
  H37      1.0000 0.16320  0.34900  0.22420  Biso   1.000  H
  H38      1.0000 0.83680  0.84900  0.27580  Biso   1.000  H
  H39      1.0000 0.83680  0.65100  0.77580  Biso   1.000  H
  H40      1.0000 0.16320  0.15100  0.72420  Biso   1.000  H
  C109     1.0000 0.94630  0.33313  0.15550  Biso   1.000  C
  C110     1.0000 0.05370  0.83313  0.34450  Biso   1.000  C
  C111     1.0000 0.05370  0.66687  0.84450  Biso   1.000  C
  C112     1.0000 0.94630  0.16687  0.65550  Biso   1.000  C
  H41      1.0000 0.92210  0.33760  0.19420  Biso   1.000  H
  H42      1.0000 0.07790  0.83760  0.30580  Biso   1.000  H
  H43      1.0000 0.07790  0.66240  0.80580  Biso   1.000  H
  H44      1.0000 0.92210  0.16240  0.69420  Biso   1.000  H
  C113     1.0000 0.83800  0.31978  0.07890  Biso   1.000  C
  C114     1.0000 0.16200  0.81978  0.42110  Biso   1.000  C
  C115     1.0000 0.16200  0.68022  0.92110  Biso   1.000  C
  C116     1.0000 0.83800  0.18022  0.57890  Biso   1.000  C
  C117     1.0000 0.87480  0.31242  0.02170  Biso   1.000  C
  C118     1.0000 0.12520  0.81242  0.47830  Biso   1.000  C
  C119     1.0000 0.12520  0.68758  0.97830  Biso   1.000  C
  C120     1.0000 0.87480  0.18758  0.52170  Biso   1.000  C
  H45      1.0000 0.80290  0.30300  0.97110  Biso   1.000  H
  H46      1.0000 0.19710  0.80300  0.52890  Biso   1.000  H
  H47      1.0000 0.19710  0.69700  0.02890  Biso   1.000  H
  H48      1.0000 0.80290  0.19700  0.47110  Biso   1.000  H
  C121     1.0000 0.07140  0.89918  0.72000  Biso   1.000  C
  C122     1.0000 0.92860  0.39918  0.78000  Biso   1.000  C
  C123     1.0000 0.92860  0.10082  0.28000  Biso   1.000  C
  C124     1.0000 0.07140  0.60082  0.22000  Biso   1.000  C
  C125     1.0000 0.10580  0.91199  0.65720  Biso   1.000  C
  C126     1.0000 0.89420  0.41199  0.84280  Biso   1.000  C
  C127     1.0000 0.89420  0.08801  0.34280  Biso   1.000  C
  C128     1.0000 0.10580  0.58801  0.15720  Biso   1.000  C
  C129     1.0000 0.68620  0.89870  0.55970  Biso   1.000  C
  C130     1.0000 0.31380  0.39870  0.94030  Biso   1.000  C
  C131     1.0000 0.31380  0.10130  0.44030  Biso   1.000  C
  C132     1.0000 0.68620  0.60130  0.05970  Biso   1.000  C
  C133     1.0000 0.53380  0.91200  0.54230  Biso   1.000  C
  C134     1.0000 0.46620  0.41200  0.95770  Biso   1.000  C
  C135     1.0000 0.46620  0.08800  0.45770  Biso   1.000  C
  C136     1.0000 0.53380  0.58800  0.04230  Biso   1.000  C
  C137     1.0000 0.11640  0.89819  0.54450  Biso   1.000  C
  C138     1.0000 0.88360  0.39819  0.95550  Biso   1.000  C
  C139     1.0000 0.88360  0.10181  0.45550  Biso   1.000  C
  C140     1.0000 0.11640  0.60181  0.04450  Biso   1.000  C
  C141     1.0000 0.01740  0.91914  0.47850  Biso   1.000  C
  C142     1.0000 0.98260  0.41914  0.02150  Biso   1.000  C
  C143     1.0000 0.98260  0.08086  0.52150  Biso   1.000  C
  C144     1.0000 0.01740  0.58086  0.97850  Biso   1.000  C
  H49      1.0000 0.92760  0.92670  0.47210  Biso   1.000  H
  H50      1.0000 0.07240  0.42670  0.02790  Biso   1.000  H
  H51      1.0000 0.07240  0.07330  0.52790  Biso   1.000  H
  H52      1.0000 0.92760  0.57330  0.97210  Biso   1.000  H
  C145     1.0000 0.05270  0.92887  0.42160  Biso   1.000  C
  C146     1.0000 0.94730  0.42887  0.07840  Biso   1.000  C
  C147     1.0000 0.94730  0.07113  0.57840  Biso   1.000  C
  C148     1.0000 0.05270  0.57113  0.92160  Biso   1.000  C
  H53      1.0000 0.98590  0.94270  0.37670  Biso   1.000  H
  H54      1.0000 0.01410  0.44270  0.12330  Biso   1.000  H
  H55      1.0000 0.01410  0.05730  0.62330  Biso   1.000  H
  H56      1.0000 0.98590  0.55730  0.87670  Biso   1.000  H
  C149     1.0000 0.18810  0.91782  0.43210  Biso   1.000  C
  C150     1.0000 0.81190  0.41782  0.06790  Biso   1.000  C
  C151     1.0000 0.81190  0.08218  0.56790  Biso   1.000  C
  C152     1.0000 0.18810  0.58218  0.93210  Biso   1.000  C
  H57      1.0000 0.21170  0.92410  0.39400  Biso   1.000  H
  H58      1.0000 0.78830  0.42410  0.10600  Biso   1.000  H
  H59      1.0000 0.78830  0.07590  0.60600  Biso   1.000  H
  H60      1.0000 0.21170  0.57590  0.89400  Biso   1.000  H
  C153     1.0000 0.28760  0.89738  0.49950  Biso   1.000  C
  C154     1.0000 0.71240  0.39738  0.00050  Biso   1.000  C
  C155     1.0000 0.71240  0.10262  0.50050  Biso   1.000  C
  C156     1.0000 0.28760  0.60262  0.99950  Biso   1.000  C
  C157     1.0000 0.25150  0.88704  0.55530  Biso   1.000  C
  C158     1.0000 0.74850  0.38704  0.94470  Biso   1.000  C
  C159     1.0000 0.74850  0.11296  0.44470  Biso   1.000  C
  C160     1.0000 0.25150  0.61296  0.05530  Biso   1.000  C
  H61      1.0000 0.31720  0.87280  0.59970  Biso   1.000  H
  H62      1.0000 0.68280  0.37280  0.90030  Biso   1.000  H
  H63      1.0000 0.68280  0.12720  0.40030  Biso   1.000  H
  H64      1.0000 0.31720  0.62720  0.09970  Biso   1.000  H
  O133     1.0000 0.15990  0.99939  0.56580  Biso   1.000  O
  O134     1.0000 0.84010  0.49939  0.93420  Biso   1.000  O
  O135     1.0000 0.84010  0.00061  0.43420  Biso   1.000  O
  O136     1.0000 0.15990  0.50061  0.06580  Biso   1.000  O
  O137     1.0000 0.48820  0.98831  0.71220  Biso   1.000  O
  O138     1.0000 0.51180  0.48831  0.78780  Biso   1.000  O
  O139     1.0000 0.51180  0.01169  0.28780  Biso   1.000  O
  O140     1.0000 0.48820  0.51169  0.21220  Biso   1.000  O
  O141     1.0000 0.65670  0.98948  0.88390  Biso   1.000  O
  O142     1.0000 0.34330  0.48948  0.61610  Biso   1.000  O
  O143     1.0000 0.34330  0.01052  0.11610  Biso   1.000  O
  O144     1.0000 0.65670  0.51052  0.38390  Biso   1.000  O
  O145     1.0000 0.91090  0.98735  0.87580  Biso   1.000  O
  O146     1.0000 0.08910  0.48735  0.62420  Biso   1.000  O
  O147     1.0000 0.08910  0.01265  0.12420  Biso   1.000  O
  O148     1.0000 0.91090  0.51265  0.37580  Biso   1.000  O
  O149     1.0000 0.02450  0.57486  0.46390  Biso   1.000  O
  O150     1.0000 0.97550  0.07486  0.03610  Biso   1.000  O
  O151     1.0000 0.97550  0.42514  0.53610  Biso   1.000  O
  O152     1.0000 0.02450  0.92514  0.96390  Biso   1.000  O
  O153     1.0000 0.74600  0.89130  0.92590  Biso   1.000  O
  O154     1.0000 0.25400  0.39130  0.57410  Biso   1.000  O
  O155     1.0000 0.25400  0.10870  0.07410  Biso   1.000  O
  O156     1.0000 0.74600  0.60870  0.42590  Biso   1.000  O
  O157     1.0000 0.96830  0.64807  0.41320  Biso   1.000  O
  O158     1.0000 0.03170  0.14807  0.08680  Biso   1.000  O
  O159     1.0000 0.03170  0.35193  0.58680  Biso   1.000  O
  O160     1.0000 0.96830  0.85193  0.91320  Biso   1.000  O
  O161     1.0000 0.51970  0.91210  0.74590  Biso   1.000  O
  O162     1.0000 0.48030  0.41210  0.75410  Biso   1.000  O
  O163     1.0000 0.48030  0.08790  0.25410  Biso   1.000  O
  O164     1.0000 0.51970  0.58790  0.24590  Biso   1.000  O
  O165     1.0000 0.47620  0.83573  0.74010  Biso   1.000  O
  O166     1.0000 0.52380  0.33573  0.75990  Biso   1.000  O
  O167     1.0000 0.52380  0.16427  0.25990  Biso   1.000  O
  O168     1.0000 0.47620  0.66427  0.24010  Biso   1.000  O
  O169     1.0000 0.69060  0.74666  0.19150  Biso   1.000  O
  O170     1.0000 0.30940  0.24666  0.30850  Biso   1.000  O
  O171     1.0000 0.30940  0.25334  0.80850  Biso   1.000  O
  O172     1.0000 0.69060  0.75334  0.69150  Biso   1.000  O
  O173     1.0000 0.37660  0.75510  0.07990  Biso   1.000  O
  O174     1.0000 0.62340  0.25510  0.42010  Biso   1.000  O
  O175     1.0000 0.62340  0.24490  0.92010  Biso   1.000  O
  O176     1.0000 0.37660  0.74490  0.57990  Biso   1.000  O
  O177     1.0000 0.92630  0.74459  0.35630  Biso   1.000  O
  O178     1.0000 0.07370  0.24459  0.14370  Biso   1.000  O
  O179     1.0000 0.07370  0.25541  0.64370  Biso   1.000  O
  O180     1.0000 0.92630  0.75541  0.85630  Biso   1.000  O
  O181     1.0000 0.17730  0.75348  0.13190  Biso   1.000  O
  O182     1.0000 0.82270  0.25348  0.36810  Biso   1.000  O
  O183     1.0000 0.82270  0.24652  0.86810  Biso   1.000  O
  O184     1.0000 0.17730  0.74652  0.63190  Biso   1.000  O
  O185     1.0000 0.80880  0.63030  0.24820  Biso   1.000  O
  O186     1.0000 0.19120  0.13030  0.25180  Biso   1.000  O
  O187     1.0000 0.19120  0.36970  0.75180  Biso   1.000  O
  O188     1.0000 0.80880  0.86970  0.74820  Biso   1.000  O
