data_image0
_cell_length_a       11.6208
_cell_length_b       11.6208
_cell_length_c       5.964
_cell_angle_alpha    90
_cell_angle_beta     90
_cell_angle_gamma    120

_symmetry_space_group_name_H-M    "P 1"
_symmetry_int_tables_number       1

loop_
  _symmetry_equiv_pos_as_xyz
  'x, y, z'

loop_
  _atom_site_label
  _atom_site_occupancy
  _atom_site_fract_x
  _atom_site_fract_y
  _atom_site_fract_z
  _atom_site_thermal_displace_type
  _atom_site_B_iso_or_equiv
  _atom_site_type_symbol
  Cu1      1.0000 0.56655  0.43345  0.25000  Biso   1.000  Cu
  Cu2      1.0000 0.56655  0.13310  0.25000  Biso   1.000  Cu
  Cu3      1.0000 0.86690  0.43345  0.25000  Biso   1.000  Cu
  Cu4      1.0000 0.43345  0.86690  0.75000  Biso   1.000  Cu
  Cu5      1.0000 0.13310  0.56655  0.75000  Biso   1.000  Cu
  Cu6      1.0000 0.43345  0.56655  0.75000  Biso   1.000  Cu
  Cu7      1.0000 0.00000  0.00000  0.25000  Biso   1.000  Cu
  Cu8      1.0000 0.00000  0.00000  0.75000  Biso   1.000  Cu
  N1       1.0000 0.40440  0.26130  0.25000  Biso   1.000  N
  N2       1.0000 0.73870  0.14310  0.25000  Biso   1.000  N
  N3       1.0000 0.85690  0.59560  0.25000  Biso   1.000  N
  N4       1.0000 0.26130  0.85690  0.75000  Biso   1.000  N
  N5       1.0000 0.14310  0.40440  0.75000  Biso   1.000  N
  N6       1.0000 0.26130  0.40440  0.75000  Biso   1.000  N
  N7       1.0000 0.85690  0.26130  0.25000  Biso   1.000  N
  N8       1.0000 0.40440  0.14310  0.25000  Biso   1.000  N
  N9       1.0000 0.59560  0.73870  0.75000  Biso   1.000  N
  N10      1.0000 0.14310  0.73870  0.75000  Biso   1.000  N
  N11      1.0000 0.59560  0.85690  0.75000  Biso   1.000  N
  N12      1.0000 0.73870  0.59560  0.25000  Biso   1.000  N
  N13      1.0000 0.19530  0.09770  0.25000  Biso   1.000  N
  N14      1.0000 0.90230  0.09760  0.25000  Biso   1.000  N
  N15      1.0000 0.90240  0.80470  0.25000  Biso   1.000  N
  N16      1.0000 0.09770  0.90240  0.75000  Biso   1.000  N
  N17      1.0000 0.09760  0.19530  0.75000  Biso   1.000  N
  N18      1.0000 0.80470  0.90230  0.75000  Biso   1.000  N
  O1       1.0000 0.66670  0.33330  0.25000  Biso   1.000  O
  O2       1.0000 0.33330  0.66660  0.75000  Biso   1.000  O
  Cl1      1.0000 0.44996  0.55004  0.25000  Biso   1.000  Cl
  Cl2      1.0000 0.44996  0.89992  0.25000  Biso   1.000  Cl
  Cl3      1.0000 0.10008  0.55004  0.25000  Biso   1.000  Cl
  Cl4      1.0000 0.55004  0.10008  0.75000  Biso   1.000  Cl
  Cl5      1.0000 0.89992  0.44996  0.75000  Biso   1.000  Cl
  Cl6      1.0000 0.55004  0.44996  0.75000  Biso   1.000  Cl
  C1       1.0000 0.27900  0.22990  0.25000  Biso   1.000  C
  C2       1.0000 0.77010  0.04910  0.25000  Biso   1.000  C
  C3       1.0000 0.95090  0.72100  0.25000  Biso   1.000  C
  C4       1.0000 0.22990  0.95090  0.75000  Biso   1.000  C
  C5       1.0000 0.04910  0.27900  0.75000  Biso   1.000  C
  C6       1.0000 0.22990  0.27900  0.75000  Biso   1.000  C
  C7       1.0000 0.95090  0.22990  0.25000  Biso   1.000  C
  C8       1.0000 0.27900  0.04910  0.25000  Biso   1.000  C
  C9       1.0000 0.72100  0.77010  0.75000  Biso   1.000  C
  C10      1.0000 0.04910  0.77010  0.75000  Biso   1.000  C
  C11      1.0000 0.72100  0.95090  0.75000  Biso   1.000  C
  C12      1.0000 0.77010  0.72100  0.25000  Biso   1.000  C
  H1       1.0000 0.25110  0.29220  0.25000  Biso   1.000  H
  H2       1.0000 0.70780  0.95890  0.25000  Biso   1.000  H
  H3       1.0000 0.04110  0.74890  0.25000  Biso   1.000  H
  H4       1.0000 0.29220  0.04110  0.75000  Biso   1.000  H
  H5       1.0000 0.95890  0.25110  0.75000  Biso   1.000  H
  H6       1.0000 0.29220  0.25110  0.75000  Biso   1.000  H
  H7       1.0000 0.04110  0.29220  0.25000  Biso   1.000  H
  H8       1.0000 0.25110  0.95890  0.25000  Biso   1.000  H
  H9       1.0000 0.74890  0.70780  0.75000  Biso   1.000  H
  H10      1.0000 0.95890  0.70780  0.75000  Biso   1.000  H
  H11      1.0000 0.74890  0.04110  0.75000  Biso   1.000  H
  H12      1.0000 0.70780  0.74890  0.25000  Biso   1.000  H
