data_image0
_cell_length_a       7.1166
_cell_length_b       7.1316
_cell_length_c       7.5211
_cell_angle_alpha    87.334
_cell_angle_beta     79.428
_cell_angle_gamma    86.698

_symmetry_space_group_name_H-M    "P 1"
_symmetry_int_tables_number       1

loop_
  _symmetry_equiv_pos_as_xyz
  'x, y, z'

loop_
  _atom_site_label
  _atom_site_occupancy
  _atom_site_fract_x
  _atom_site_fract_y
  _atom_site_fract_z
  _atom_site_thermal_displace_type
  _atom_site_B_iso_or_equiv
  _atom_site_type_symbol
  Cu1      1.0000 0.50000  0.00000  0.00000  Biso   1.000  Cu
  Cs1      1.0000 0.70341  0.26027  0.50675  Biso   1.000  Cs
  Cs2      1.0000 0.29659  0.73973  0.49325  Biso   1.000  Cs
  C1       1.0000 0.33530  0.37120  0.93600  Biso   1.000  C
  C2       1.0000 0.66470  0.62880  0.06400  Biso   1.000  C
  C3       1.0000 0.20740  0.34990  0.11790  Biso   1.000  C
  C4       1.0000 0.79260  0.65010  0.88210  Biso   1.000  C
  H1       1.0000 0.09820  0.28100  0.10240  Biso   1.000  H
  H2       1.0000 0.90180  0.71900  0.89760  Biso   1.000  H
  H3       1.0000 0.15920  0.47430  0.15640  Biso   1.000  H
  H4       1.0000 0.84080  0.52570  0.84360  Biso   1.000  H
  C5       1.0000 0.29380  0.25250  0.26920  Biso   1.000  C
  C6       1.0000 0.70620  0.74750  0.73080  Biso   1.000  C
  O1       1.0000 0.43700  0.22950  0.87130  Biso   1.000  O
  O2       1.0000 0.56300  0.77050  0.12870  Biso   1.000  O
  O3       1.0000 0.40220  0.10640  0.23830  Biso   1.000  O
  O4       1.0000 0.59780  0.89360  0.76170  Biso   1.000  O
  O5       1.0000 0.33150  0.52250  0.85070  Biso   1.000  O
  O6       1.0000 0.66850  0.47750  0.14930  Biso   1.000  O
  O7       1.0000 0.24870  0.31930  0.42350  Biso   1.000  O
  O8       1.0000 0.75130  0.68070  0.57650  Biso   1.000  O
  O9       1.0000 0.20270  0.86380  0.97820  Biso   1.000  O
  O10      1.0000 0.79730  0.13620  0.02180  Biso   1.000  O
  O11      1.0000 0.07430  0.10520  0.71180  Biso   1.000  O
  O12      1.0000 0.92570  0.89480  0.28820  Biso   1.000  O
