data_image0
_cell_length_a       8.6813
_cell_length_b       18.4192
_cell_length_c       15.9817
_cell_angle_alpha    90
_cell_angle_beta     100.384
_cell_angle_gamma    90

_symmetry_space_group_name_H-M    "P 1"
_symmetry_int_tables_number       1

loop_
  _symmetry_equiv_pos_as_xyz
  'x, y, z'

loop_
  _atom_site_label
  _atom_site_occupancy
  _atom_site_fract_x
  _atom_site_fract_y
  _atom_site_fract_z
  _atom_site_thermal_displace_type
  _atom_site_B_iso_or_equiv
  _atom_site_type_symbol
  Cu1      1.0000 0.77720  0.45557  0.82122  Biso   1.000  Cu
  Cu2      1.0000 0.22280  0.95557  0.67878  Biso   1.000  Cu
  Cu3      1.0000 0.22280  0.54443  0.17878  Biso   1.000  Cu
  Cu4      1.0000 0.77720  0.04443  0.32122  Biso   1.000  Cu
  Cu5      1.0000 0.83949  0.29556  0.87293  Biso   1.000  Cu
  Cu6      1.0000 0.16051  0.79556  0.62707  Biso   1.000  Cu
  Cu7      1.0000 0.16051  0.70444  0.12707  Biso   1.000  Cu
  Cu8      1.0000 0.83949  0.20444  0.37293  Biso   1.000  Cu
  O1       1.0000 0.58790  0.34596  0.80576  Biso   1.000  O
  O2       1.0000 0.41210  0.84596  0.69424  Biso   1.000  O
  O3       1.0000 0.41210  0.65404  0.19424  Biso   1.000  O
  O4       1.0000 0.58790  0.15404  0.30576  Biso   1.000  O
  O5       1.0000 0.94160  0.19770  0.27551  Biso   1.000  O
  O6       1.0000 0.05840  0.69770  0.22449  Biso   1.000  O
  O7       1.0000 0.05840  0.80230  0.72449  Biso   1.000  O
  O8       1.0000 0.94160  0.30230  0.77551  Biso   1.000  O
  O9       1.0000 0.89440  0.08229  0.23553  Biso   1.000  O
  O10      1.0000 0.10560  0.58229  0.26447  Biso   1.000  O
  O11      1.0000 0.10560  0.91771  0.76447  Biso   1.000  O
  O12      1.0000 0.89440  0.41771  0.73553  Biso   1.000  O
  O13      1.0000 0.30470  0.02856  0.76492  Biso   1.000  O
  O14      1.0000 0.69530  0.52856  0.73508  Biso   1.000  O
  O15      1.0000 0.69530  0.97144  0.23508  Biso   1.000  O
  O16      1.0000 0.30470  0.47144  0.26492  Biso   1.000  O
  O17      1.0000 0.41260  0.10640  0.68634  Biso   1.000  O
  O18      1.0000 0.58740  0.60640  0.81366  Biso   1.000  O
  O19      1.0000 0.58740  0.89360  0.31366  Biso   1.000  O
  O20      1.0000 0.41260  0.39360  0.18634  Biso   1.000  O
  O21      1.0000 0.64900  0.49406  0.90229  Biso   1.000  O
  O22      1.0000 0.35100  0.99406  0.59771  Biso   1.000  O
  O23      1.0000 0.35100  0.50594  0.09771  Biso   1.000  O
  O24      1.0000 0.64900  0.00594  0.40229  Biso   1.000  O
  H1       1.0000 0.61020  0.53220  0.87850  Biso   1.000  H
  H2       1.0000 0.38980  0.03220  0.62150  Biso   1.000  H
  H3       1.0000 0.38980  0.46780  0.12150  Biso   1.000  H
  H4       1.0000 0.61020  0.96780  0.37850  Biso   1.000  H
  H5       1.0000 0.58640  0.46770  0.90280  Biso   1.000  H
  H6       1.0000 0.41360  0.96770  0.59720  Biso   1.000  H
  H7       1.0000 0.41360  0.53230  0.09720  Biso   1.000  H
  H8       1.0000 0.58640  0.03230  0.40280  Biso   1.000  H
  O25      1.0000 0.88300  0.39289  0.90959  Biso   1.000  O
  O26      1.0000 0.11700  0.89289  0.59041  Biso   1.000  O
  O27      1.0000 0.11700  0.60711  0.09041  Biso   1.000  O
  O28      1.0000 0.88300  0.10711  0.40959  Biso   1.000  O
  H9       1.0000 0.97610  0.40510  0.91710  Biso   1.000  H
  H10      1.0000 0.02390  0.90510  0.58290  Biso   1.000  H
  H11      1.0000 0.02390  0.59490  0.08290  Biso   1.000  H
  H12      1.0000 0.97610  0.09490  0.41710  Biso   1.000  H
  O29      1.0000 0.97859  0.56210  0.88133  Biso   1.000  O
  O30      1.0000 0.02141  0.06210  0.61867  Biso   1.000  O
  O31      1.0000 0.02141  0.43790  0.11867  Biso   1.000  O
  O32      1.0000 0.97859  0.93790  0.38133  Biso   1.000  O
  H13      1.0000 0.92580  0.56400  0.92120  Biso   1.000  H
  H14      1.0000 0.07420  0.06400  0.57880  Biso   1.000  H
  H15      1.0000 0.07420  0.43600  0.07880  Biso   1.000  H
  H16      1.0000 0.92580  0.93600  0.42120  Biso   1.000  H
  H17      1.0000 0.04850  0.53050  0.89300  Biso   1.000  H
  H18      1.0000 0.95150  0.03050  0.60700  Biso   1.000  H
  H19      1.0000 0.95150  0.46950  0.10700  Biso   1.000  H
  H20      1.0000 0.04850  0.96950  0.39300  Biso   1.000  H
  O33      1.0000 0.42838  0.39856  0.88148  Biso   1.000  O
  O34      1.0000 0.57162  0.89856  0.61852  Biso   1.000  O
  O35      1.0000 0.57162  0.60144  0.11852  Biso   1.000  O
  O36      1.0000 0.42838  0.10144  0.38148  Biso   1.000  O
  N1       1.0000 0.81556  0.18787  0.85246  Biso   1.000  N
  N2       1.0000 0.18444  0.68787  0.64754  Biso   1.000  N
  N3       1.0000 0.18444  0.81213  0.14754  Biso   1.000  N
  N4       1.0000 0.81556  0.31213  0.35246  Biso   1.000  N
  N5       1.0000 0.74821  0.26975  0.97549  Biso   1.000  N
  N6       1.0000 0.25179  0.76975  0.52451  Biso   1.000  N
  N7       1.0000 0.25179  0.73025  0.02451  Biso   1.000  N
  N8       1.0000 0.74821  0.23025  0.47549  Biso   1.000  N
  C1       1.0000 0.41400  0.21602  0.80255  Biso   1.000  C
  C2       1.0000 0.58600  0.71602  0.69745  Biso   1.000  C
  C3       1.0000 0.58600  0.78398  0.19745  Biso   1.000  C
  C4       1.0000 0.41400  0.28398  0.30255  Biso   1.000  C
  H21      1.0000 0.46920  0.22280  0.75840  Biso   1.000  H
  H22      1.0000 0.53080  0.72280  0.74160  Biso   1.000  H
  H23      1.0000 0.53080  0.77720  0.24160  Biso   1.000  H
  H24      1.0000 0.46920  0.27720  0.25840  Biso   1.000  H
  C5       1.0000 0.27120  0.13812  0.88160  Biso   1.000  C
  C6       1.0000 0.72880  0.63812  0.61840  Biso   1.000  C
  C7       1.0000 0.72880  0.86188  0.11840  Biso   1.000  C
  C8       1.0000 0.27120  0.36188  0.38160  Biso   1.000  C
  H25      1.0000 0.23040  0.09250  0.88970  Biso   1.000  H
  H26      1.0000 0.76960  0.59250  0.61030  Biso   1.000  H
  H27      1.0000 0.76960  0.90750  0.11030  Biso   1.000  H
  H28      1.0000 0.23040  0.40750  0.38970  Biso   1.000  H
  C9       1.0000 0.95000  0.14395  0.22802  Biso   1.000  C
  C10      1.0000 0.05000  0.64395  0.27198  Biso   1.000  C
  C11      1.0000 0.05000  0.85605  0.77198  Biso   1.000  C
  C12      1.0000 0.95000  0.35605  0.72802  Biso   1.000  C
  C13      1.0000 0.31900  0.26192  0.92369  Biso   1.000  C
  C14      1.0000 0.68100  0.76192  0.57631  Biso   1.000  C
  C15      1.0000 0.68100  0.73808  0.07631  Biso   1.000  C
  C16      1.0000 0.31900  0.23808  0.42369  Biso   1.000  C
  H29      1.0000 0.30750  0.30050  0.95960  Biso   1.000  H
  H30      1.0000 0.69250  0.80050  0.54040  Biso   1.000  H
  H31      1.0000 0.69250  0.69950  0.04040  Biso   1.000  H
  H32      1.0000 0.30750  0.19950  0.45960  Biso   1.000  H
  C17      1.0000 0.25490  0.19405  0.93817  Biso   1.000  C
  C18      1.0000 0.74510  0.69405  0.56183  Biso   1.000  C
  C19      1.0000 0.74510  0.80595  0.06183  Biso   1.000  C
  C20      1.0000 0.25490  0.30595  0.43817  Biso   1.000  C
  C21      1.0000 0.71630  0.19789  0.98036  Biso   1.000  C
  C22      1.0000 0.28370  0.69789  0.51964  Biso   1.000  C
  C23      1.0000 0.28370  0.80211  0.01964  Biso   1.000  C
  C24      1.0000 0.71630  0.30211  0.48036  Biso   1.000  C
  C25      1.0000 0.35670  0.09015  0.74996  Biso   1.000  C
  C26      1.0000 0.64330  0.59015  0.75004  Biso   1.000  C
  C27      1.0000 0.64330  0.90985  0.25004  Biso   1.000  C
  C28      1.0000 0.35670  0.40985  0.24996  Biso   1.000  C
  C29      1.0000 0.75140  0.15366  0.91300  Biso   1.000  C
  C30      1.0000 0.24860  0.65366  0.58700  Biso   1.000  C
  C31      1.0000 0.24860  0.84634  0.08700  Biso   1.000  C
  C32      1.0000 0.75140  0.34634  0.41300  Biso   1.000  C
  C33      1.0000 0.34730  0.14922  0.81345  Biso   1.000  C
  C34      1.0000 0.65270  0.64922  0.68655  Biso   1.000  C
  C35      1.0000 0.65270  0.85078  0.18655  Biso   1.000  C
  C36      1.0000 0.34730  0.35078  0.31345  Biso   1.000  C
  C37      1.0000 0.09860  0.11707  0.02238  Biso   1.000  C
  C38      1.0000 0.90140  0.61707  0.47762  Biso   1.000  C
  C39      1.0000 0.90140  0.88293  0.97762  Biso   1.000  C
  C40      1.0000 0.09860  0.38293  0.52238  Biso   1.000  C
  H33      1.0000 0.09280  0.08150  0.98060  Biso   1.000  H
  H34      1.0000 0.90720  0.58150  0.51940  Biso   1.000  H
  H35      1.0000 0.90720  0.91850  0.01940  Biso   1.000  H
  H36      1.0000 0.09280  0.41850  0.48060  Biso   1.000  H
  C41      1.0000 0.47760  0.34479  0.84627  Biso   1.000  C
  C42      1.0000 0.52240  0.84479  0.65373  Biso   1.000  C
  C43      1.0000 0.52240  0.65521  0.15373  Biso   1.000  C
  C44      1.0000 0.47760  0.15521  0.34627  Biso   1.000  C
  C45      1.0000 0.39870  0.27271  0.85721  Biso   1.000  C
  C46      1.0000 0.60130  0.77271  0.64279  Biso   1.000  C
  C47      1.0000 0.60130  0.72729  0.14279  Biso   1.000  C
  C48      1.0000 0.39870  0.22729  0.35721  Biso   1.000  C
  C49      1.0000 0.18160  0.23297  0.07720  Biso   1.000  C
  C50      1.0000 0.81840  0.73297  0.42280  Biso   1.000  C
  C51      1.0000 0.81840  0.76703  0.92280  Biso   1.000  C
  C52      1.0000 0.18160  0.26703  0.57720  Biso   1.000  C
  H37      1.0000 0.23450  0.27640  0.07340  Biso   1.000  H
  H38      1.0000 0.76550  0.77640  0.42660  Biso   1.000  H
  H39      1.0000 0.76550  0.72360  0.92660  Biso   1.000  H
  H40      1.0000 0.23450  0.22360  0.57340  Biso   1.000  H
  C53      1.0000 0.02880  0.10462  0.09186  Biso   1.000  C
  C54      1.0000 0.97120  0.60462  0.40814  Biso   1.000  C
  C55      1.0000 0.97120  0.89538  0.90814  Biso   1.000  C
  C56      1.0000 0.02880  0.39538  0.59186  Biso   1.000  C
  H41      1.0000 0.97850  0.06060  0.09670  Biso   1.000  H
  H42      1.0000 0.02150  0.56060  0.40330  Biso   1.000  H
  H43      1.0000 0.02150  0.93940  0.90330  Biso   1.000  H
  H44      1.0000 0.97850  0.43940  0.59670  Biso   1.000  H
  C57      1.0000 0.65250  0.16720  0.04632  Biso   1.000  C
  C58      1.0000 0.34750  0.66720  0.45368  Biso   1.000  C
  C59      1.0000 0.34750  0.83280  0.95368  Biso   1.000  C
  C60      1.0000 0.65250  0.33280  0.54632  Biso   1.000  C
  C61      1.0000 0.17750  0.18121  0.01315  Biso   1.000  C
  C62      1.0000 0.82250  0.68121  0.48685  Biso   1.000  C
  C63      1.0000 0.82250  0.81879  0.98685  Biso   1.000  C
  C64      1.0000 0.17750  0.31879  0.51315  Biso   1.000  C
  C65      1.0000 0.61550  0.21467  0.10820  Biso   1.000  C
  C66      1.0000 0.38450  0.71467  0.39180  Biso   1.000  C
  C67      1.0000 0.38450  0.78533  0.89180  Biso   1.000  C
  C68      1.0000 0.61550  0.28533  0.60820  Biso   1.000  C
  H45      1.0000 0.57360  0.19680  0.15370  Biso   1.000  H
  H46      1.0000 0.42640  0.69680  0.34630  Biso   1.000  H
  H47      1.0000 0.42640  0.80320  0.84630  Biso   1.000  H
  H48      1.0000 0.57360  0.30320  0.65370  Biso   1.000  H
  C69      1.0000 0.71010  0.31327  0.03466  Biso   1.000  C
  C70      1.0000 0.28990  0.81327  0.46534  Biso   1.000  C
  C71      1.0000 0.28990  0.68673  0.96534  Biso   1.000  C
  C72      1.0000 0.71010  0.18673  0.53466  Biso   1.000  C
  H49      1.0000 0.72990  0.36270  0.03180  Biso   1.000  H
  H50      1.0000 0.27010  0.86270  0.46820  Biso   1.000  H
  H51      1.0000 0.27010  0.63730  0.96820  Biso   1.000  H
  H52      1.0000 0.72990  0.13730  0.53180  Biso   1.000  H
  C73      1.0000 0.03240  0.15656  0.15430  Biso   1.000  C
  C74      1.0000 0.96760  0.65656  0.34570  Biso   1.000  C
  C75      1.0000 0.96760  0.84344  0.84570  Biso   1.000  C
  C76      1.0000 0.03240  0.34344  0.65430  Biso   1.000  C
  C77      1.0000 0.65810  0.04931  0.98180  Biso   1.000  C
  C78      1.0000 0.34190  0.54931  0.51820  Biso   1.000  C
  C79      1.0000 0.34190  0.95069  0.01820  Biso   1.000  C
  C80      1.0000 0.65810  0.45069  0.48180  Biso   1.000  C
  H53      1.0000 0.63830  0.99970  0.98230  Biso   1.000  H
  H54      1.0000 0.36170  0.49970  0.51770  Biso   1.000  H
  H55      1.0000 0.36170  0.00030  0.01770  Biso   1.000  H
  H56      1.0000 0.63830  0.50030  0.48230  Biso   1.000  H
  C81      1.0000 0.64120  0.28710  0.10110  Biso   1.000  C
  C82      1.0000 0.35880  0.78710  0.39890  Biso   1.000  C
  C83      1.0000 0.35880  0.71290  0.89890  Biso   1.000  C
  C84      1.0000 0.64120  0.21290  0.60110  Biso   1.000  C
  H57      1.0000 0.61290  0.31920  0.14070  Biso   1.000  H
  H58      1.0000 0.38710  0.81920  0.35930  Biso   1.000  H
  H59      1.0000 0.38710  0.68080  0.85930  Biso   1.000  H
  H60      1.0000 0.61290  0.18080  0.64070  Biso   1.000  H
  C85      1.0000 0.10920  0.22120  0.14600  Biso   1.000  C
  C86      1.0000 0.89080  0.72120  0.35400  Biso   1.000  C
  C87      1.0000 0.89080  0.77880  0.85400  Biso   1.000  C
  C88      1.0000 0.10920  0.27880  0.64600  Biso   1.000  C
  H61      1.0000 0.11190  0.25710  0.18710  Biso   1.000  H
  H62      1.0000 0.88810  0.75710  0.31290  Biso   1.000  H
  H63      1.0000 0.88810  0.74290  0.81290  Biso   1.000  H
  H64      1.0000 0.11190  0.24290  0.68710  Biso   1.000  H
  C89      1.0000 0.71970  0.07990  0.91190  Biso   1.000  C
  C90      1.0000 0.28030  0.57990  0.58810  Biso   1.000  C
  C91      1.0000 0.28030  0.92010  0.08810  Biso   1.000  C
  C92      1.0000 0.71970  0.42010  0.41190  Biso   1.000  C
  C93      1.0000 0.62870  0.09026  0.04570  Biso   1.000  C
  C94      1.0000 0.37130  0.59026  0.45430  Biso   1.000  C
  C95      1.0000 0.37130  0.90974  0.95430  Biso   1.000  C
  C96      1.0000 0.62870  0.40974  0.54570  Biso   1.000  C
  H65      1.0000 0.59210  0.06850  0.09090  Biso   1.000  H
  H66      1.0000 0.40790  0.56850  0.40910  Biso   1.000  H
  H67      1.0000 0.40790  0.93150  0.90910  Biso   1.000  H
  H68      1.0000 0.59210  0.43150  0.59090  Biso   1.000  H
  C97      1.0000 0.85170  0.14735  0.78970  Biso   1.000  C
  C98      1.0000 0.14830  0.64735  0.71030  Biso   1.000  C
  C99      1.0000 0.14830  0.85265  0.21030  Biso   1.000  C
  C100     1.0000 0.85170  0.35265  0.28970  Biso   1.000  C
  H69      1.0000 0.90020  0.16950  0.74900  Biso   1.000  H
  H70      1.0000 0.09980  0.66950  0.75100  Biso   1.000  H
  H71      1.0000 0.09980  0.83050  0.25100  Biso   1.000  H
  H72      1.0000 0.90020  0.33050  0.24900  Biso   1.000  H
  C101     1.0000 0.82040  0.07439  0.78260  Biso   1.000  C
  C102     1.0000 0.17960  0.57439  0.71740  Biso   1.000  C
  C103     1.0000 0.17960  0.92561  0.21740  Biso   1.000  C
  C104     1.0000 0.82040  0.42561  0.28260  Biso   1.000  C
  H73      1.0000 0.84540  0.04830  0.73700  Biso   1.000  H
  H74      1.0000 0.15460  0.54830  0.76300  Biso   1.000  H
  H75      1.0000 0.15460  0.95170  0.26300  Biso   1.000  H
  H76      1.0000 0.84540  0.45170  0.23700  Biso   1.000  H
  C105     1.0000 0.75250  0.04017  0.84230  Biso   1.000  C
  C106     1.0000 0.24750  0.54017  0.65770  Biso   1.000  C
  C107     1.0000 0.24750  0.95983  0.15770  Biso   1.000  C
  C108     1.0000 0.75250  0.45983  0.34230  Biso   1.000  C
  H77      1.0000 0.72820  0.99100  0.83700  Biso   1.000  H
  H78      1.0000 0.27180  0.49100  0.66300  Biso   1.000  H
  H79      1.0000 0.27180  0.00900  0.16300  Biso   1.000  H
  H80      1.0000 0.72820  0.50900  0.33700  Biso   1.000  H
  O37      1.0000 0.18700  0.04591  0.44520  Biso   1.000  O
  O38      1.0000 0.81300  0.54591  0.05480  Biso   1.000  O
  O39      1.0000 0.81300  0.95409  0.55480  Biso   1.000  O
  O40      1.0000 0.18700  0.45409  0.94520  Biso   1.000  O
  H81      1.0000 0.22490  0.05360  0.41110  Biso   1.000  H
  H82      1.0000 0.77510  0.55360  0.08890  Biso   1.000  H
  H83      1.0000 0.77510  0.94640  0.58890  Biso   1.000  H
  H84      1.0000 0.22490  0.44640  0.91110  Biso   1.000  H
  H85      1.0000 0.25540  0.03240  0.49480  Biso   1.000  H
  H86      1.0000 0.74460  0.53240  0.00520  Biso   1.000  H
  H87      1.0000 0.74460  0.96760  0.50520  Biso   1.000  H
  H88      1.0000 0.25540  0.46760  0.99480  Biso   1.000  H
