data_image0
_cell_length_a       13.157
_cell_length_b       13.641
_cell_length_c       14.205
_cell_angle_alpha    90
_cell_angle_beta     115.98
_cell_angle_gamma    90

_symmetry_space_group_name_H-M    "P 1"
_symmetry_int_tables_number       1

loop_
  _symmetry_equiv_pos_as_xyz
  'x, y, z'

loop_
  _atom_site_label
  _atom_site_occupancy
  _atom_site_fract_x
  _atom_site_fract_y
  _atom_site_fract_z
  _atom_site_thermal_displace_type
  _atom_site_B_iso_or_equiv
  _atom_site_type_symbol
  Fe1      1.0000 0.86234  0.04812  0.60802  Biso   1.000  Fe
  Fe2      1.0000 0.63766  0.54812  0.89198  Biso   1.000  Fe
  Fe3      1.0000 0.13766  0.95188  0.39198  Biso   1.000  Fe
  Fe4      1.0000 0.36234  0.45188  0.10802  Biso   1.000  Fe
  Cu1      1.0000 0.92388  0.33852  0.41981  Biso   1.000  Cu
  Cu2      1.0000 0.57612  0.83852  0.08019  Biso   1.000  Cu
  Cu3      1.0000 0.07612  0.66148  0.58019  Biso   1.000  Cu
  Cu4      1.0000 0.42388  0.16148  0.91981  Biso   1.000  Cu
  S1       1.0000 0.05308  0.25322  0.38802  Biso   1.000  S
  S2       1.0000 0.44692  0.75322  0.11198  Biso   1.000  S
  S3       1.0000 0.94692  0.74678  0.61198  Biso   1.000  S
  S4       1.0000 0.55308  0.24678  0.88802  Biso   1.000  S
  O1       1.0000 0.84750  0.42510  0.47290  Biso   1.000  O
  O2       1.0000 0.65250  0.92510  0.02710  Biso   1.000  O
  O3       1.0000 0.15250  0.57490  0.52710  Biso   1.000  O
  O4       1.0000 0.34750  0.07490  0.97290  Biso   1.000  O
  O5       1.0000 0.74530  0.81360  0.23360  Biso   1.000  O
  O6       1.0000 0.75470  0.31360  0.26640  Biso   1.000  O
  O7       1.0000 0.25470  0.18640  0.76640  Biso   1.000  O
  O8       1.0000 0.24530  0.68640  0.73360  Biso   1.000  O
  O9       1.0000 0.07890  0.96940  0.68880  Biso   1.000  O
  O10      1.0000 0.42110  0.46940  0.81120  Biso   1.000  O
  O11      1.0000 0.92110  0.03060  0.31120  Biso   1.000  O
  O12      1.0000 0.57890  0.53060  0.18880  Biso   1.000  O
  N1       1.0000 0.13860  0.32240  0.26450  Biso   1.000  N
  N2       1.0000 0.36140  0.82240  0.23550  Biso   1.000  N
  N3       1.0000 0.86140  0.67760  0.73550  Biso   1.000  N
  N4       1.0000 0.63860  0.17760  0.76450  Biso   1.000  N
  N5       1.0000 0.02410  0.42830  0.29790  Biso   1.000  N
  N6       1.0000 0.47590  0.92830  0.20210  Biso   1.000  N
  N7       1.0000 0.97590  0.57170  0.70210  Biso   1.000  N
  N8       1.0000 0.52410  0.07170  0.79790  Biso   1.000  N
  N9       1.0000 0.95480  0.44740  0.34440  Biso   1.000  N
  N10      1.0000 0.54520  0.94740  0.15560  Biso   1.000  N
  N11      1.0000 0.04520  0.55260  0.65560  Biso   1.000  N
  N12      1.0000 0.45480  0.05260  0.84440  Biso   1.000  N
  N13      1.0000 0.67750  0.63540  0.43100  Biso   1.000  N
  N14      1.0000 0.82250  0.13540  0.06900  Biso   1.000  N
  N15      1.0000 0.32250  0.36460  0.56900  Biso   1.000  N
  N16      1.0000 0.17750  0.86460  0.93100  Biso   1.000  N
  N17      1.0000 0.90060  0.22910  0.49730  Biso   1.000  N
  N18      1.0000 0.59940  0.72910  0.00270  Biso   1.000  N
  N19      1.0000 0.09940  0.77090  0.50270  Biso   1.000  N
  N20      1.0000 0.40060  0.27090  0.99730  Biso   1.000  N
  N21      1.0000 0.78270  0.88540  0.71070  Biso   1.000  N
  N22      1.0000 0.71730  0.38540  0.78930  Biso   1.000  N
  N23      1.0000 0.21730  0.11460  0.28930  Biso   1.000  N
  N24      1.0000 0.28270  0.61460  0.21070  Biso   1.000  N
  N25      1.0000 0.62010  0.12290  0.53670  Biso   1.000  N
  N26      1.0000 0.87990  0.62290  0.96330  Biso   1.000  N
  N27      1.0000 0.37990  0.87710  0.46330  Biso   1.000  N
  N28      1.0000 0.12010  0.37710  0.03670  Biso   1.000  N
  N29      1.0000 0.77460  0.93700  0.39900  Biso   1.000  N
  N30      1.0000 0.72540  0.43700  0.10100  Biso   1.000  N
  N31      1.0000 0.22540  0.06300  0.60100  Biso   1.000  N
  N32      1.0000 0.27460  0.56300  0.89900  Biso   1.000  N
  N33      1.0000 0.91680  0.17310  0.80440  Biso   1.000  N
  N34      1.0000 0.58320  0.67310  0.69560  Biso   1.000  N
  N35      1.0000 0.08320  0.82690  0.19560  Biso   1.000  N
  N36      1.0000 0.41680  0.32690  0.30440  Biso   1.000  N
  N37      1.0000 0.99110  0.00260  0.65360  Biso   1.000  N
  N38      1.0000 0.50890  0.50260  0.84640  Biso   1.000  N
  N39      1.0000 0.00890  0.99740  0.34640  Biso   1.000  N
  N40      1.0000 0.49110  0.49740  0.15360  Biso   1.000  N
  C1       1.0000 0.07360  0.33950  0.31060  Biso   1.000  C
  C2       1.0000 0.42640  0.83950  0.18940  Biso   1.000  C
  C3       1.0000 0.92640  0.66050  0.68940  Biso   1.000  C
  C4       1.0000 0.57360  0.16050  0.81060  Biso   1.000  C
  C5       1.0000 0.91150  0.53530  0.32960  Biso   1.000  C
  C6       1.0000 0.58850  0.03530  0.17040  Biso   1.000  C
  C7       1.0000 0.08850  0.46470  0.67040  Biso   1.000  C
  C8       1.0000 0.41150  0.96470  0.82960  Biso   1.000  C
  C9       1.0000 0.83300  0.56810  0.36840  Biso   1.000  C
  C10      1.0000 0.66700  0.06810  0.13160  Biso   1.000  C
  C11      1.0000 0.16700  0.43190  0.63160  Biso   1.000  C
  C12      1.0000 0.33300  0.93190  0.86840  Biso   1.000  C
  C13      1.0000 0.78160  0.66200  0.33560  Biso   1.000  C
  C14      1.0000 0.71840  0.16200  0.16440  Biso   1.000  C
  C15      1.0000 0.21840  0.33800  0.66440  Biso   1.000  C
  C16      1.0000 0.28160  0.83800  0.83560  Biso   1.000  C
  C17      1.0000 0.70540  0.69220  0.36950  Biso   1.000  C
  C18      1.0000 0.79460  0.19220  0.13050  Biso   1.000  C
  C19      1.0000 0.29460  0.30780  0.63050  Biso   1.000  C
  C20      1.0000 0.20540  0.80780  0.86950  Biso   1.000  C
  C21      1.0000 0.72190  0.54680  0.46590  Biso   1.000  C
  C22      1.0000 0.77810  0.04680  0.03410  Biso   1.000  C
  C23      1.0000 0.27810  0.45320  0.53410  Biso   1.000  C
  C24      1.0000 0.22190  0.95320  0.96590  Biso   1.000  C
  C25      1.0000 0.80410  0.51050  0.43510  Biso   1.000  C
  C26      1.0000 0.69590  0.01050  0.06490  Biso   1.000  C
  C27      1.0000 0.19590  0.48950  0.56490  Biso   1.000  C
  C28      1.0000 0.30410  0.98950  0.93510  Biso   1.000  C
  C29      1.0000 0.81070  0.94520  0.67090  Biso   1.000  C
  C30      1.0000 0.68930  0.44520  0.82910  Biso   1.000  C
  C31      1.0000 0.18930  0.05480  0.32910  Biso   1.000  C
  C32      1.0000 0.31070  0.55480  0.17090  Biso   1.000  C
  C33      1.0000 0.70960  0.09660  0.56120  Biso   1.000  C
  C34      1.0000 0.79040  0.59660  0.93880  Biso   1.000  C
  C35      1.0000 0.29040  0.90340  0.43880  Biso   1.000  C
  C36      1.0000 0.20960  0.40340  0.06120  Biso   1.000  C
  C37      1.0000 0.88820  0.16150  0.53770  Biso   1.000  C
  C38      1.0000 0.61180  0.66150  0.96230  Biso   1.000  C
  C39      1.0000 0.11180  0.83850  0.46230  Biso   1.000  C
  C40      1.0000 0.38820  0.33850  0.03770  Biso   1.000  C
  C41      1.0000 0.89580  0.12830  0.73030  Biso   1.000  C
  C42      1.0000 0.60420  0.62830  0.76970  Biso   1.000  C
  C43      1.0000 0.10420  0.87170  0.26970  Biso   1.000  C
  C44      1.0000 0.39580  0.37170  0.23030  Biso   1.000  C
  C45      1.0000 0.80590  0.97770  0.47740  Biso   1.000  C
  C46      1.0000 0.69410  0.47770  0.02260  Biso   1.000  C
  C47      1.0000 0.19410  0.02230  0.52260  Biso   1.000  C
  C48      1.0000 0.30590  0.52230  0.97740  Biso   1.000  C
  C49      1.0000 0.68220  0.49020  0.53220  Biso   1.000  C
  C50      1.0000 0.81780  0.99020  0.96780  Biso   1.000  C
  C51      1.0000 0.31780  0.50980  0.46780  Biso   1.000  C
  C52      1.0000 0.18220  0.00980  0.03220  Biso   1.000  C
  C53      1.0000 0.81200  0.72720  0.26480  Biso   1.000  C
  C54      1.0000 0.68800  0.22720  0.23520  Biso   1.000  C
  C55      1.0000 0.18800  0.27280  0.73520  Biso   1.000  C
  C56      1.0000 0.31200  0.77280  0.76480  Biso   1.000  C
  H1       1.0000 0.65390  0.43750  0.50210  Biso   1.000  H
  H2       1.0000 0.84610  0.93750  0.99790  Biso   1.000  H
  H3       1.0000 0.34610  0.56250  0.49790  Biso   1.000  H
  H4       1.0000 0.15390  0.06250  0.00210  Biso   1.000  H
  H5       1.0000 0.03290  0.47380  0.25710  Biso   1.000  H
  H6       1.0000 0.46710  0.97380  0.24290  Biso   1.000  H
  H7       1.0000 0.96710  0.52620  0.74290  Biso   1.000  H
  H8       1.0000 0.53290  0.02620  0.75710  Biso   1.000  H
  H9       1.0000 0.66500  0.75230  0.35370  Biso   1.000  H
  H10      1.0000 0.83500  0.25230  0.14630  Biso   1.000  H
  H11      1.0000 0.33500  0.24770  0.64630  Biso   1.000  H
  H12      1.0000 0.16500  0.74770  0.85370  Biso   1.000  H
  H13      1.0000 0.73420  0.46850  0.58530  Biso   1.000  H
  H14      1.0000 0.76580  0.96850  0.91470  Biso   1.000  H
  H15      1.0000 0.26580  0.53150  0.41470  Biso   1.000  H
  H16      1.0000 0.23420  0.03150  0.08530  Biso   1.000  H
  H17      1.0000 0.93570  0.57540  0.28740  Biso   1.000  H
  H18      1.0000 0.56430  0.07540  0.21260  Biso   1.000  H
  H19      1.0000 0.06430  0.42460  0.71260  Biso   1.000  H
  H20      1.0000 0.43570  0.92460  0.78740  Biso   1.000  H
  H21      1.0000 0.63720  0.52590  0.55790  Biso   1.000  H
  H22      1.0000 0.86280  0.02590  0.94210  Biso   1.000  H
  H23      1.0000 0.36280  0.47410  0.44210  Biso   1.000  H
  H24      1.0000 0.13720  0.97410  0.05790  Biso   1.000  H
  H25      1.0000 0.17340  0.26610  0.27540  Biso   1.000  H
  H26      1.0000 0.32660  0.76610  0.22460  Biso   1.000  H
  H27      1.0000 0.82660  0.73390  0.72460  Biso   1.000  H
  H28      1.0000 0.67340  0.23390  0.77540  Biso   1.000  H
  H29      1.0000 0.62640  0.65950  0.45840  Biso   1.000  H
  H30      1.0000 0.87360  0.15950  0.04160  Biso   1.000  H
  H31      1.0000 0.37360  0.34050  0.54160  Biso   1.000  H
  H32      1.0000 0.12640  0.84050  0.95840  Biso   1.000  H
  H33      1.0000 0.14470  0.36550  0.22280  Biso   1.000  H
  H34      1.0000 0.35530  0.86550  0.27720  Biso   1.000  H
  H35      1.0000 0.85530  0.63450  0.77720  Biso   1.000  H
  H36      1.0000 0.64470  0.13450  0.72280  Biso   1.000  H
  H37      1.0000 0.75480  0.84520  0.28090  Biso   1.000  H
  H38      1.0000 0.74520  0.34520  0.21910  Biso   1.000  H
  H39      1.0000 0.24520  0.15480  0.71910  Biso   1.000  H
  H40      1.0000 0.25480  0.65480  0.78090  Biso   1.000  H
  H41      1.0000 0.88680  0.73830  0.29580  Biso   1.000  H
  H42      1.0000 0.61320  0.23830  0.20420  Biso   1.000  H
  H43      1.0000 0.11320  0.26170  0.70420  Biso   1.000  H
  H44      1.0000 0.38680  0.76170  0.79580  Biso   1.000  H
  H45      1.0000 0.79120  0.68910  0.19120  Biso   1.000  H
  H46      1.0000 0.70880  0.18910  0.30880  Biso   1.000  H
  H47      1.0000 0.20880  0.31090  0.80880  Biso   1.000  H
  H48      1.0000 0.29120  0.81090  0.69120  Biso   1.000  H
  O13      1.0000 0.45090  0.07390  0.31700  Biso   1.000  O
  O14      1.0000 0.04910  0.57390  0.18300  Biso   1.000  O
  O15      1.0000 0.54910  0.92610  0.68300  Biso   1.000  O
  O16      1.0000 0.95090  0.42610  0.81700  Biso   1.000  O
  H49      1.0000 0.40790  0.09110  0.31490  Biso   1.000  H
  H50      1.0000 0.09210  0.59110  0.18510  Biso   1.000  H
  H51      1.0000 0.59210  0.90890  0.68510  Biso   1.000  H
  H52      1.0000 0.90790  0.40890  0.81490  Biso   1.000  H
  H53      1.0000 0.51910  0.07770  0.39410  Biso   1.000  H
  H54      1.0000 0.98090  0.57770  0.10590  Biso   1.000  H
  H55      1.0000 0.48090  0.92230  0.60590  Biso   1.000  H
  H56      1.0000 0.01910  0.42230  0.89410  Biso   1.000  H
  O17      1.0000 0.53210  0.71340  0.49100  Biso   1.000  O
  O18      1.0000 0.96790  0.21340  0.00900  Biso   1.000  O
  O19      1.0000 0.46790  0.28660  0.50900  Biso   1.000  O
  O20      1.0000 0.03210  0.78660  0.99100  Biso   1.000  O
  H57      1.0000 0.54460  0.70830  0.56180  Biso   1.000  H
  H58      1.0000 0.95540  0.20830  0.93820  Biso   1.000  H
  H59      1.0000 0.45540  0.29170  0.43820  Biso   1.000  H
  H60      1.0000 0.04460  0.79170  0.06180  Biso   1.000  H
  H61      1.0000 0.49490  0.75170  0.47680  Biso   1.000  H
  H62      1.0000 0.00510  0.25170  0.02320  Biso   1.000  H
  H63      1.0000 0.50510  0.24830  0.52320  Biso   1.000  H
  H64      1.0000 0.99490  0.74830  0.97680  Biso   1.000  H
