data_image0
_cell_length_a       13.946
_cell_length_b       7.163
_cell_length_c       18.389
_cell_angle_alpha    90
_cell_angle_beta     93.37
_cell_angle_gamma    90

_symmetry_space_group_name_H-M    "P 1"
_symmetry_int_tables_number       1

loop_
  _symmetry_equiv_pos_as_xyz
  'x, y, z'

loop_
  _atom_site_label
  _atom_site_occupancy
  _atom_site_fract_x
  _atom_site_fract_y
  _atom_site_fract_z
  _atom_site_thermal_displace_type
  _atom_site_B_iso_or_equiv
  _atom_site_type_symbol
  Cu1      1.0000 0.68450  0.25659  0.07159  Biso   1.000  Cu
  Cu2      1.0000 0.81550  0.75659  0.42841  Biso   1.000  Cu
  Cu3      1.0000 0.31550  0.74341  0.92841  Biso   1.000  Cu
  Cu4      1.0000 0.18450  0.24341  0.57159  Biso   1.000  Cu
  Fe1      1.0000 0.00000  0.00000  0.00000  Biso   1.000  Fe
  Fe2      1.0000 0.50000  0.50000  0.50000  Biso   1.000  Fe
  S1       1.0000 0.72192  0.34310  0.18733  Biso   1.000  S
  S2       1.0000 0.77808  0.84310  0.31267  Biso   1.000  S
  S3       1.0000 0.27808  0.65690  0.81267  Biso   1.000  S
  S4       1.0000 0.22192  0.15690  0.68733  Biso   1.000  S
  O1       1.0000 0.64790  0.16090  0.97610  Biso   1.000  O
  O2       1.0000 0.85210  0.66090  0.52390  Biso   1.000  O
  O3       1.0000 0.35210  0.83910  0.02390  Biso   1.000  O
  O4       1.0000 0.14790  0.33910  0.47610  Biso   1.000  O
  O5       1.0000 0.70600  0.54510  0.01170  Biso   1.000  O
  O6       1.0000 0.79400  0.04510  0.48830  Biso   1.000  O
  O7       1.0000 0.29400  0.45490  0.98830  Biso   1.000  O
  O8       1.0000 0.20600  0.95490  0.51170  Biso   1.000  O
  O9       1.0000 0.48460  0.04520  0.68290  Biso   1.000  O
  O10      1.0000 0.01540  0.54520  0.81710  Biso   1.000  O
  O11      1.0000 0.51540  0.95480  0.31710  Biso   1.000  O
  O12      1.0000 0.98460  0.45480  0.18290  Biso   1.000  O
  O13      1.0000 0.33280  0.45460  0.20130  Biso   1.000  O
  O14      1.0000 0.16720  0.95460  0.29870  Biso   1.000  O
  O15      1.0000 0.66720  0.54540  0.79870  Biso   1.000  O
  O16      1.0000 0.83280  0.04540  0.70130  Biso   1.000  O
  O17      1.0000 0.17620  0.50570  0.11080  Biso   1.000  O
  O18      1.0000 0.32380  0.00570  0.38920  Biso   1.000  O
  O19      1.0000 0.82380  0.49430  0.88920  Biso   1.000  O
  O20      1.0000 0.67620  0.99430  0.61080  Biso   1.000  O
  N1       1.0000 0.58930  0.44690  0.27540  Biso   1.000  N
  N2       1.0000 0.91070  0.94690  0.22460  Biso   1.000  N
  N3       1.0000 0.41070  0.55310  0.72460  Biso   1.000  N
  N4       1.0000 0.08930  0.05310  0.77540  Biso   1.000  N
  N5       1.0000 0.52840  0.35930  0.16290  Biso   1.000  N
  N6       1.0000 0.97160  0.85930  0.33710  Biso   1.000  N
  N7       1.0000 0.47160  0.64070  0.83710  Biso   1.000  N
  N8       1.0000 0.02840  0.14070  0.66290  Biso   1.000  N
  N9       1.0000 0.55030  0.30010  0.09390  Biso   1.000  N
  N10      1.0000 0.94970  0.80010  0.40610  Biso   1.000  N
  N11      1.0000 0.44970  0.69990  0.90610  Biso   1.000  N
  N12      1.0000 0.05030  0.19990  0.59390  Biso   1.000  N
  N13      1.0000 0.47680  0.12670  0.82920  Biso   1.000  N
  N14      1.0000 0.02320  0.62670  0.67080  Biso   1.000  N
  N15      1.0000 0.52320  0.87330  0.17080  Biso   1.000  N
  N16      1.0000 0.97680  0.37330  0.32920  Biso   1.000  N
  N17      1.0000 0.81640  0.16860  0.05630  Biso   1.000  N
  N18      1.0000 0.68360  0.66860  0.44370  Biso   1.000  N
  N19      1.0000 0.18360  0.83140  0.94370  Biso   1.000  N
  N20      1.0000 0.31640  0.33140  0.55630  Biso   1.000  N
  N21      1.0000 0.06660  0.37820  0.96060  Biso   1.000  N
  N22      1.0000 0.43340  0.87820  0.53940  Biso   1.000  N
  N23      1.0000 0.93340  0.62180  0.03940  Biso   1.000  N
  N24      1.0000 0.56660  0.12180  0.46060  Biso   1.000  N
  N25      1.0000 0.10770  0.03110  0.14860  Biso   1.000  N
  N26      1.0000 0.39230  0.53110  0.35140  Biso   1.000  N
  N27      1.0000 0.89230  0.96890  0.85140  Biso   1.000  N
  N28      1.0000 0.60770  0.46890  0.64860  Biso   1.000  N
  C1       1.0000 0.60440  0.38390  0.20760  Biso   1.000  C
  C2       1.0000 0.89560  0.88390  0.29240  Biso   1.000  C
  C3       1.0000 0.39560  0.61610  0.79240  Biso   1.000  C
  C4       1.0000 0.10440  0.11610  0.70760  Biso   1.000  C
  C5       1.0000 0.47640  0.28210  0.04860  Biso   1.000  C
  C6       1.0000 0.02360  0.78210  0.45140  Biso   1.000  C
  C7       1.0000 0.52360  0.71790  0.95140  Biso   1.000  C
  C8       1.0000 0.97640  0.21790  0.54860  Biso   1.000  C
  C9       1.0000 0.47870  0.22850  0.97280  Biso   1.000  C
  C10      1.0000 0.02130  0.72850  0.52720  Biso   1.000  C
  C11      1.0000 0.52130  0.77150  0.02720  Biso   1.000  C
  C12      1.0000 0.97870  0.27150  0.47280  Biso   1.000  C
  C13      1.0000 0.39160  0.22660  0.92900  Biso   1.000  C
  C14      1.0000 0.10840  0.72660  0.57100  Biso   1.000  C
  C15      1.0000 0.60840  0.77340  0.07100  Biso   1.000  C
  C16      1.0000 0.89160  0.27340  0.42900  Biso   1.000  C
  C17      1.0000 0.39300  0.17600  0.85760  Biso   1.000  C
  C18      1.0000 0.10700  0.67600  0.64240  Biso   1.000  C
  C19      1.0000 0.60700  0.82400  0.14240  Biso   1.000  C
  C20      1.0000 0.89300  0.32400  0.35760  Biso   1.000  C
  C21      1.0000 0.56070  0.12070  0.86670  Biso   1.000  C
  C22      1.0000 0.93930  0.62070  0.63330  Biso   1.000  C
  C23      1.0000 0.43930  0.87930  0.13330  Biso   1.000  C
  C24      1.0000 0.06070  0.37930  0.36670  Biso   1.000  C
  C25      1.0000 0.56500  0.17350  0.94200  Biso   1.000  C
  C26      1.0000 0.93500  0.67350  0.55800  Biso   1.000  C
  C27      1.0000 0.43500  0.82650  0.05800  Biso   1.000  C
  C28      1.0000 0.06500  0.32650  0.44200  Biso   1.000  C
  C29      1.0000 0.64790  0.06160  0.83070  Biso   1.000  C
  C30      1.0000 0.85210  0.56160  0.66930  Biso   1.000  C
  C31      1.0000 0.35210  0.93840  0.16930  Biso   1.000  C
  C32      1.0000 0.14790  0.43840  0.33070  Biso   1.000  C
  C33      1.0000 0.70520  0.73070  0.04070  Biso   1.000  C
  C34      1.0000 0.79480  0.23070  0.45930  Biso   1.000  C
  C35      1.0000 0.29480  0.26930  0.95930  Biso   1.000  C
  C36      1.0000 0.20520  0.76930  0.54070  Biso   1.000  C
  C37      1.0000 0.88610  0.10780  0.03740  Biso   1.000  C
  C38      1.0000 0.61390  0.60780  0.46260  Biso   1.000  C
  C39      1.0000 0.11390  0.89220  0.96260  Biso   1.000  C
  C40      1.0000 0.38610  0.39220  0.53740  Biso   1.000  C
  C41      1.0000 0.04110  0.23420  0.97580  Biso   1.000  C
  C42      1.0000 0.45890  0.73420  0.52420  Biso   1.000  C
  C43      1.0000 0.95890  0.76580  0.02420  Biso   1.000  C
  C44      1.0000 0.54110  0.26580  0.47580  Biso   1.000  C
  C45      1.0000 0.06820  0.01980  0.09390  Biso   1.000  C
  C46      1.0000 0.43180  0.51980  0.40610  Biso   1.000  C
  C47      1.0000 0.93180  0.98020  0.90610  Biso   1.000  C
  C48      1.0000 0.56820  0.48020  0.59390  Biso   1.000  C
  H1       1.0000 0.53680  0.48450  0.28140  Biso   1.000  H
  H2       1.0000 0.96320  0.98450  0.21860  Biso   1.000  H
  H3       1.0000 0.46320  0.51550  0.71860  Biso   1.000  H
  H4       1.0000 0.03680  0.01550  0.78140  Biso   1.000  H
  H5       1.0000 0.65000  0.48420  0.29980  Biso   1.000  H
  H6       1.0000 0.85000  0.98420  0.20020  Biso   1.000  H
  H7       1.0000 0.35000  0.51580  0.70020  Biso   1.000  H
  H8       1.0000 0.15000  0.01580  0.79980  Biso   1.000  H
  H9       1.0000 0.41740  0.30590  0.06880  Biso   1.000  H
  H10      1.0000 0.08260  0.80590  0.43120  Biso   1.000  H
  H11      1.0000 0.58260  0.69410  0.93120  Biso   1.000  H
  H12      1.0000 0.91740  0.19410  0.56880  Biso   1.000  H
  H13      1.0000 0.34060  0.17770  0.83310  Biso   1.000  H
  H14      1.0000 0.15940  0.67770  0.66690  Biso   1.000  H
  H15      1.0000 0.65940  0.82230  0.16690  Biso   1.000  H
  H16      1.0000 0.84060  0.32230  0.33310  Biso   1.000  H
  H17      1.0000 0.47280  0.09490  0.78780  Biso   1.000  H
  H18      1.0000 0.02720  0.59490  0.71220  Biso   1.000  H
  H19      1.0000 0.52720  0.90510  0.21220  Biso   1.000  H
  H20      1.0000 0.97280  0.40510  0.28780  Biso   1.000  H
  H21      1.0000 0.63690  0.01930  0.80120  Biso   1.000  H
  H22      1.0000 0.86310  0.51930  0.69880  Biso   1.000  H
  H23      1.0000 0.36310  0.98070  0.19880  Biso   1.000  H
  H24      1.0000 0.13690  0.48070  0.30120  Biso   1.000  H
  H25      1.0000 0.66580  0.96160  0.85480  Biso   1.000  H
  H26      1.0000 0.83420  0.46160  0.64520  Biso   1.000  H
  H27      1.0000 0.33420  0.03840  0.14520  Biso   1.000  H
  H28      1.0000 0.16580  0.53840  0.35480  Biso   1.000  H
  H29      1.0000 0.68990  0.14690  0.82980  Biso   1.000  H
  H30      1.0000 0.81010  0.64690  0.67020  Biso   1.000  H
  H31      1.0000 0.31010  0.85310  0.17020  Biso   1.000  H
  H32      1.0000 0.18990  0.35310  0.32980  Biso   1.000  H
  H33      1.0000 0.75530  0.73600  0.07620  Biso   1.000  H
  H34      1.0000 0.74470  0.23600  0.42380  Biso   1.000  H
  H35      1.0000 0.24470  0.26400  0.92380  Biso   1.000  H
  H36      1.0000 0.25530  0.76400  0.57620  Biso   1.000  H
  H37      1.0000 0.72390  0.82370  0.00120  Biso   1.000  H
  H38      1.0000 0.77610  0.32370  0.49880  Biso   1.000  H
  H39      1.0000 0.27610  0.17630  0.99880  Biso   1.000  H
  H40      1.0000 0.22390  0.67630  0.50120  Biso   1.000  H
  H41      1.0000 0.75550  0.52920  0.99380  Biso   1.000  H
  H42      1.0000 0.74450  0.02920  0.50620  Biso   1.000  H
  H43      1.0000 0.24450  0.47080  0.00620  Biso   1.000  H
  H44      1.0000 0.25550  0.97080  0.49380  Biso   1.000  H
  H45      1.0000 0.36680  0.44710  0.18920  Biso   1.000  H
  H46      1.0000 0.13320  0.94710  0.31080  Biso   1.000  H
  H47      1.0000 0.63320  0.55290  0.81080  Biso   1.000  H
  H48      1.0000 0.86680  0.05290  0.68920  Biso   1.000  H
