data_image0
_cell_length_a       12.695
_cell_length_b       7.917
_cell_length_c       12.154
_cell_angle_alpha    90
_cell_angle_beta     99.56
_cell_angle_gamma    90

_symmetry_space_group_name_H-M    "P 1"
_symmetry_int_tables_number       1

loop_
  _symmetry_equiv_pos_as_xyz
  'x, y, z'

loop_
  _atom_site_label
  _atom_site_occupancy
  _atom_site_fract_x
  _atom_site_fract_y
  _atom_site_fract_z
  _atom_site_thermal_displace_type
  _atom_site_B_iso_or_equiv
  _atom_site_type_symbol
  Cu1      1.0000 0.85864  0.10865  0.43449  Biso   1.000  Cu
  Cu2      1.0000 0.14136  0.60865  0.06551  Biso   1.000  Cu
  Cu3      1.0000 0.14136  0.89135  0.56551  Biso   1.000  Cu
  Cu4      1.0000 0.85864  0.39135  0.93449  Biso   1.000  Cu
  O1       1.0000 0.68339  0.19751  0.41535  Biso   1.000  O
  O2       1.0000 0.31661  0.69751  0.08465  Biso   1.000  O
  O3       1.0000 0.31661  0.80249  0.58465  Biso   1.000  O
  O4       1.0000 0.68339  0.30249  0.91535  Biso   1.000  O
  N1       1.0000 0.66137  0.32280  0.34422  Biso   1.000  N
  N2       1.0000 0.33863  0.82280  0.15578  Biso   1.000  N
  N3       1.0000 0.33863  0.67720  0.65578  Biso   1.000  N
  N4       1.0000 0.66137  0.17720  0.84422  Biso   1.000  N
  C1       1.0000 0.64684  0.29040  0.23243  Biso   1.000  C
  C2       1.0000 0.35316  0.79040  0.26757  Biso   1.000  C
  C3       1.0000 0.35316  0.70960  0.76757  Biso   1.000  C
  C4       1.0000 0.64684  0.20960  0.73243  Biso   1.000  C
  H1       1.0000 0.65240  0.17790  0.20690  Biso   1.000  H
  H2       1.0000 0.34760  0.67790  0.29310  Biso   1.000  H
  H3       1.0000 0.34760  0.82210  0.79310  Biso   1.000  H
  H4       1.0000 0.65240  0.32210  0.70690  Biso   1.000  H
  C5       1.0000 0.62419  0.41980  0.15647  Biso   1.000  C
  C6       1.0000 0.37581  0.91980  0.34353  Biso   1.000  C
  C7       1.0000 0.37581  0.58020  0.84353  Biso   1.000  C
  C8       1.0000 0.62419  0.08020  0.65647  Biso   1.000  C
  H5       1.0000 0.61470  0.39800  0.07860  Biso   1.000  H
  H6       1.0000 0.38530  0.89800  0.42140  Biso   1.000  H
  H7       1.0000 0.38530  0.60200  0.92140  Biso   1.000  H
  H8       1.0000 0.61470  0.10200  0.57860  Biso   1.000  H
  C9       1.0000 0.61548  0.58260  0.19613  Biso   1.000  C
  C10      1.0000 0.38452  0.08260  0.30387  Biso   1.000  C
  C11      1.0000 0.38452  0.41740  0.80387  Biso   1.000  C
  C12      1.0000 0.61548  0.91740  0.69613  Biso   1.000  C
  C13      1.0000 0.63161  0.61660  0.30994  Biso   1.000  C
  C14      1.0000 0.36839  0.11660  0.19006  Biso   1.000  C
  C15      1.0000 0.36839  0.38340  0.69006  Biso   1.000  C
  C16      1.0000 0.63161  0.88340  0.80994  Biso   1.000  C
  H9       1.0000 0.62680  0.72860  0.33670  Biso   1.000  H
  H10      1.0000 0.37320  0.22860  0.16330  Biso   1.000  H
  H11      1.0000 0.37320  0.27140  0.66330  Biso   1.000  H
  H12      1.0000 0.62680  0.77140  0.83670  Biso   1.000  H
  C17      1.0000 0.65480  0.48340  0.38256  Biso   1.000  C
  C18      1.0000 0.34520  0.98340  0.11744  Biso   1.000  C
  C19      1.0000 0.34520  0.51660  0.61744  Biso   1.000  C
  C20      1.0000 0.65480  0.01660  0.88256  Biso   1.000  C
  H13      1.0000 0.66640  0.50370  0.46070  Biso   1.000  H
  H14      1.0000 0.33360  0.00370  0.03930  Biso   1.000  H
  H15      1.0000 0.33360  0.49630  0.53930  Biso   1.000  H
  H16      1.0000 0.66640  0.99630  0.96070  Biso   1.000  H
  N5       1.0000 0.58824  0.72300  0.11757  Biso   1.000  N
  N6       1.0000 0.41176  0.22300  0.38243  Biso   1.000  N
  N7       1.0000 0.41176  0.27700  0.88243  Biso   1.000  N
  N8       1.0000 0.58824  0.77700  0.61757  Biso   1.000  N
  O5       1.0000 0.57526  0.69020  0.01752  Biso   1.000  O
  O6       1.0000 0.42474  0.19020  0.48248  Biso   1.000  O
  O7       1.0000 0.42474  0.30980  0.98248  Biso   1.000  O
  O8       1.0000 0.57526  0.80980  0.51752  Biso   1.000  O
  O9       1.0000 0.58029  0.86600  0.15580  Biso   1.000  O
  O10      1.0000 0.41971  0.36600  0.34420  Biso   1.000  O
  O11      1.0000 0.41971  0.13400  0.84420  Biso   1.000  O
  O12      1.0000 0.58029  0.63400  0.65580  Biso   1.000  O
  N9       1.0000 0.89493  0.31310  0.35393  Biso   1.000  N
  N10      1.0000 0.10507  0.81310  0.14607  Biso   1.000  N
  N11      1.0000 0.10507  0.68690  0.64607  Biso   1.000  N
  N12      1.0000 0.89493  0.18690  0.85393  Biso   1.000  N
  C21      1.0000 0.91921  0.44990  0.33636  Biso   1.000  C
  C22      1.0000 0.08079  0.94990  0.16364  Biso   1.000  C
  C23      1.0000 0.08079  0.55010  0.66364  Biso   1.000  C
  C24      1.0000 0.91921  0.05010  0.83636  Biso   1.000  C
  N13      1.0000 0.94083  0.60380  0.30747  Biso   1.000  N
  N14      1.0000 0.05917  0.10380  0.19253  Biso   1.000  N
  N15      1.0000 0.05917  0.39620  0.69253  Biso   1.000  N
  N16      1.0000 0.94083  0.89620  0.80747  Biso   1.000  N
  C25      1.0000 0.01102  0.69210  0.37419  Biso   1.000  C
  C26      1.0000 0.98898  0.19210  0.12581  Biso   1.000  C
  C27      1.0000 0.98898  0.30790  0.62581  Biso   1.000  C
  C28      1.0000 0.01102  0.80790  0.87419  Biso   1.000  C
  N17      1.0000 0.07254  0.77950  0.42697  Biso   1.000  N
  N18      1.0000 0.92746  0.27950  0.07303  Biso   1.000  N
  N19      1.0000 0.92746  0.22050  0.57303  Biso   1.000  N
  N20      1.0000 0.07254  0.72050  0.92697  Biso   1.000  N
  N21      1.0000 0.83739  0.90350  0.51870  Biso   1.000  N
  N22      1.0000 0.16261  0.40350  0.98130  Biso   1.000  N
  N23      1.0000 0.16261  0.09650  0.48130  Biso   1.000  N
  N24      1.0000 0.83739  0.59650  0.01870  Biso   1.000  N
  C29      1.0000 0.83315  0.77740  0.56525  Biso   1.000  C
  C30      1.0000 0.16685  0.27740  0.93475  Biso   1.000  C
  C31      1.0000 0.16685  0.22260  0.43475  Biso   1.000  C
  C32      1.0000 0.83315  0.72260  0.06525  Biso   1.000  C
  N25      1.0000 0.82282  0.62460  0.60156  Biso   1.000  N
  N26      1.0000 0.17718  0.12460  0.89844  Biso   1.000  N
  N27      1.0000 0.17718  0.37540  0.39844  Biso   1.000  N
  N28      1.0000 0.82282  0.87540  0.10156  Biso   1.000  N
  C33      1.0000 0.83006  0.57950  0.70575  Biso   1.000  C
  C34      1.0000 0.16994  0.07950  0.79425  Biso   1.000  C
  C35      1.0000 0.16994  0.42050  0.29425  Biso   1.000  C
  C36      1.0000 0.83006  0.92050  0.20575  Biso   1.000  C
  N29      1.0000 0.83276  0.51890  0.79240  Biso   1.000  N
  N30      1.0000 0.16724  0.01890  0.70760  Biso   1.000  N
  N31      1.0000 0.16724  0.48110  0.20760  Biso   1.000  N
  N32      1.0000 0.83276  0.98110  0.29240  Biso   1.000  N
