data_image0
_cell_length_a       10.6011
_cell_length_b       13.8408
_cell_length_c       18.3522
_cell_angle_alpha    90
_cell_angle_beta     90
_cell_angle_gamma    90

_symmetry_space_group_name_H-M    "P 1"
_symmetry_int_tables_number       1

loop_
  _symmetry_equiv_pos_as_xyz
  'x, y, z'

loop_
  _atom_site_label
  _atom_site_occupancy
  _atom_site_fract_x
  _atom_site_fract_y
  _atom_site_fract_z
  _atom_site_thermal_displace_type
  _atom_site_B_iso_or_equiv
  _atom_site_type_symbol
  Cu1      1.0000 0.57727  0.67788  0.59088  Biso   1.000  Cu
  Cu2      1.0000 0.92273  0.32212  0.09088  Biso   1.000  Cu
  Cu3      1.0000 0.42273  0.17788  0.90912  Biso   1.000  Cu
  Cu4      1.0000 0.07727  0.82212  0.40912  Biso   1.000  Cu
  N1       1.0000 0.57980  0.53250  0.83640  Biso   1.000  N
  N2       1.0000 0.92020  0.46750  0.33640  Biso   1.000  N
  N3       1.0000 0.42020  0.03250  0.66360  Biso   1.000  N
  N4       1.0000 0.07980  0.96750  0.16360  Biso   1.000  N
  H1       1.0000 0.65300  0.51100  0.82400  Biso   1.000  H
  H2       1.0000 0.84700  0.48900  0.32400  Biso   1.000  H
  H3       1.0000 0.34700  0.01100  0.67600  Biso   1.000  H
  H4       1.0000 0.15300  0.98900  0.17600  Biso   1.000  H
  C1       1.0000 0.54010  0.58590  0.89490  Biso   1.000  C
  C2       1.0000 0.95990  0.41410  0.39490  Biso   1.000  C
  C3       1.0000 0.45990  0.08590  0.60510  Biso   1.000  C
  C4       1.0000 0.04010  0.91410  0.10510  Biso   1.000  C
  C5       1.0000 0.61000  0.62890  0.95050  Biso   1.000  C
  C6       1.0000 0.89000  0.37110  0.45050  Biso   1.000  C
  C7       1.0000 0.39000  0.12890  0.54950  Biso   1.000  C
  C8       1.0000 0.11000  0.87110  0.04950  Biso   1.000  C
  H5       1.0000 0.69940  0.62450  0.95220  Biso   1.000  H
  H6       1.0000 0.80060  0.37550  0.45220  Biso   1.000  H
  H7       1.0000 0.30060  0.12450  0.54780  Biso   1.000  H
  H8       1.0000 0.19940  0.87550  0.04780  Biso   1.000  H
  C9       1.0000 0.54220  0.67840  0.00320  Biso   1.000  C
  C10      1.0000 0.95780  0.32160  0.50320  Biso   1.000  C
  C11      1.0000 0.45780  0.17840  0.49680  Biso   1.000  C
  C12      1.0000 0.04220  0.82160  0.99680  Biso   1.000  C
  H9       1.0000 0.58630  0.70770  0.04250  Biso   1.000  H
  H10      1.0000 0.91370  0.29230  0.54250  Biso   1.000  H
  H11      1.0000 0.41370  0.20770  0.45750  Biso   1.000  H
  H12      1.0000 0.08630  0.79230  0.95750  Biso   1.000  H
  C13      1.0000 0.41290  0.68630  0.00020  Biso   1.000  C
  C14      1.0000 0.08710  0.31370  0.50020  Biso   1.000  C
  C15      1.0000 0.58710  0.18630  0.49980  Biso   1.000  C
  C16      1.0000 0.91290  0.81370  0.99980  Biso   1.000  C
  H13      1.0000 0.37010  0.72190  0.03690  Biso   1.000  H
  H14      1.0000 0.12990  0.27810  0.53690  Biso   1.000  H
  H15      1.0000 0.62990  0.22190  0.46310  Biso   1.000  H
  H16      1.0000 0.87010  0.77810  0.96310  Biso   1.000  H
  C17      1.0000 0.34380  0.64340  0.94500  Biso   1.000  C
  C18      1.0000 0.15620  0.35660  0.44500  Biso   1.000  C
  C19      1.0000 0.65620  0.14340  0.55500  Biso   1.000  C
  C20      1.0000 0.84380  0.85660  0.05500  Biso   1.000  C
  H17      1.0000 0.25460  0.64970  0.94350  Biso   1.000  H
  H18      1.0000 0.24540  0.35030  0.44350  Biso   1.000  H
  H19      1.0000 0.74540  0.14970  0.55650  Biso   1.000  H
  H20      1.0000 0.75460  0.85030  0.05650  Biso   1.000  H
  C21      1.0000 0.40720  0.59110  0.89190  Biso   1.000  C
  C22      1.0000 0.09280  0.40890  0.39190  Biso   1.000  C
  C23      1.0000 0.59280  0.09110  0.60810  Biso   1.000  C
  C24      1.0000 0.90720  0.90890  0.10810  Biso   1.000  C
  C25      1.0000 0.36780  0.53530  0.82950  Biso   1.000  C
  C26      1.0000 0.13220  0.46470  0.32950  Biso   1.000  C
  C27      1.0000 0.63220  0.03530  0.67050  Biso   1.000  C
  C28      1.0000 0.86780  0.96470  0.17050  Biso   1.000  C
  C29      1.0000 0.47550  0.50180  0.79790  Biso   1.000  C
  C30      1.0000 0.02450  0.49820  0.29790  Biso   1.000  C
  C31      1.0000 0.52450  0.00180  0.70210  Biso   1.000  C
  C32      1.0000 0.97550  0.99820  0.20210  Biso   1.000  C
  H21      1.0000 0.47830  0.46280  0.75530  Biso   1.000  H
  H22      1.0000 0.02170  0.53720  0.25530  Biso   1.000  H
  H23      1.0000 0.52170  0.96280  0.74470  Biso   1.000  H
  H24      1.0000 0.97830  0.03720  0.24470  Biso   1.000  H
  C33      1.0000 0.23600  0.52050  0.80300  Biso   1.000  C
  C34      1.0000 0.26400  0.47950  0.30300  Biso   1.000  C
  C35      1.0000 0.76400  0.02050  0.69700  Biso   1.000  C
  C36      1.0000 0.73600  0.97950  0.19700  Biso   1.000  C
  H25      1.0000 0.17850  0.52160  0.84550  Biso   1.000  H
  H26      1.0000 0.32150  0.47840  0.34550  Biso   1.000  H
  H27      1.0000 0.82150  0.02160  0.65450  Biso   1.000  H
  H28      1.0000 0.67850  0.97840  0.15450  Biso   1.000  H
  H29      1.0000 0.23020  0.45560  0.78070  Biso   1.000  H
  H30      1.0000 0.26980  0.54440  0.28070  Biso   1.000  H
  H31      1.0000 0.76980  0.95560  0.71930  Biso   1.000  H
  H32      1.0000 0.73020  0.04440  0.21930  Biso   1.000  H
  C37      1.0000 0.18990  0.59490  0.74760  Biso   1.000  C
  C38      1.0000 0.31010  0.40510  0.24760  Biso   1.000  C
  C39      1.0000 0.81010  0.09490  0.75240  Biso   1.000  C
  C40      1.0000 0.68990  0.90510  0.25240  Biso   1.000  C
  H33      1.0000 0.10300  0.57570  0.73210  Biso   1.000  H
  H34      1.0000 0.39700  0.42430  0.23210  Biso   1.000  H
  H35      1.0000 0.89700  0.07570  0.76790  Biso   1.000  H
  H36      1.0000 0.60300  0.92430  0.26790  Biso   1.000  H
  C41      1.0000 0.18200  0.69610  0.78030  Biso   1.000  C
  C42      1.0000 0.31800  0.30390  0.28030  Biso   1.000  C
  C43      1.0000 0.81800  0.19610  0.71970  Biso   1.000  C
  C44      1.0000 0.68200  0.80390  0.21970  Biso   1.000  C
  O1       1.0000 0.10370  0.70970  0.82956  Biso   1.000  O
  O2       1.0000 0.39630  0.29030  0.32956  Biso   1.000  O
  O3       1.0000 0.89630  0.20970  0.67044  Biso   1.000  O
  O4       1.0000 0.60370  0.79030  0.17044  Biso   1.000  O
  O5       1.0000 0.25490  0.75930  0.75530  Biso   1.000  O
  O6       1.0000 0.24510  0.24070  0.25530  Biso   1.000  O
  O7       1.0000 0.74510  0.25930  0.74470  Biso   1.000  O
  O8       1.0000 0.75490  0.74070  0.24470  Biso   1.000  O
  N5       1.0000 0.26810  0.59830  0.68318  Biso   1.000  N
  N6       1.0000 0.23190  0.40170  0.18318  Biso   1.000  N
  N7       1.0000 0.73190  0.09830  0.81682  Biso   1.000  N
  N8       1.0000 0.76810  0.90170  0.31682  Biso   1.000  N
  H37      1.0000 0.32300  0.65100  0.68500  Biso   1.000  H
  H38      1.0000 0.17700  0.34900  0.18500  Biso   1.000  H
  H39      1.0000 0.67700  0.15100  0.81500  Biso   1.000  H
  H40      1.0000 0.82300  0.84900  0.31500  Biso   1.000  H
  C45      1.0000 0.25640  0.54160  0.62630  Biso   1.000  C
  C46      1.0000 0.24360  0.45840  0.12630  Biso   1.000  C
  C47      1.0000 0.74360  0.04160  0.87370  Biso   1.000  C
  C48      1.0000 0.75640  0.95840  0.37370  Biso   1.000  C
  O9       1.0000 0.18870  0.46830  0.62690  Biso   1.000  O
  O10      1.0000 0.31130  0.53170  0.12690  Biso   1.000  O
  O11      1.0000 0.81130  0.96830  0.87310  Biso   1.000  O
  O12      1.0000 0.68870  0.03170  0.37310  Biso   1.000  O
  C49      1.0000 0.33130  0.56830  0.55830  Biso   1.000  C
  C50      1.0000 0.16870  0.43170  0.05830  Biso   1.000  C
  C51      1.0000 0.66870  0.06830  0.94170  Biso   1.000  C
  C52      1.0000 0.83130  0.93170  0.44170  Biso   1.000  C
  H41      1.0000 0.26830  0.57630  0.51820  Biso   1.000  H
  H42      1.0000 0.23170  0.42370  0.01820  Biso   1.000  H
  H43      1.0000 0.73170  0.07630  0.98180  Biso   1.000  H
  H44      1.0000 0.76830  0.92370  0.48180  Biso   1.000  H
  N9       1.0000 0.40040  0.65920  0.56268  Biso   1.000  N
  N10      1.0000 0.09960  0.34080  0.06268  Biso   1.000  N
  N11      1.0000 0.59960  0.15920  0.93732  Biso   1.000  N
  N12      1.0000 0.90040  0.84080  0.43732  Biso   1.000  N
  C53      1.0000 0.41760  0.48630  0.53540  Biso   1.000  C
  C54      1.0000 0.08240  0.51370  0.03540  Biso   1.000  C
  C55      1.0000 0.58240  0.98630  0.96460  Biso   1.000  C
  C56      1.0000 0.91760  0.01370  0.46460  Biso   1.000  C
  H45      1.0000 0.36680  0.42670  0.53010  Biso   1.000  H
  H46      1.0000 0.13320  0.57330  0.03010  Biso   1.000  H
  H47      1.0000 0.63320  0.92670  0.96990  Biso   1.000  H
  H48      1.0000 0.86680  0.07330  0.46990  Biso   1.000  H
  H49      1.0000 0.45400  0.50160  0.48710  Biso   1.000  H
  H50      1.0000 0.04600  0.49840  0.98710  Biso   1.000  H
  H51      1.0000 0.54600  0.00160  0.01290  Biso   1.000  H
  H52      1.0000 0.95400  0.99840  0.51290  Biso   1.000  H
  C57      1.0000 0.52290  0.46730  0.58770  Biso   1.000  C
  C58      1.0000 0.97710  0.53270  0.08770  Biso   1.000  C
  C59      1.0000 0.47710  0.96730  0.91230  Biso   1.000  C
  C60      1.0000 0.02290  0.03270  0.41230  Biso   1.000  C
  C61      1.0000 0.56380  0.38350  0.61760  Biso   1.000  C
  C62      1.0000 0.93620  0.61650  0.11760  Biso   1.000  C
  C63      1.0000 0.43620  0.88350  0.88240  Biso   1.000  C
  C64      1.0000 0.06380  0.11650  0.38240  Biso   1.000  C
  H53      1.0000 0.52730  0.32130  0.61120  Biso   1.000  H
  H54      1.0000 0.97270  0.67870  0.11120  Biso   1.000  H
  H55      1.0000 0.47270  0.82130  0.88880  Biso   1.000  H
  H56      1.0000 0.02730  0.17870  0.38880  Biso   1.000  H
  N13      1.0000 0.66720  0.40510  0.65860  Biso   1.000  N
  N14      1.0000 0.83280  0.59490  0.15860  Biso   1.000  N
  N15      1.0000 0.33280  0.90510  0.84140  Biso   1.000  N
  N16      1.0000 0.16720  0.09490  0.34140  Biso   1.000  N
  H57      1.0000 0.70000  0.36700  0.67600  Biso   1.000  H
  H58      1.0000 0.80000  0.63300  0.17600  Biso   1.000  H
  H59      1.0000 0.30000  0.86700  0.82400  Biso   1.000  H
  H60      1.0000 0.20000  0.13300  0.32400  Biso   1.000  H
  C65      1.0000 0.68770  0.49920  0.65390  Biso   1.000  C
  C66      1.0000 0.81230  0.50080  0.15390  Biso   1.000  C
  C67      1.0000 0.31230  0.99920  0.84610  Biso   1.000  C
  C68      1.0000 0.18770  0.00080  0.34610  Biso   1.000  C
  H61      1.0000 0.75420  0.53260  0.67790  Biso   1.000  H
  H62      1.0000 0.74580  0.46740  0.17790  Biso   1.000  H
  H63      1.0000 0.24580  0.03260  0.82210  Biso   1.000  H
  H64      1.0000 0.25420  0.96740  0.32210  Biso   1.000  H
  N17      1.0000 0.60330  0.54020  0.61150  Biso   1.000  N
  N18      1.0000 0.89670  0.45980  0.11150  Biso   1.000  N
  N19      1.0000 0.39670  0.04020  0.88850  Biso   1.000  N
  N20      1.0000 0.10330  0.95980  0.38850  Biso   1.000  N
  C69      1.0000 0.33380  0.74060  0.55490  Biso   1.000  C
  C70      1.0000 0.16620  0.25940  0.05490  Biso   1.000  C
  C71      1.0000 0.66620  0.24060  0.94510  Biso   1.000  C
  C72      1.0000 0.83380  0.75940  0.44510  Biso   1.000  C
  O13      1.0000 0.21680  0.74700  0.55050  Biso   1.000  O
  O14      1.0000 0.28320  0.25300  0.05050  Biso   1.000  O
  O15      1.0000 0.78320  0.24700  0.94950  Biso   1.000  O
  O16      1.0000 0.71680  0.75300  0.44950  Biso   1.000  O
  C73      1.0000 0.40710  0.83290  0.55110  Biso   1.000  C
  C74      1.0000 0.09290  0.16710  0.05110  Biso   1.000  C
  C75      1.0000 0.59290  0.33290  0.94890  Biso   1.000  C
  C76      1.0000 0.90710  0.66710  0.44890  Biso   1.000  C
  H65      1.0000 0.38120  0.87410  0.59330  Biso   1.000  H
  H66      1.0000 0.11880  0.12590  0.09330  Biso   1.000  H
  H67      1.0000 0.61880  0.37410  0.90670  Biso   1.000  H
  H68      1.0000 0.88120  0.62590  0.40670  Biso   1.000  H
  N21      1.0000 0.54310  0.81290  0.55820  Biso   1.000  N
  N22      1.0000 0.95690  0.18710  0.05820  Biso   1.000  N
  N23      1.0000 0.45690  0.31290  0.94180  Biso   1.000  N
  N24      1.0000 0.04310  0.68710  0.44180  Biso   1.000  N
  H69      1.0000 0.57500  0.81900  0.52400  Biso   1.000  H
  H70      1.0000 0.92500  0.18100  0.02400  Biso   1.000  H
  H71      1.0000 0.42500  0.31900  0.97600  Biso   1.000  H
  H72      1.0000 0.07500  0.68100  0.47600  Biso   1.000  H
  H73      1.0000 0.55600  0.84600  0.58700  Biso   1.000  H
  H74      1.0000 0.94400  0.15400  0.08700  Biso   1.000  H
  H75      1.0000 0.44400  0.34600  0.91300  Biso   1.000  H
  H76      1.0000 0.05600  0.65400  0.41300  Biso   1.000  H
  C77      1.0000 0.37380  0.88820  0.48010  Biso   1.000  C
  C78      1.0000 0.12620  0.11180  0.98010  Biso   1.000  C
  C79      1.0000 0.62620  0.38820  0.01990  Biso   1.000  C
  C80      1.0000 0.87380  0.61180  0.51990  Biso   1.000  C
  H77      1.0000 0.29080  0.91990  0.48640  Biso   1.000  H
  H78      1.0000 0.20920  0.08010  0.98640  Biso   1.000  H
  H79      1.0000 0.70920  0.41990  0.01360  Biso   1.000  H
  H80      1.0000 0.79080  0.58010  0.51360  Biso   1.000  H
  H81      1.0000 0.43740  0.93940  0.47210  Biso   1.000  H
  H82      1.0000 0.06260  0.06060  0.97210  Biso   1.000  H
  H83      1.0000 0.56260  0.43940  0.02790  Biso   1.000  H
  H84      1.0000 0.93740  0.56060  0.52790  Biso   1.000  H
  C81      1.0000 0.36880  0.82490  0.41420  Biso   1.000  C
  C82      1.0000 0.13120  0.17510  0.91420  Biso   1.000  C
  C83      1.0000 0.63120  0.32490  0.08580  Biso   1.000  C
  C84      1.0000 0.86880  0.67510  0.58580  Biso   1.000  C
  N25      1.0000 0.25640  0.79110  0.38560  Biso   1.000  N
  N26      1.0000 0.24360  0.20890  0.88560  Biso   1.000  N
  N27      1.0000 0.74360  0.29110  0.11440  Biso   1.000  N
  N28      1.0000 0.75640  0.70890  0.61440  Biso   1.000  N
  C85      1.0000 0.28630  0.73450  0.33030  Biso   1.000  C
  C86      1.0000 0.21370  0.26550  0.83030  Biso   1.000  C
  C87      1.0000 0.71370  0.23450  0.16970  Biso   1.000  C
  C88      1.0000 0.78630  0.76550  0.66970  Biso   1.000  C
  H85      1.0000 0.22670  0.70200  0.30030  Biso   1.000  H
  H86      1.0000 0.27330  0.29800  0.80030  Biso   1.000  H
  H87      1.0000 0.77330  0.20200  0.19970  Biso   1.000  H
  H88      1.0000 0.72670  0.79800  0.69970  Biso   1.000  H
  N29      1.0000 0.41050  0.72900  0.32210  Biso   1.000  N
  N30      1.0000 0.08950  0.27100  0.82210  Biso   1.000  N
  N31      1.0000 0.58950  0.22900  0.17790  Biso   1.000  N
  N32      1.0000 0.91050  0.77100  0.67790  Biso   1.000  N
  H89      1.0000 0.44700  0.69300  0.28400  Biso   1.000  H
  H90      1.0000 0.05300  0.30700  0.78400  Biso   1.000  H
  H91      1.0000 0.55300  0.19300  0.21600  Biso   1.000  H
  H92      1.0000 0.94700  0.80700  0.71600  Biso   1.000  H
  C89      1.0000 0.46480  0.78550  0.37410  Biso   1.000  C
  C90      1.0000 0.03520  0.21450  0.87410  Biso   1.000  C
  C91      1.0000 0.53520  0.28550  0.12590  Biso   1.000  C
  C92      1.0000 0.96480  0.71450  0.62590  Biso   1.000  C
  H93      1.0000 0.55250  0.79560  0.38130  Biso   1.000  H
  H94      1.0000 0.94750  0.20440  0.88130  Biso   1.000  H
  H95      1.0000 0.44750  0.29560  0.11870  Biso   1.000  H
  H96      1.0000 0.05250  0.70440  0.61870  Biso   1.000  H
  O17      1.0000 0.51450  0.73920  0.72090  Biso   1.000  O
  O18      1.0000 0.98550  0.26080  0.22090  Biso   1.000  O
  O19      1.0000 0.48550  0.23920  0.77910  Biso   1.000  O
  O20      1.0000 0.01450  0.76080  0.27910  Biso   1.000  O
  H97      1.0000 0.55100  0.75700  0.75700  Biso   1.000  H
  H98      1.0000 0.94900  0.24300  0.25700  Biso   1.000  H
  H99      1.0000 0.44900  0.25700  0.74300  Biso   1.000  H
  H100     1.0000 0.05100  0.74300  0.24300  Biso   1.000  H
  H101     1.0000 0.45100  0.72400  0.74300  Biso   1.000  H
  H102     1.0000 0.04900  0.27600  0.24300  Biso   1.000  H
  H103     1.0000 0.54900  0.22400  0.75700  Biso   1.000  H
  H104     1.0000 0.95100  0.77600  0.25700  Biso   1.000  H
  O21      1.0000 0.01380  0.88930  0.79260  Biso   1.000  O
  O22      1.0000 0.48620  0.11070  0.29260  Biso   1.000  O
  O23      1.0000 0.98620  0.38930  0.70740  Biso   1.000  O
  O24      1.0000 0.51380  0.61070  0.20740  Biso   1.000  O
  H105     1.0000 0.04300  0.84800  0.81600  Biso   1.000  H
  H106     1.0000 0.45700  0.15200  0.31600  Biso   1.000  H
  H107     1.0000 0.95700  0.34800  0.68400  Biso   1.000  H
  H108     1.0000 0.54300  0.65200  0.18400  Biso   1.000  H
  H109     1.0000 0.96700  0.90800  0.81900  Biso   1.000  H
  H110     1.0000 0.53300  0.09200  0.31900  Biso   1.000  H
  H111     1.0000 0.03300  0.40800  0.68100  Biso   1.000  H
  H112     1.0000 0.46700  0.59200  0.18100  Biso   1.000  H
  O25      1.0000 0.70350  0.77940  0.82730  Biso   1.000  O
  O26      1.0000 0.79650  0.22060  0.32730  Biso   1.000  O
  O27      1.0000 0.29650  0.27940  0.67270  Biso   1.000  O
  O28      1.0000 0.20350  0.72060  0.17270  Biso   1.000  O
  O29      1.0000 0.83650  0.42860  0.84430  Biso   1.000  O
  O30      1.0000 0.66350  0.57140  0.34430  Biso   1.000  O
  O31      1.0000 0.16350  0.92860  0.65570  Biso   1.000  O
  O32      1.0000 0.33650  0.07140  0.15570  Biso   1.000  O
  O33      1.0000 0.88150  0.62990  0.85950  Biso   1.000  O
  O34      1.0000 0.61850  0.37010  0.35950  Biso   1.000  O
  O35      1.0000 0.11850  0.12990  0.64050  Biso   1.000  O
  O36      1.0000 0.38150  0.87010  0.14050  Biso   1.000  O
  O37      1.0000 0.86950  0.62080  0.82810  Biso   1.000  O
  O38      1.0000 0.63050  0.37920  0.32810  Biso   1.000  O
  O39      1.0000 0.13050  0.12080  0.67190  Biso   1.000  O
  O40      1.0000 0.36950  0.87920  0.17190  Biso   1.000  O
