data_image0
_cell_length_a       13.167
_cell_length_b       11.055
_cell_length_c       15.534
_cell_angle_alpha    90
_cell_angle_beta     90
_cell_angle_gamma    90

_symmetry_space_group_name_H-M    "P 1"
_symmetry_int_tables_number       1

loop_
  _symmetry_equiv_pos_as_xyz
  'x, y, z'

loop_
  _atom_site_label
  _atom_site_occupancy
  _atom_site_fract_x
  _atom_site_fract_y
  _atom_site_fract_z
  _atom_site_thermal_displace_type
  _atom_site_B_iso_or_equiv
  _atom_site_type_symbol
  Pt1      1.0000 0.00000  0.00000  0.00000  Biso   1.000  Pt
  Pt2      1.0000 0.50000  0.50000  0.50000  Biso   1.000  Pt
  Pt3      1.0000 0.00000  0.00000  0.50000  Biso   1.000  Pt
  Pt4      1.0000 0.50000  0.50000  0.00000  Biso   1.000  Pt
  Cu1      1.0000 0.00000  0.33069  0.25000  Biso   1.000  Cu
  Cu2      1.0000 0.50000  0.16931  0.75000  Biso   1.000  Cu
  Cu3      1.0000 0.00000  0.66931  0.75000  Biso   1.000  Cu
  Cu4      1.0000 0.50000  0.83069  0.25000  Biso   1.000  Cu
  N1       1.0000 0.15040  0.34270  0.22500  Biso   1.000  N
  N2       1.0000 0.34960  0.15730  0.72500  Biso   1.000  N
  N3       1.0000 0.84960  0.34270  0.27500  Biso   1.000  N
  N4       1.0000 0.65040  0.15730  0.77500  Biso   1.000  N
  N5       1.0000 0.84960  0.65730  0.77500  Biso   1.000  N
  N6       1.0000 0.65040  0.84270  0.27500  Biso   1.000  N
  N7       1.0000 0.15040  0.65730  0.72500  Biso   1.000  N
  N8       1.0000 0.34960  0.84270  0.22500  Biso   1.000  N
  N9       1.0000 0.04600  0.47270  0.33730  Biso   1.000  N
  N10      1.0000 0.45400  0.02730  0.83730  Biso   1.000  N
  N11      1.0000 0.95400  0.47270  0.16270  Biso   1.000  N
  N12      1.0000 0.54600  0.02730  0.66270  Biso   1.000  N
  N13      1.0000 0.95400  0.52730  0.66270  Biso   1.000  N
  N14      1.0000 0.54600  0.97270  0.16270  Biso   1.000  N
  N15      1.0000 0.04600  0.52730  0.83730  Biso   1.000  N
  N16      1.0000 0.45400  0.97270  0.33730  Biso   1.000  N
  C1       1.0000 0.19850  0.26860  0.17100  Biso   1.000  C
  C2       1.0000 0.30150  0.23140  0.67100  Biso   1.000  C
  C3       1.0000 0.80150  0.26860  0.32900  Biso   1.000  C
  C4       1.0000 0.69850  0.23140  0.82900  Biso   1.000  C
  C5       1.0000 0.80150  0.73140  0.82900  Biso   1.000  C
  C6       1.0000 0.69850  0.76860  0.32900  Biso   1.000  C
  C7       1.0000 0.19850  0.73140  0.67100  Biso   1.000  C
  C8       1.0000 0.30150  0.76860  0.17100  Biso   1.000  C
  H1       1.0000 0.16110  0.20910  0.14300  Biso   1.000  H
  H2       1.0000 0.33890  0.29090  0.64300  Biso   1.000  H
  H3       1.0000 0.83890  0.20910  0.35700  Biso   1.000  H
  H4       1.0000 0.66110  0.29090  0.85700  Biso   1.000  H
  H5       1.0000 0.83890  0.79090  0.85700  Biso   1.000  H
  H6       1.0000 0.66110  0.70910  0.35700  Biso   1.000  H
  H7       1.0000 0.16110  0.79090  0.64300  Biso   1.000  H
  H8       1.0000 0.33890  0.70910  0.14300  Biso   1.000  H
  C9       1.0000 0.30100  0.27610  0.15500  Biso   1.000  C
  C10      1.0000 0.19900  0.22390  0.65500  Biso   1.000  C
  C11      1.0000 0.69900  0.27610  0.34500  Biso   1.000  C
  C12      1.0000 0.80100  0.22390  0.84500  Biso   1.000  C
  C13      1.0000 0.69900  0.72390  0.84500  Biso   1.000  C
  C14      1.0000 0.80100  0.77610  0.34500  Biso   1.000  C
  C15      1.0000 0.30100  0.72390  0.65500  Biso   1.000  C
  C16      1.0000 0.19900  0.77610  0.15500  Biso   1.000  C
  H9       1.0000 0.33270  0.22380  0.11660  Biso   1.000  H
  H10      1.0000 0.16730  0.27620  0.61660  Biso   1.000  H
  H11      1.0000 0.66730  0.22380  0.38340  Biso   1.000  H
  H12      1.0000 0.83270  0.27620  0.88340  Biso   1.000  H
  H13      1.0000 0.66730  0.77620  0.88340  Biso   1.000  H
  H14      1.0000 0.83270  0.72380  0.38340  Biso   1.000  H
  H15      1.0000 0.33270  0.77620  0.61660  Biso   1.000  H
  H16      1.0000 0.16730  0.72380  0.11660  Biso   1.000  H
  C17      1.0000 0.20160  0.42910  0.26680  Biso   1.000  C
  C18      1.0000 0.29840  0.07090  0.76680  Biso   1.000  C
  C19      1.0000 0.79840  0.42910  0.23320  Biso   1.000  C
  C20      1.0000 0.70160  0.07090  0.73320  Biso   1.000  C
  C21      1.0000 0.79840  0.57090  0.73320  Biso   1.000  C
  C22      1.0000 0.70160  0.92910  0.23320  Biso   1.000  C
  C23      1.0000 0.20160  0.57090  0.76680  Biso   1.000  C
  C24      1.0000 0.29840  0.92910  0.26680  Biso   1.000  C
  C25      1.0000 0.14380  0.50800  0.32400  Biso   1.000  C
  C26      1.0000 0.35620  0.99200  0.82400  Biso   1.000  C
  C27      1.0000 0.85620  0.50800  0.17600  Biso   1.000  C
  C28      1.0000 0.64380  0.99200  0.67600  Biso   1.000  C
  C29      1.0000 0.85620  0.49200  0.67600  Biso   1.000  C
  C30      1.0000 0.64380  0.00800  0.17600  Biso   1.000  C
  C31      1.0000 0.14380  0.49200  0.82400  Biso   1.000  C
  C32      1.0000 0.35620  0.00800  0.32400  Biso   1.000  C
  N17      1.0000 0.97170  0.18630  0.15150  Biso   1.000  N
  N18      1.0000 0.52830  0.31370  0.65150  Biso   1.000  N
  N19      1.0000 0.02830  0.18630  0.34850  Biso   1.000  N
  N20      1.0000 0.47170  0.31370  0.84850  Biso   1.000  N
  N21      1.0000 0.02830  0.81370  0.84850  Biso   1.000  N
  N22      1.0000 0.47170  0.68630  0.34850  Biso   1.000  N
  N23      1.0000 0.97170  0.81370  0.65150  Biso   1.000  N
  N24      1.0000 0.52830  0.68630  0.15150  Biso   1.000  N
  C33      1.0000 0.30590  0.43940  0.25380  Biso   1.000  C
  C34      1.0000 0.19410  0.06060  0.75380  Biso   1.000  C
  C35      1.0000 0.69410  0.43940  0.24620  Biso   1.000  C
  C36      1.0000 0.80590  0.06060  0.74620  Biso   1.000  C
  C37      1.0000 0.69410  0.56060  0.74620  Biso   1.000  C
  C38      1.0000 0.80590  0.93940  0.24620  Biso   1.000  C
  C39      1.0000 0.30590  0.56060  0.75380  Biso   1.000  C
  C40      1.0000 0.19410  0.93940  0.25380  Biso   1.000  C
  H17      1.0000 0.34240  0.49810  0.28350  Biso   1.000  H
  H18      1.0000 0.15760  0.00190  0.78350  Biso   1.000  H
  H19      1.0000 0.65760  0.49810  0.21650  Biso   1.000  H
  H20      1.0000 0.84240  0.00190  0.71650  Biso   1.000  H
  H21      1.0000 0.65760  0.50190  0.71650  Biso   1.000  H
  H22      1.0000 0.84240  0.99810  0.21650  Biso   1.000  H
  H23      1.0000 0.34240  0.50190  0.78350  Biso   1.000  H
  H24      1.0000 0.15760  0.99810  0.28350  Biso   1.000  H
  N25      1.0000 0.23390  0.04800  0.02030  Biso   1.000  N
  N26      1.0000 0.26610  0.45200  0.52030  Biso   1.000  N
  N27      1.0000 0.76610  0.04800  0.47970  Biso   1.000  N
  N28      1.0000 0.73390  0.45200  0.97970  Biso   1.000  N
  N29      1.0000 0.76610  0.95200  0.97970  Biso   1.000  N
  N30      1.0000 0.73390  0.54800  0.47970  Biso   1.000  N
  N31      1.0000 0.23390  0.95200  0.52030  Biso   1.000  N
  N32      1.0000 0.26610  0.54800  0.02030  Biso   1.000  N
  C41      1.0000 0.14920  0.02830  0.01120  Biso   1.000  C
  C42      1.0000 0.35080  0.47170  0.51120  Biso   1.000  C
  C43      1.0000 0.85080  0.02830  0.48880  Biso   1.000  C
  C44      1.0000 0.64920  0.47170  0.98880  Biso   1.000  C
  C45      1.0000 0.85080  0.97170  0.98880  Biso   1.000  C
  C46      1.0000 0.64920  0.52830  0.48880  Biso   1.000  C
  C47      1.0000 0.14920  0.97170  0.51120  Biso   1.000  C
  C48      1.0000 0.35080  0.52830  0.01120  Biso   1.000  C
  C49      1.0000 0.18420  0.61120  0.36330  Biso   1.000  C
  C50      1.0000 0.31580  0.88880  0.86330  Biso   1.000  C
  C51      1.0000 0.81580  0.61120  0.13670  Biso   1.000  C
  C52      1.0000 0.68420  0.88880  0.63670  Biso   1.000  C
  C53      1.0000 0.81580  0.38880  0.63670  Biso   1.000  C
  C54      1.0000 0.68420  0.11120  0.13670  Biso   1.000  C
  C55      1.0000 0.18420  0.38880  0.86330  Biso   1.000  C
  C56      1.0000 0.31580  0.11120  0.36330  Biso   1.000  C
  H25      1.0000 0.25090  0.63520  0.35310  Biso   1.000  H
  H26      1.0000 0.24910  0.86480  0.85310  Biso   1.000  H
  H27      1.0000 0.74910  0.63520  0.14690  Biso   1.000  H
  H28      1.0000 0.75090  0.86480  0.64690  Biso   1.000  H
  H29      1.0000 0.74910  0.36480  0.64690  Biso   1.000  H
  H30      1.0000 0.75090  0.13520  0.14690  Biso   1.000  H
  H31      1.0000 0.25090  0.36480  0.85310  Biso   1.000  H
  H32      1.0000 0.24910  0.13520  0.35310  Biso   1.000  H
  C57      1.0000 0.98890  0.54060  0.39320  Biso   1.000  C
  C58      1.0000 0.51110  0.95940  0.89320  Biso   1.000  C
  C59      1.0000 0.01110  0.54060  0.10680  Biso   1.000  C
  C60      1.0000 0.48890  0.95940  0.60680  Biso   1.000  C
  C61      1.0000 0.01110  0.45940  0.60680  Biso   1.000  C
  C62      1.0000 0.48890  0.04060  0.10680  Biso   1.000  C
  C63      1.0000 0.98890  0.45940  0.89320  Biso   1.000  C
  C64      1.0000 0.51110  0.04060  0.39320  Biso   1.000  C
  H33      1.0000 0.92230  0.51710  0.40420  Biso   1.000  H
  H34      1.0000 0.57770  0.98290  0.90420  Biso   1.000  H
  H35      1.0000 0.07770  0.51710  0.09580  Biso   1.000  H
  H36      1.0000 0.42230  0.98290  0.59580  Biso   1.000  H
  H37      1.0000 0.07770  0.48290  0.59580  Biso   1.000  H
  H38      1.0000 0.42230  0.01710  0.09580  Biso   1.000  H
  H39      1.0000 0.92230  0.48290  0.90420  Biso   1.000  H
  H40      1.0000 0.57770  0.01710  0.40420  Biso   1.000  H
  C65      1.0000 0.35510  0.36390  0.19780  Biso   1.000  C
  C66      1.0000 0.14490  0.13610  0.69780  Biso   1.000  C
  C67      1.0000 0.64490  0.36390  0.30220  Biso   1.000  C
  C68      1.0000 0.85510  0.13610  0.80220  Biso   1.000  C
  C69      1.0000 0.64490  0.63610  0.80220  Biso   1.000  C
  C70      1.0000 0.85510  0.86390  0.30220  Biso   1.000  C
  C71      1.0000 0.35510  0.63610  0.69780  Biso   1.000  C
  C72      1.0000 0.14490  0.86390  0.19780  Biso   1.000  C
  H41      1.0000 0.42460  0.37190  0.18880  Biso   1.000  H
  H42      1.0000 0.07540  0.12810  0.68880  Biso   1.000  H
  H43      1.0000 0.57540  0.37190  0.31120  Biso   1.000  H
  H44      1.0000 0.92460  0.12810  0.81120  Biso   1.000  H
  H45      1.0000 0.57540  0.62810  0.81120  Biso   1.000  H
  H46      1.0000 0.92460  0.87190  0.31120  Biso   1.000  H
  H47      1.0000 0.42460  0.62810  0.68880  Biso   1.000  H
  H48      1.0000 0.07540  0.87190  0.18880  Biso   1.000  H
  C73      1.0000 0.02460  0.63740  0.43180  Biso   1.000  C
  C74      1.0000 0.47540  0.86260  0.93180  Biso   1.000  C
  C75      1.0000 0.97540  0.63740  0.06820  Biso   1.000  C
  C76      1.0000 0.52460  0.86260  0.56820  Biso   1.000  C
  C77      1.0000 0.97540  0.36260  0.56820  Biso   1.000  C
  C78      1.0000 0.52460  0.13740  0.06820  Biso   1.000  C
  C79      1.0000 0.02460  0.36260  0.93180  Biso   1.000  C
  C80      1.0000 0.47540  0.13740  0.43180  Biso   1.000  C
  H49      1.0000 0.98310  0.68050  0.46940  Biso   1.000  H
  H50      1.0000 0.51690  0.81950  0.96940  Biso   1.000  H
  H51      1.0000 0.01690  0.68050  0.03060  Biso   1.000  H
  H52      1.0000 0.48310  0.81950  0.53060  Biso   1.000  H
  H53      1.0000 0.01690  0.31950  0.53060  Biso   1.000  H
  H54      1.0000 0.48310  0.18050  0.03060  Biso   1.000  H
  H55      1.0000 0.98310  0.31950  0.96940  Biso   1.000  H
  H56      1.0000 0.51690  0.18050  0.46940  Biso   1.000  H
  C81      1.0000 0.97900  0.11800  0.09600  Biso   1.000  C
  C82      1.0000 0.52100  0.38200  0.59600  Biso   1.000  C
  C83      1.0000 0.02100  0.11800  0.40400  Biso   1.000  C
  C84      1.0000 0.47900  0.38200  0.90400  Biso   1.000  C
  C85      1.0000 0.02100  0.88200  0.90400  Biso   1.000  C
  C86      1.0000 0.47900  0.61800  0.40400  Biso   1.000  C
  C87      1.0000 0.97900  0.88200  0.59600  Biso   1.000  C
  C88      1.0000 0.52100  0.61800  0.09600  Biso   1.000  C
  C89      1.0000 0.12230  0.67600  0.41750  Biso   1.000  C
  C90      1.0000 0.37770  0.82400  0.91750  Biso   1.000  C
  C91      1.0000 0.87770  0.67600  0.08250  Biso   1.000  C
  C92      1.0000 0.62230  0.82400  0.58250  Biso   1.000  C
  C93      1.0000 0.87770  0.32400  0.58250  Biso   1.000  C
  C94      1.0000 0.62230  0.17600  0.08250  Biso   1.000  C
  C95      1.0000 0.12230  0.32400  0.91750  Biso   1.000  C
  C96      1.0000 0.37770  0.17600  0.41750  Biso   1.000  C
  H57      1.0000 0.14640  0.74550  0.44430  Biso   1.000  H
  H58      1.0000 0.35360  0.75450  0.94430  Biso   1.000  H
  H59      1.0000 0.85360  0.74550  0.05570  Biso   1.000  H
  H60      1.0000 0.64640  0.75450  0.55570  Biso   1.000  H
  H61      1.0000 0.85360  0.25450  0.55570  Biso   1.000  H
  H62      1.0000 0.64640  0.24550  0.05570  Biso   1.000  H
  H63      1.0000 0.14640  0.25450  0.94430  Biso   1.000  H
  H64      1.0000 0.35360  0.24550  0.44430  Biso   1.000  H
