data_image0
_cell_length_a       11.3652
_cell_length_b       15.7528
_cell_length_c       22.917
_cell_angle_alpha    90
_cell_angle_beta     97.739
_cell_angle_gamma    90

_symmetry_space_group_name_H-M    "P 1"
_symmetry_int_tables_number       1

loop_
  _symmetry_equiv_pos_as_xyz
  'x, y, z'

loop_
  _atom_site_label
  _atom_site_occupancy
  _atom_site_fract_x
  _atom_site_fract_y
  _atom_site_fract_z
  _atom_site_thermal_displace_type
  _atom_site_B_iso_or_equiv
  _atom_site_type_symbol
  Si1      1.0000 0.00000  0.00000  0.50000  Biso   1.000  Si
  Si2      1.0000 0.50000  0.50000  0.00000  Biso   1.000  Si
  W1       1.0000 0.91748  0.11949  0.61786  Biso   1.000  W
  W2       1.0000 0.58252  0.61949  0.88214  Biso   1.000  W
  W3       1.0000 0.08252  0.88051  0.38214  Biso   1.000  W
  W4       1.0000 0.41748  0.38051  0.11786  Biso   1.000  W
  W5       1.0000 0.90435  0.21235  0.47675  Biso   1.000  W
  W6       1.0000 0.59565  0.71235  0.02325  Biso   1.000  W
  W7       1.0000 0.09565  0.78765  0.52325  Biso   1.000  W
  W8       1.0000 0.40435  0.28765  0.97675  Biso   1.000  W
  W9       1.0000 0.98676  0.09151  0.35907  Biso   1.000  W
  W10      1.0000 0.51324  0.59151  0.14093  Biso   1.000  W
  W11      1.0000 0.01324  0.90849  0.64093  Biso   1.000  W
  W12      1.0000 0.48676  0.40849  0.85907  Biso   1.000  W
  W13      1.0000 0.20496  0.15926  0.47323  Biso   1.000  W
  W14      1.0000 0.29504  0.65926  0.02677  Biso   1.000  W
  W15      1.0000 0.79504  0.84074  0.52677  Biso   1.000  W
  W16      1.0000 0.70496  0.34074  0.97323  Biso   1.000  W
  W17      1.0000 0.21923  0.06640  0.61423  Biso   1.000  W
  W18      1.0000 0.28077  0.56640  0.88577  Biso   1.000  W
  W19      1.0000 0.78077  0.93360  0.38577  Biso   1.000  W
  W20      1.0000 0.71923  0.43360  0.11423  Biso   1.000  W
  W21      1.0000 0.30038  0.94665  0.49653  Biso   1.000  W
  W22      1.0000 0.19962  0.44665  0.00347  Biso   1.000  W
  W23      1.0000 0.69962  0.05335  0.50347  Biso   1.000  W
  W24      1.0000 0.80038  0.55335  0.99653  Biso   1.000  W
  Cu1      1.0000 0.38391  0.24414  0.72824  Biso   1.000  Cu
  Cu2      1.0000 0.11609  0.74414  0.77176  Biso   1.000  Cu
  Cu3      1.0000 0.61609  0.75586  0.27176  Biso   1.000  Cu
  Cu4      1.0000 0.88391  0.25586  0.22824  Biso   1.000  Cu
  O1       1.0000 0.87990  0.17580  0.67260  Biso   1.000  O
  O2       1.0000 0.62010  0.67580  0.82740  Biso   1.000  O
  O3       1.0000 0.12010  0.82420  0.32740  Biso   1.000  O
  O4       1.0000 0.37990  0.32420  0.17260  Biso   1.000  O
  O5       1.0000 0.04000  0.01610  0.57130  Biso   1.000  O
  O6       1.0000 0.46000  0.51610  0.92870  Biso   1.000  O
  O7       1.0000 0.96000  0.98390  0.42870  Biso   1.000  O
  O8       1.0000 0.54000  0.48390  0.07130  Biso   1.000  O
  O9       1.0000 0.12610  0.03470  0.51540  Biso   1.000  O
  O10      1.0000 0.37390  0.53470  0.98460  Biso   1.000  O
  O11      1.0000 0.87390  0.96530  0.48460  Biso   1.000  O
  O12      1.0000 0.62610  0.46530  0.01540  Biso   1.000  O
  O13      1.0000 0.77080  0.08680  0.57910  Biso   1.000  O
  O14      1.0000 0.72920  0.58680  0.92090  Biso   1.000  O
  O15      1.0000 0.22920  0.91320  0.42090  Biso   1.000  O
  O16      1.0000 0.27080  0.41320  0.07910  Biso   1.000  O
  O17      1.0000 0.93130  0.00730  0.65110  Biso   1.000  O
  O18      1.0000 0.56870  0.50730  0.84890  Biso   1.000  O
  O19      1.0000 0.06870  0.99270  0.34890  Biso   1.000  O
  O20      1.0000 0.43130  0.49270  0.15110  Biso   1.000  O
  O21      1.0000 0.92200  0.20540  0.56010  Biso   1.000  O
  O22      1.0000 0.57800  0.70540  0.93990  Biso   1.000  O
  O23      1.0000 0.07800  0.79460  0.43990  Biso   1.000  O
  O24      1.0000 0.42200  0.29460  0.06010  Biso   1.000  O
  O25      1.0000 0.08500  0.12780  0.63170  Biso   1.000  O
  O26      1.0000 0.41500  0.62780  0.86830  Biso   1.000  O
  O27      1.0000 0.91500  0.87220  0.36830  Biso   1.000  O
  O28      1.0000 0.58500  0.37220  0.13170  Biso   1.000  O
  O29      1.0000 0.85650  0.31120  0.46680  Biso   1.000  O
  O30      1.0000 0.64350  0.81120  0.03320  Biso   1.000  O
  O31      1.0000 0.14350  0.68880  0.53320  Biso   1.000  O
  O32      1.0000 0.35650  0.18880  0.96680  Biso   1.000  O
  O33      1.0000 0.06840  0.22510  0.48370  Biso   1.000  O
  O34      1.0000 0.43160  0.72510  0.01630  Biso   1.000  O
  O35      1.0000 0.93160  0.77490  0.51630  Biso   1.000  O
  O36      1.0000 0.56840  0.27490  0.98370  Biso   1.000  O
  O37      1.0000 0.90920  0.17290  0.39930  Biso   1.000  O
  O38      1.0000 0.59080  0.67290  0.10070  Biso   1.000  O
  O39      1.0000 0.09080  0.82710  0.60070  Biso   1.000  O
  O40      1.0000 0.40920  0.32710  0.89930  Biso   1.000  O
  O41      1.0000 0.97750  0.13780  0.29250  Biso   1.000  O
  O42      1.0000 0.52250  0.63780  0.20750  Biso   1.000  O
  O43      1.0000 0.02250  0.86220  0.70750  Biso   1.000  O
  O44      1.0000 0.47750  0.36220  0.79250  Biso   1.000  O
  O45      1.0000 0.12940  0.13590  0.39570  Biso   1.000  O
  O46      1.0000 0.37060  0.63590  0.10430  Biso   1.000  O
  O47      1.0000 0.87060  0.86410  0.60430  Biso   1.000  O
  O48      1.0000 0.62940  0.36410  0.89570  Biso   1.000  O
  O49      1.0000 0.30330  0.23500  0.46210  Biso   1.000  O
  O50      1.0000 0.19670  0.73500  0.03790  Biso   1.000  O
  O51      1.0000 0.69670  0.76500  0.53790  Biso   1.000  O
  O52      1.0000 0.80330  0.26500  0.96210  Biso   1.000  O
  O53      1.0000 0.23280  0.14820  0.55710  Biso   1.000  O
  O54      1.0000 0.26720  0.64820  0.94290  Biso   1.000  O
  O55      1.0000 0.76720  0.85180  0.44290  Biso   1.000  O
  O56      1.0000 0.73280  0.35180  0.05710  Biso   1.000  O
  O57      1.0000 0.29450  0.05950  0.46910  Biso   1.000  O
  O58      1.0000 0.20550  0.55950  0.03090  Biso   1.000  O
  O59      1.0000 0.70550  0.94050  0.53090  Biso   1.000  O
  O60      1.0000 0.79450  0.44050  0.96910  Biso   1.000  O
  O61      1.0000 0.32270  0.10340  0.66810  Biso   1.000  O
  O62      1.0000 0.17730  0.60340  0.83190  Biso   1.000  O
  O63      1.0000 0.67730  0.89660  0.33190  Biso   1.000  O
  O64      1.0000 0.82270  0.39660  0.16810  Biso   1.000  O
  O65      1.0000 0.15730  0.97160  0.64970  Biso   1.000  O
  O66      1.0000 0.34270  0.47160  0.85030  Biso   1.000  O
  O67      1.0000 0.84270  0.02840  0.35030  Biso   1.000  O
  O68      1.0000 0.65730  0.52840  0.14970  Biso   1.000  O
  O69      1.0000 0.30940  0.99240  0.57390  Biso   1.000  O
  O70      1.0000 0.19060  0.49240  0.92610  Biso   1.000  O
  O71      1.0000 0.69060  0.00760  0.42610  Biso   1.000  O
  O72      1.0000 0.80940  0.50760  0.07390  Biso   1.000  O
  O73      1.0000 0.44010  0.91790  0.49230  Biso   1.000  O
  O74      1.0000 0.05990  0.41790  0.00770  Biso   1.000  O
  O75      1.0000 0.55990  0.08210  0.50770  Biso   1.000  O
  O76      1.0000 0.94010  0.58210  0.99230  Biso   1.000  O
  O77      1.0000 0.24130  0.84570  0.52570  Biso   1.000  O
  O78      1.0000 0.25870  0.34570  0.97430  Biso   1.000  O
  O79      1.0000 0.75870  0.15430  0.47430  Biso   1.000  O
  O80      1.0000 0.74130  0.65430  0.02570  Biso   1.000  O
  C1       1.0000 0.29440  0.76130  0.68940  Biso   1.000  C
  C2       1.0000 0.20560  0.26130  0.81060  Biso   1.000  C
  C3       1.0000 0.70560  0.23870  0.31060  Biso   1.000  C
  C4       1.0000 0.79440  0.73870  0.18940  Biso   1.000  C
  H1       1.0000 0.29160  0.82030  0.69030  Biso   1.000  H
  H2       1.0000 0.20840  0.32030  0.80970  Biso   1.000  H
  H3       1.0000 0.70840  0.17970  0.30970  Biso   1.000  H
  H4       1.0000 0.79160  0.67970  0.19030  Biso   1.000  H
  N1       1.0000 0.34840  0.63700  0.67090  Biso   1.000  N
  N2       1.0000 0.15160  0.13700  0.82910  Biso   1.000  N
  N3       1.0000 0.65160  0.36300  0.32910  Biso   1.000  N
  N4       1.0000 0.84840  0.86300  0.17090  Biso   1.000  N
  C5       1.0000 0.46410  0.74650  0.62890  Biso   1.000  C
  C6       1.0000 0.03590  0.24650  0.87110  Biso   1.000  C
  C7       1.0000 0.53590  0.25350  0.37110  Biso   1.000  C
  C8       1.0000 0.96410  0.75350  0.12890  Biso   1.000  C
  H5       1.0000 0.43120  0.76890  0.59070  Biso   1.000  H
  H6       1.0000 0.06880  0.26890  0.90930  Biso   1.000  H
  H7       1.0000 0.56880  0.23110  0.40930  Biso   1.000  H
  H8       1.0000 0.93120  0.73110  0.09070  Biso   1.000  H
  H9       1.0000 0.51410  0.69840  0.62250  Biso   1.000  H
  H10      1.0000 0.98590  0.19840  0.87750  Biso   1.000  H
  H11      1.0000 0.48590  0.30160  0.37750  Biso   1.000  H
  H12      1.0000 0.01410  0.80160  0.12250  Biso   1.000  H
  C9       1.0000 0.27200  0.41120  0.69030  Biso   1.000  C
  C10      1.0000 0.22800  0.91120  0.80970  Biso   1.000  C
  C11      1.0000 0.72800  0.58880  0.30970  Biso   1.000  C
  C12      1.0000 0.77200  0.08880  0.19030  Biso   1.000  C
  H13      1.0000 0.34060  0.43880  0.70700  Biso   1.000  H
  H14      1.0000 0.15940  0.93880  0.79300  Biso   1.000  H
  H15      1.0000 0.65940  0.56120  0.29300  Biso   1.000  H
  H16      1.0000 0.84060  0.06120  0.20700  Biso   1.000  H
  C13      1.0000 0.15900  0.31720  0.65690  Biso   1.000  C
  C14      1.0000 0.34100  0.81720  0.84310  Biso   1.000  C
  C15      1.0000 0.84100  0.68280  0.34310  Biso   1.000  C
  C16      1.0000 0.65900  0.18280  0.15690  Biso   1.000  C
  H17      1.0000 0.12720  0.26430  0.64550  Biso   1.000  H
  H18      1.0000 0.37280  0.76430  0.85450  Biso   1.000  H
  H19      1.0000 0.87280  0.73570  0.35450  Biso   1.000  H
  H20      1.0000 0.62720  0.23570  0.14550  Biso   1.000  H
  C17      1.0000 0.99140  0.40850  0.60870  Biso   1.000  C
  C18      1.0000 0.50860  0.90850  0.89130  Biso   1.000  C
  C19      1.0000 0.00860  0.59150  0.39130  Biso   1.000  C
  C20      1.0000 0.49140  0.09150  0.10870  Biso   1.000  C
  H21      1.0000 0.94520  0.44200  0.63300  Biso   1.000  H
  H22      1.0000 0.55480  0.94200  0.86700  Biso   1.000  H
  H23      1.0000 0.05480  0.55800  0.36700  Biso   1.000  H
  H24      1.0000 0.44520  0.05800  0.13300  Biso   1.000  H
  H25      1.0000 0.94870  0.35600  0.59890  Biso   1.000  H
  H26      1.0000 0.55130  0.85600  0.90110  Biso   1.000  H
  H27      1.0000 0.05130  0.64400  0.40110  Biso   1.000  H
  H28      1.0000 0.44870  0.14400  0.09890  Biso   1.000  H
  C21      1.0000 0.00060  0.45670  0.55240  Biso   1.000  C
  C22      1.0000 0.49940  0.95670  0.94760  Biso   1.000  C
  C23      1.0000 0.99940  0.54330  0.44760  Biso   1.000  C
  C24      1.0000 0.50060  0.04330  0.05240  Biso   1.000  C
  C25      1.0000 0.08010  0.43530  0.51390  Biso   1.000  C
  C26      1.0000 0.41990  0.93530  0.98610  Biso   1.000  C
  C27      1.0000 0.91990  0.56470  0.48610  Biso   1.000  C
  C28      1.0000 0.58010  0.06470  0.01390  Biso   1.000  C
  H29      1.0000 0.13370  0.39120  0.52350  Biso   1.000  H
  H30      1.0000 0.36630  0.89120  0.97650  Biso   1.000  H
  H31      1.0000 0.86630  0.60880  0.47650  Biso   1.000  H
  H32      1.0000 0.63370  0.10880  0.02350  Biso   1.000  H
  C29      1.0000 0.08080  0.47720  0.46310  Biso   1.000  C
  C30      1.0000 0.41920  0.97720  0.03690  Biso   1.000  C
  C31      1.0000 0.91920  0.52280  0.53690  Biso   1.000  C
  C32      1.0000 0.58080  0.02280  0.96310  Biso   1.000  C
  H33      1.0000 0.13530  0.46250  0.43800  Biso   1.000  H
  H34      1.0000 0.36470  0.96250  0.06200  Biso   1.000  H
  H35      1.0000 0.86470  0.53750  0.56200  Biso   1.000  H
  H36      1.0000 0.63530  0.03750  0.93800  Biso   1.000  H
  C33      1.0000 0.46990  0.26790  0.60910  Biso   1.000  C
  C34      1.0000 0.03010  0.76790  0.89090  Biso   1.000  C
  C35      1.0000 0.53010  0.73210  0.39090  Biso   1.000  C
  C36      1.0000 0.96990  0.23210  0.10910  Biso   1.000  C
  H37      1.0000 0.40430  0.24260  0.58720  Biso   1.000  H
  H38      1.0000 0.09570  0.74260  0.91280  Biso   1.000  H
  H39      1.0000 0.59570  0.75740  0.41280  Biso   1.000  H
  H40      1.0000 0.90430  0.25740  0.08720  Biso   1.000  H
  C37      1.0000 0.59190  0.31450  0.67930  Biso   1.000  C
  C38      1.0000 0.90810  0.81450  0.82070  Biso   1.000  C
  C39      1.0000 0.40810  0.68550  0.32070  Biso   1.000  C
  C40      1.0000 0.09190  0.18550  0.17930  Biso   1.000  C
  H41      1.0000 0.62710  0.32800  0.71720  Biso   1.000  H
  H42      1.0000 0.87290  0.82800  0.78280  Biso   1.000  H
  H43      1.0000 0.37290  0.67200  0.28280  Biso   1.000  H
  H44      1.0000 0.12710  0.17200  0.21720  Biso   1.000  H
  C41      1.0000 0.56490  0.32460  0.52580  Biso   1.000  C
  C42      1.0000 0.93510  0.82460  0.97420  Biso   1.000  C
  C43      1.0000 0.43510  0.67540  0.47420  Biso   1.000  C
  C44      1.0000 0.06490  0.17540  0.02580  Biso   1.000  C
  H45      1.0000 0.51220  0.28740  0.50070  Biso   1.000  H
  H46      1.0000 0.98780  0.78740  0.99930  Biso   1.000  H
  H47      1.0000 0.48780  0.71260  0.49930  Biso   1.000  H
  H48      1.0000 0.01220  0.21260  0.00070  Biso   1.000  H
  H49      1.0000 0.64520  0.31470  0.51760  Biso   1.000  H
  H50      1.0000 0.85480  0.81470  0.98240  Biso   1.000  H
  H51      1.0000 0.35480  0.68530  0.48240  Biso   1.000  H
  H52      1.0000 0.14520  0.18530  0.01760  Biso   1.000  H
  C45      1.0000 0.53110  0.41580  0.51210  Biso   1.000  C
  C46      1.0000 0.96890  0.91580  0.98790  Biso   1.000  C
  C47      1.0000 0.46890  0.58420  0.48790  Biso   1.000  C
  C48      1.0000 0.03110  0.08420  0.01210  Biso   1.000  C
  C49      1.0000 0.42600  0.44860  0.52190  Biso   1.000  C
  C50      1.0000 0.07400  0.94860  0.97810  Biso   1.000  C
  C51      1.0000 0.57400  0.55140  0.47810  Biso   1.000  C
  C52      1.0000 0.92600  0.05140  0.02190  Biso   1.000  C
  H53      1.0000 0.37400  0.41360  0.53900  Biso   1.000  H
  H54      1.0000 0.12600  0.91360  0.96100  Biso   1.000  H
  H55      1.0000 0.62600  0.58640  0.46100  Biso   1.000  H
  H56      1.0000 0.87400  0.08640  0.03900  Biso   1.000  H
  C53      1.0000 0.60900  0.47310  0.49120  Biso   1.000  C
  C54      1.0000 0.89100  0.97310  0.00880  Biso   1.000  C
  C55      1.0000 0.39100  0.52690  0.50880  Biso   1.000  C
  C56      1.0000 0.10900  0.02690  0.99120  Biso   1.000  C
  H57      1.0000 0.68510  0.45610  0.48650  Biso   1.000  H
  H58      1.0000 0.81490  0.95610  0.01350  Biso   1.000  H
  H59      1.0000 0.31490  0.54390  0.51350  Biso   1.000  H
  H60      1.0000 0.18510  0.04390  0.98650  Biso   1.000  H
  C57      1.0000 0.55520  0.15670  0.82250  Biso   1.000  C
  C58      1.0000 0.94480  0.65670  0.67750  Biso   1.000  C
  C59      1.0000 0.44480  0.84330  0.17750  Biso   1.000  C
  C60      1.0000 0.05520  0.34330  0.32250  Biso   1.000  C
  H61      1.0000 0.52490  0.18180  0.85410  Biso   1.000  H
  H62      1.0000 0.97510  0.68180  0.64590  Biso   1.000  H
  H63      1.0000 0.47510  0.81820  0.14590  Biso   1.000  H
  H64      1.0000 0.02490  0.31820  0.35410  Biso   1.000  H
  C61      1.0000 0.57350  0.11630  0.73870  Biso   1.000  C
  C62      1.0000 0.92650  0.61630  0.76130  Biso   1.000  C
  C63      1.0000 0.42650  0.88370  0.26130  Biso   1.000  C
  C64      1.0000 0.07350  0.38370  0.23870  Biso   1.000  C
  H65      1.0000 0.56170  0.10850  0.69810  Biso   1.000  H
  H66      1.0000 0.93830  0.60850  0.80190  Biso   1.000  H
  H67      1.0000 0.43830  0.89150  0.30190  Biso   1.000  H
  H68      1.0000 0.06170  0.39150  0.19810  Biso   1.000  H
  C65      1.0000 0.73910  0.00970  0.76210  Biso   1.000  C
  C66      1.0000 0.76090  0.50970  0.73790  Biso   1.000  C
  C67      1.0000 0.26090  0.99030  0.23790  Biso   1.000  C
  C68      1.0000 0.23910  0.49030  0.26210  Biso   1.000  C
  H69      1.0000 0.78110  0.98680  0.79830  Biso   1.000  H
  H70      1.0000 0.71890  0.48680  0.70170  Biso   1.000  H
  H71      1.0000 0.21890  0.01320  0.20170  Biso   1.000  H
  H72      1.0000 0.28110  0.51320  0.29830  Biso   1.000  H
  H73      1.0000 0.79690  0.03400  0.73940  Biso   1.000  H
  H74      1.0000 0.70310  0.53400  0.76060  Biso   1.000  H
  H75      1.0000 0.20310  0.96600  0.26060  Biso   1.000  H
  H76      1.0000 0.29690  0.46600  0.23940  Biso   1.000  H
  C69      1.0000 0.67120  0.94060  0.72750  Biso   1.000  C
  C70      1.0000 0.82880  0.44060  0.77250  Biso   1.000  C
  C71      1.0000 0.32880  0.05940  0.27250  Biso   1.000  C
  C72      1.0000 0.17120  0.55940  0.22750  Biso   1.000  C
  C73      1.0000 0.63840  0.86730  0.75430  Biso   1.000  C
  C74      1.0000 0.86160  0.36730  0.74570  Biso   1.000  C
  C75      1.0000 0.36160  0.13270  0.24570  Biso   1.000  C
  C76      1.0000 0.13840  0.63270  0.25430  Biso   1.000  C
  H77      1.0000 0.66070  0.86030  0.79460  Biso   1.000  H
  H78      1.0000 0.83930  0.36030  0.70540  Biso   1.000  H
  H79      1.0000 0.33930  0.13970  0.20540  Biso   1.000  H
  H80      1.0000 0.16070  0.63970  0.29460  Biso   1.000  H
  C77      1.0000 0.57370  0.80460  0.72310  Biso   1.000  C
  C78      1.0000 0.92630  0.30460  0.77690  Biso   1.000  C
  C79      1.0000 0.42630  0.19540  0.27690  Biso   1.000  C
  C80      1.0000 0.07370  0.69540  0.22310  Biso   1.000  C
  H81      1.0000 0.55430  0.75570  0.74240  Biso   1.000  H
  H82      1.0000 0.94570  0.25570  0.75760  Biso   1.000  H
  H83      1.0000 0.44570  0.24430  0.25760  Biso   1.000  H
  H84      1.0000 0.05430  0.74430  0.24240  Biso   1.000  H
  C81      1.0000 0.53680  0.81310  0.66290  Biso   1.000  C
  C82      1.0000 0.96320  0.31310  0.83710  Biso   1.000  C
  C83      1.0000 0.46320  0.18690  0.33710  Biso   1.000  C
  C84      1.0000 0.03680  0.68690  0.16290  Biso   1.000  C
  C85      1.0000 0.56920  0.88640  0.63580  Biso   1.000  C
  C86      1.0000 0.93080  0.38640  0.86420  Biso   1.000  C
  C87      1.0000 0.43080  0.11360  0.36420  Biso   1.000  C
  C88      1.0000 0.06920  0.61360  0.13580  Biso   1.000  C
  H85      1.0000 0.54380  0.89530  0.59600  Biso   1.000  H
  H86      1.0000 0.95620  0.39530  0.90400  Biso   1.000  H
  H87      1.0000 0.45620  0.10470  0.40400  Biso   1.000  H
  H88      1.0000 0.04380  0.60470  0.09600  Biso   1.000  H
  C89      1.0000 0.63970  0.94670  0.66800  Biso   1.000  C
  C90      1.0000 0.86030  0.44670  0.83200  Biso   1.000  C
  C91      1.0000 0.36030  0.05330  0.33200  Biso   1.000  C
  C92      1.0000 0.13970  0.55330  0.16800  Biso   1.000  C
  H89      1.0000 0.66640  0.99300  0.64830  Biso   1.000  H
  H90      1.0000 0.83360  0.49300  0.85170  Biso   1.000  H
  H91      1.0000 0.33360  0.00700  0.35170  Biso   1.000  H
  H92      1.0000 0.16640  0.50700  0.14830  Biso   1.000  H
  N5       1.0000 0.22760  0.71280  0.71600  Biso   1.000  N
  N6       1.0000 0.27240  0.21280  0.78400  Biso   1.000  N
  N7       1.0000 0.77240  0.28720  0.28400  Biso   1.000  N
  N8       1.0000 0.72760  0.78720  0.21600  Biso   1.000  N
  N9       1.0000 0.36610  0.71830  0.66130  Biso   1.000  N
  N10      1.0000 0.13390  0.21830  0.83870  Biso   1.000  N
  N11      1.0000 0.63390  0.28170  0.33870  Biso   1.000  N
  N12      1.0000 0.86610  0.78170  0.16130  Biso   1.000  N
  C93      1.0000 0.26400  0.63490  0.70590  Biso   1.000  C
  C94      1.0000 0.23600  0.13490  0.79410  Biso   1.000  C
  C95      1.0000 0.73600  0.36510  0.29410  Biso   1.000  C
  C96      1.0000 0.76400  0.86510  0.20590  Biso   1.000  C
  H93      1.0000 0.23470  0.58570  0.72110  Biso   1.000  H
  H94      1.0000 0.26530  0.08570  0.77890  Biso   1.000  H
  H95      1.0000 0.76530  0.41430  0.27890  Biso   1.000  H
  H96      1.0000 0.73470  0.91430  0.22110  Biso   1.000  H
  N13      1.0000 0.26350  0.32760  0.68900  Biso   1.000  N
  N14      1.0000 0.23650  0.82760  0.81100  Biso   1.000  N
  N15      1.0000 0.73650  0.67240  0.31100  Biso   1.000  N
  N16      1.0000 0.76350  0.17240  0.18900  Biso   1.000  N
  N17      1.0000 0.10520  0.38860  0.64270  Biso   1.000  N
  N18      1.0000 0.39480  0.88860  0.85730  Biso   1.000  N
  N19      1.0000 0.89480  0.61140  0.35730  Biso   1.000  N
  N20      1.0000 0.60520  0.11140  0.14270  Biso   1.000  N
  N21      1.0000 0.17710  0.45290  0.66650  Biso   1.000  N
  N22      1.0000 0.32290  0.95290  0.83350  Biso   1.000  N
  N23      1.0000 0.82290  0.54710  0.33350  Biso   1.000  N
  N24      1.0000 0.67710  0.04710  0.16650  Biso   1.000  N
  N25      1.0000 0.48860  0.27210  0.66800  Biso   1.000  N
  N26      1.0000 0.01140  0.77210  0.83200  Biso   1.000  N
  N27      1.0000 0.51140  0.72790  0.33200  Biso   1.000  N
  N28      1.0000 0.98860  0.22790  0.16800  Biso   1.000  N
  N29      1.0000 0.55760  0.30460  0.58660  Biso   1.000  N
  N30      1.0000 0.94240  0.80460  0.91340  Biso   1.000  N
  N31      1.0000 0.44240  0.69540  0.41340  Biso   1.000  N
  N32      1.0000 0.05760  0.19540  0.08660  Biso   1.000  N
  N33      1.0000 0.63890  0.33530  0.63130  Biso   1.000  N
  N34      1.0000 0.86110  0.83530  0.86870  Biso   1.000  N
  N35      1.0000 0.36110  0.66470  0.36870  Biso   1.000  N
  N36      1.0000 0.13890  0.16470  0.13130  Biso   1.000  N
  N37      1.0000 0.51220  0.16890  0.76730  Biso   1.000  N
  N38      1.0000 0.98780  0.66890  0.73270  Biso   1.000  N
  N39      1.0000 0.48780  0.83110  0.23270  Biso   1.000  N
  N40      1.0000 0.01220  0.33110  0.26730  Biso   1.000  N
  N41      1.0000 0.65460  0.07560  0.77560  Biso   1.000  N
  N42      1.0000 0.84540  0.57560  0.72440  Biso   1.000  N
  N43      1.0000 0.34540  0.92440  0.22440  Biso   1.000  N
  N44      1.0000 0.15460  0.42440  0.27560  Biso   1.000  N
  N45      1.0000 0.64880  0.10340  0.82810  Biso   1.000  N
  N46      1.0000 0.85120  0.60340  0.67190  Biso   1.000  N
  N47      1.0000 0.35120  0.89660  0.17190  Biso   1.000  N
  N48      1.0000 0.14880  0.39660  0.32810  Biso   1.000  N
  O81      1.0000 0.90500  0.07200  0.51750  Biso   1.000  O
  O82      1.0000 0.59500  0.57200  0.98250  Biso   1.000  O
  O83      1.0000 0.09500  0.92800  0.48250  Biso   1.000  O
  O84      1.0000 0.40500  0.42800  0.01750  Biso   1.000  O
  O85      1.0000 0.97500  0.91570  0.53560  Biso   1.000  O
  O86      1.0000 0.52500  0.41570  0.96440  Biso   1.000  O
  O87      1.0000 0.02500  0.08430  0.46440  Biso   1.000  O
  O88      1.0000 0.47500  0.58430  0.03560  Biso   1.000  O
