data_image0
_cell_length_a       9.371
_cell_length_b       10.195
_cell_length_c       10.688
_cell_angle_alpha    90
_cell_angle_beta     90
_cell_angle_gamma    90

_symmetry_space_group_name_H-M    "P 1"
_symmetry_int_tables_number       1

loop_
  _symmetry_equiv_pos_as_xyz
  'x, y, z'

loop_
  _atom_site_label
  _atom_site_occupancy
  _atom_site_fract_x
  _atom_site_fract_y
  _atom_site_fract_z
  _atom_site_thermal_displace_type
  _atom_site_B_iso_or_equiv
  _atom_site_type_symbol
  Cu1      1.0000 0.73895  0.14235  0.52839  Biso   1.000  Cu
  Cu2      1.0000 0.76105  0.85765  0.02839  Biso   1.000  Cu
  Cu3      1.0000 0.26105  0.64235  0.97161  Biso   1.000  Cu
  Cu4      1.0000 0.23895  0.35765  0.47161  Biso   1.000  Cu
  O1       1.0000 0.93480  0.21510  0.50230  Biso   1.000  O
  O2       1.0000 0.56520  0.78490  0.00230  Biso   1.000  O
  O3       1.0000 0.06520  0.71510  0.99770  Biso   1.000  O
  O4       1.0000 0.43480  0.28490  0.49770  Biso   1.000  O
  O5       1.0000 0.15210  0.22590  0.58520  Biso   1.000  O
  O6       1.0000 0.34790  0.77410  0.08520  Biso   1.000  O
  O7       1.0000 0.84790  0.72590  0.91480  Biso   1.000  O
  O8       1.0000 0.65210  0.27410  0.41480  Biso   1.000  O
  O9       1.0000 0.78200  0.00690  0.87570  Biso   1.000  O
  O10      1.0000 0.71800  0.99310  0.37570  Biso   1.000  O
  O11      1.0000 0.21800  0.50690  0.62430  Biso   1.000  O
  O12      1.0000 0.28200  0.49310  0.12430  Biso   1.000  O
  N1       1.0000 0.56220  0.06140  0.60330  Biso   1.000  N
  N2       1.0000 0.93780  0.93860  0.10330  Biso   1.000  N
  N3       1.0000 0.43780  0.56140  0.89670  Biso   1.000  N
  N4       1.0000 0.06220  0.43860  0.39670  Biso   1.000  N
  H1       1.0000 0.49840  0.12490  0.62050  Biso   1.000  H
  H2       1.0000 0.00160  0.87510  0.12050  Biso   1.000  H
  H3       1.0000 0.50160  0.62490  0.87950  Biso   1.000  H
  H4       1.0000 0.99840  0.37510  0.37950  Biso   1.000  H
  H5       1.0000 0.52240  0.00630  0.54740  Biso   1.000  H
  H6       1.0000 0.97760  0.99370  0.04740  Biso   1.000  H
  H7       1.0000 0.47760  0.50630  0.95260  Biso   1.000  H
  H8       1.0000 0.02240  0.49370  0.45260  Biso   1.000  H
  N5       1.0000 0.82670  0.07230  0.67430  Biso   1.000  N
  N6       1.0000 0.67330  0.92770  0.17430  Biso   1.000  N
  N7       1.0000 0.17330  0.57230  0.82570  Biso   1.000  N
  N8       1.0000 0.32670  0.42770  0.32570  Biso   1.000  N
  C1       1.0000 0.59620  0.98850  0.71930  Biso   1.000  C
  C2       1.0000 0.90380  0.01150  0.21930  Biso   1.000  C
  C3       1.0000 0.40380  0.48850  0.78070  Biso   1.000  C
  C4       1.0000 0.09620  0.51150  0.28070  Biso   1.000  C
  H9       1.0000 0.52620  0.00990  0.78430  Biso   1.000  H
  H10      1.0000 0.97380  0.99010  0.28430  Biso   1.000  H
  H11      1.0000 0.47380  0.50990  0.71570  Biso   1.000  H
  H12      1.0000 0.02620  0.49010  0.21570  Biso   1.000  H
  C5       1.0000 0.74550  0.02610  0.76390  Biso   1.000  C
  C6       1.0000 0.75450  0.97390  0.26390  Biso   1.000  C
  C7       1.0000 0.25450  0.52610  0.73610  Biso   1.000  C
  C8       1.0000 0.24550  0.47390  0.23610  Biso   1.000  C
  C9       1.0000 0.97750  0.09850  0.69440  Biso   1.000  C
  C10      1.0000 0.52250  0.90150  0.19440  Biso   1.000  C
  C11      1.0000 0.02250  0.59850  0.80560  Biso   1.000  C
  C12      1.0000 0.47750  0.40150  0.30560  Biso   1.000  C
  H13      1.0000 0.98870  0.14740  0.77270  Biso   1.000  H
  H14      1.0000 0.51130  0.85260  0.27270  Biso   1.000  H
  H15      1.0000 0.01130  0.64740  0.72730  Biso   1.000  H
  H16      1.0000 0.48870  0.35260  0.22730  Biso   1.000  H
  C13      1.0000 0.02480  0.18580  0.58550  Biso   1.000  C
  C14      1.0000 0.47520  0.81420  0.08550  Biso   1.000  C
  C15      1.0000 0.97520  0.68580  0.91450  Biso   1.000  C
  C16      1.0000 0.52480  0.31420  0.41450  Biso   1.000  C
  C17      1.0000 0.59340  0.84150  0.69290  Biso   1.000  C
  C18      1.0000 0.90660  0.15850  0.19290  Biso   1.000  C
  C19      1.0000 0.40660  0.34150  0.80710  Biso   1.000  C
  C20      1.0000 0.09340  0.65850  0.30710  Biso   1.000  C
  H17      1.0000 0.49750  0.81480  0.67440  Biso   1.000  H
  H18      1.0000 0.00250  0.18520  0.17440  Biso   1.000  H
  H19      1.0000 0.50250  0.31480  0.82560  Biso   1.000  H
  H20      1.0000 0.99750  0.68520  0.32560  Biso   1.000  H
  H21      1.0000 0.62720  0.79480  0.76510  Biso   1.000  H
  H22      1.0000 0.87280  0.20520  0.26510  Biso   1.000  H
  H23      1.0000 0.37280  0.29480  0.73490  Biso   1.000  H
  H24      1.0000 0.12720  0.70520  0.23490  Biso   1.000  H
  H25      1.0000 0.65380  0.82240  0.62270  Biso   1.000  H
  H26      1.0000 0.84620  0.17760  0.12270  Biso   1.000  H
  H27      1.0000 0.34620  0.32240  0.87730  Biso   1.000  H
  H28      1.0000 0.15380  0.67760  0.37730  Biso   1.000  H
  C21      1.0000 0.06290  0.96980  0.70360  Biso   1.000  C
  C22      1.0000 0.43710  0.03020  0.20360  Biso   1.000  C
  C23      1.0000 0.93710  0.46980  0.79640  Biso   1.000  C
  C24      1.0000 0.56290  0.53020  0.29640  Biso   1.000  C
  H29      1.0000 0.00810  0.91140  0.75830  Biso   1.000  H
  H30      1.0000 0.49190  0.08860  0.25830  Biso   1.000  H
  H31      1.0000 0.99190  0.41140  0.74170  Biso   1.000  H
  H32      1.0000 0.50810  0.58860  0.24170  Biso   1.000  H
  C25      1.0000 0.07410  0.90110  0.57780  Biso   1.000  C
  C26      1.0000 0.42590  0.09890  0.07780  Biso   1.000  C
  C27      1.0000 0.92590  0.40110  0.92220  Biso   1.000  C
  C28      1.0000 0.57410  0.59890  0.42220  Biso   1.000  C
  H33      1.0000 0.98090  0.89450  0.54090  Biso   1.000  H
  H34      1.0000 0.51910  0.10550  0.04090  Biso   1.000  H
  H35      1.0000 0.01910  0.39450  0.95910  Biso   1.000  H
  H36      1.0000 0.48090  0.60550  0.45910  Biso   1.000  H
  H37      1.0000 0.11290  0.81480  0.58940  Biso   1.000  H
  H38      1.0000 0.38710  0.18520  0.08940  Biso   1.000  H
  H39      1.0000 0.88710  0.31480  0.91060  Biso   1.000  H
  H40      1.0000 0.61290  0.68520  0.41060  Biso   1.000  H
  H41      1.0000 0.13540  0.95060  0.52350  Biso   1.000  H
  H42      1.0000 0.36460  0.04940  0.02350  Biso   1.000  H
  H43      1.0000 0.86460  0.45060  0.97650  Biso   1.000  H
  H44      1.0000 0.63540  0.54940  0.47650  Biso   1.000  H
  C29      1.0000 0.20780  0.98900  0.76600  Biso   1.000  C
  C30      1.0000 0.29220  0.01100  0.26600  Biso   1.000  C
  C31      1.0000 0.79220  0.48900  0.73400  Biso   1.000  C
  C32      1.0000 0.70780  0.51100  0.23400  Biso   1.000  C
  H45      1.0000 0.19460  0.02700  0.84740  Biso   1.000  H
  H46      1.0000 0.30540  0.97300  0.34740  Biso   1.000  H
  H47      1.0000 0.80540  0.52700  0.65260  Biso   1.000  H
  H48      1.0000 0.69460  0.47300  0.15260  Biso   1.000  H
  H49      1.0000 0.26530  0.04640  0.71570  Biso   1.000  H
  H50      1.0000 0.23470  0.95360  0.21570  Biso   1.000  H
  H51      1.0000 0.73470  0.54640  0.78430  Biso   1.000  H
  H52      1.0000 0.76530  0.45360  0.28430  Biso   1.000  H
  H53      1.0000 0.25460  0.90570  0.77410  Biso   1.000  H
  H54      1.0000 0.24540  0.09430  0.27410  Biso   1.000  H
  H55      1.0000 0.74540  0.40570  0.72590  Biso   1.000  H
  H56      1.0000 0.75460  0.59430  0.22590  Biso   1.000  H
