data_image0
_cell_length_a       5.441
_cell_length_b       9.0578
_cell_length_c       26.338
_cell_angle_alpha    90
_cell_angle_beta     90
_cell_angle_gamma    90

_symmetry_space_group_name_H-M    "P 1"
_symmetry_int_tables_number       1

loop_
  _symmetry_equiv_pos_as_xyz
  'x, y, z'

loop_
  _atom_site_label
  _atom_site_occupancy
  _atom_site_fract_x
  _atom_site_fract_y
  _atom_site_fract_z
  _atom_site_thermal_displace_type
  _atom_site_B_iso_or_equiv
  _atom_site_type_symbol
  Cu1      1.0000 0.04863  0.79137  0.79673  Biso   1.000  Cu
  Cu2      1.0000 0.45137  0.20863  0.29673  Biso   1.000  Cu
  Cu3      1.0000 0.95137  0.29137  0.70327  Biso   1.000  Cu
  Cu4      1.0000 0.54863  0.70863  0.20327  Biso   1.000  Cu
  O1       1.0000 0.02320  0.60890  0.75488  Biso   1.000  O
  O2       1.0000 0.47680  0.39110  0.25488  Biso   1.000  O
  O3       1.0000 0.97680  0.10890  0.74512  Biso   1.000  O
  O4       1.0000 0.52320  0.89110  0.24512  Biso   1.000  O
  O5       1.0000 0.20440  0.39160  0.74360  Biso   1.000  O
  O6       1.0000 0.29560  0.60840  0.24360  Biso   1.000  O
  O7       1.0000 0.79560  0.89160  0.75640  Biso   1.000  O
  O8       1.0000 0.70440  0.10840  0.25640  Biso   1.000  O
  O9       1.0000 0.72860  0.75340  0.85354  Biso   1.000  O
  O10      1.0000 0.77140  0.24660  0.35354  Biso   1.000  O
  O11      1.0000 0.27140  0.25340  0.64646  Biso   1.000  O
  O12      1.0000 0.22860  0.74660  0.14646  Biso   1.000  O
  N1       1.0000 0.15540  0.95600  0.84240  Biso   1.000  N
  N2       1.0000 0.34460  0.04400  0.34240  Biso   1.000  N
  N3       1.0000 0.84460  0.45600  0.65760  Biso   1.000  N
  N4       1.0000 0.65540  0.54400  0.15760  Biso   1.000  N
  H1       1.0000 0.14710  0.04190  0.82530  Biso   1.000  H
  H2       1.0000 0.35290  0.95810  0.32530  Biso   1.000  H
  H3       1.0000 0.85290  0.54190  0.67470  Biso   1.000  H
  H4       1.0000 0.64710  0.45810  0.17470  Biso   1.000  H
  H5       1.0000 0.05190  0.96170  0.86900  Biso   1.000  H
  H6       1.0000 0.44810  0.03830  0.36900  Biso   1.000  H
  H7       1.0000 0.94810  0.46170  0.63100  Biso   1.000  H
  H8       1.0000 0.55190  0.53830  0.13100  Biso   1.000  H
  N5       1.0000 0.35130  0.70600  0.81745  Biso   1.000  N
  N6       1.0000 0.14870  0.29400  0.31745  Biso   1.000  N
  N7       1.0000 0.64870  0.20600  0.68255  Biso   1.000  N
  N8       1.0000 0.85130  0.79400  0.18255  Biso   1.000  N
  C1       1.0000 0.40730  0.93440  0.86120  Biso   1.000  C
  C2       1.0000 0.09270  0.06560  0.36120  Biso   1.000  C
  C3       1.0000 0.59270  0.43440  0.63880  Biso   1.000  C
  C4       1.0000 0.90730  0.56560  0.13880  Biso   1.000  C
  H9       1.0000 0.50890  0.01140  0.84560  Biso   1.000  H
  H10      1.0000 0.99110  0.98860  0.34560  Biso   1.000  H
  H11      1.0000 0.49110  0.51140  0.65440  Biso   1.000  H
  H12      1.0000 0.00890  0.48860  0.15440  Biso   1.000  H
  C5       1.0000 0.50840  0.78550  0.84270  Biso   1.000  C
  C6       1.0000 0.99160  0.21450  0.34270  Biso   1.000  C
  C7       1.0000 0.49160  0.28550  0.65730  Biso   1.000  C
  C8       1.0000 0.00840  0.71450  0.15730  Biso   1.000  C
  C9       1.0000 0.42070  0.56830  0.79270  Biso   1.000  C
  C10      1.0000 0.07930  0.43170  0.29270  Biso   1.000  C
  C11      1.0000 0.57930  0.06830  0.70730  Biso   1.000  C
  C12      1.0000 0.92070  0.93170  0.20730  Biso   1.000  C
  H13      1.0000 0.55330  0.59080  0.76880  Biso   1.000  H
  H14      1.0000 0.94670  0.40920  0.26880  Biso   1.000  H
  H15      1.0000 0.44670  0.09080  0.73120  Biso   1.000  H
  H16      1.0000 0.05330  0.90920  0.23120  Biso   1.000  H
  C13      1.0000 0.19840  0.51980  0.76180  Biso   1.000  C
  C14      1.0000 0.30160  0.48020  0.26180  Biso   1.000  C
  C15      1.0000 0.80160  0.01980  0.73820  Biso   1.000  C
  C16      1.0000 0.69840  0.98020  0.23820  Biso   1.000  C
  C17      1.0000 0.42370  0.95480  0.91620  Biso   1.000  C
  C18      1.0000 0.07630  0.04520  0.41620  Biso   1.000  C
  C19      1.0000 0.57630  0.45480  0.58380  Biso   1.000  C
  C20      1.0000 0.92370  0.54520  0.08380  Biso   1.000  C
  H17      1.0000 0.37600  0.05360  0.92470  Biso   1.000  H
  H18      1.0000 0.12400  0.94640  0.42470  Biso   1.000  H
  H19      1.0000 0.62400  0.55360  0.57530  Biso   1.000  H
  H20      1.0000 0.87600  0.44640  0.07530  Biso   1.000  H
  H21      1.0000 0.58980  0.93800  0.92700  Biso   1.000  H
  H22      1.0000 0.91020  0.06200  0.42700  Biso   1.000  H
  H23      1.0000 0.41020  0.43800  0.57300  Biso   1.000  H
  H24      1.0000 0.08980  0.56200  0.07300  Biso   1.000  H
  H25      1.0000 0.31700  0.88590  0.93280  Biso   1.000  H
  H26      1.0000 0.18300  0.11410  0.43280  Biso   1.000  H
  H27      1.0000 0.68300  0.38590  0.56720  Biso   1.000  H
  H28      1.0000 0.81700  0.61410  0.06720  Biso   1.000  H
  C21      1.0000 0.51470  0.44730  0.82880  Biso   1.000  C
  C22      1.0000 0.98530  0.55270  0.32880  Biso   1.000  C
  C23      1.0000 0.48530  0.94730  0.67120  Biso   1.000  C
  C24      1.0000 0.01470  0.05270  0.17120  Biso   1.000  C
  H29      1.0000 0.53340  0.35650  0.80960  Biso   1.000  H
  H30      1.0000 0.96660  0.64350  0.30960  Biso   1.000  H
  H31      1.0000 0.46660  0.85650  0.69040  Biso   1.000  H
  H32      1.0000 0.03340  0.14350  0.19040  Biso   1.000  H
  H33      1.0000 0.67600  0.47550  0.84100  Biso   1.000  H
  H34      1.0000 0.82400  0.52450  0.34100  Biso   1.000  H
  H35      1.0000 0.32400  0.97550  0.65900  Biso   1.000  H
  H36      1.0000 0.17600  0.02450  0.15900  Biso   1.000  H
  C25      1.0000 0.35360  0.41760  0.87330  Biso   1.000  C
  C26      1.0000 0.14640  0.58240  0.37330  Biso   1.000  C
  C27      1.0000 0.64640  0.91760  0.62670  Biso   1.000  C
  C28      1.0000 0.85360  0.08240  0.12670  Biso   1.000  C
  C29      1.0000 0.41440  0.47550  0.92070  Biso   1.000  C
  C30      1.0000 0.08560  0.52450  0.42070  Biso   1.000  C
  C31      1.0000 0.58560  0.97550  0.57930  Biso   1.000  C
  C32      1.0000 0.91440  0.02450  0.07930  Biso   1.000  C
  H37      1.0000 0.55510  0.53280  0.92450  Biso   1.000  H
  H38      1.0000 0.94490  0.46720  0.42450  Biso   1.000  H
  H39      1.0000 0.44490  0.03280  0.57550  Biso   1.000  H
  H40      1.0000 0.05510  0.96720  0.07550  Biso   1.000  H
  C33      1.0000 0.26310  0.44720  0.96260  Biso   1.000  C
  C34      1.0000 0.23690  0.55280  0.46260  Biso   1.000  C
  C35      1.0000 0.73690  0.94720  0.53740  Biso   1.000  C
  C36      1.0000 0.76310  0.05280  0.03740  Biso   1.000  C
  H41      1.0000 0.30190  0.48810  0.99400  Biso   1.000  H
  H42      1.0000 0.19810  0.51190  0.49400  Biso   1.000  H
  H43      1.0000 0.69810  0.98810  0.50600  Biso   1.000  H
  H44      1.0000 0.80190  0.01190  0.00600  Biso   1.000  H
  C37      1.0000 0.05920  0.36050  0.95800  Biso   1.000  C
  C38      1.0000 0.44080  0.63950  0.45800  Biso   1.000  C
  C39      1.0000 0.94080  0.86050  0.54200  Biso   1.000  C
  C40      1.0000 0.55920  0.13950  0.04200  Biso   1.000  C
  H45      1.0000 0.96150  0.34080  0.98620  Biso   1.000  H
  H46      1.0000 0.53850  0.65920  0.48620  Biso   1.000  H
  H47      1.0000 0.03850  0.84080  0.51380  Biso   1.000  H
  H48      1.0000 0.46150  0.15920  0.01380  Biso   1.000  H
  C41      1.0000 0.99810  0.30130  0.91050  Biso   1.000  C
  C42      1.0000 0.50190  0.69870  0.41050  Biso   1.000  C
  C43      1.0000 0.00190  0.80130  0.58950  Biso   1.000  C
  C44      1.0000 0.49810  0.19870  0.08950  Biso   1.000  C
  H49      1.0000 0.85980  0.24180  0.90710  Biso   1.000  H
  H50      1.0000 0.64020  0.75820  0.40710  Biso   1.000  H
  H51      1.0000 0.14020  0.74180  0.59290  Biso   1.000  H
  H52      1.0000 0.35980  0.25820  0.09290  Biso   1.000  H
  C45      1.0000 0.14330  0.33140  0.86900  Biso   1.000  C
  C46      1.0000 0.35670  0.66860  0.36900  Biso   1.000  C
  C47      1.0000 0.85670  0.83140  0.63100  Biso   1.000  C
  C48      1.0000 0.64330  0.16860  0.13100  Biso   1.000  C
  H53      1.0000 0.09980  0.29340  0.83750  Biso   1.000  H
  H54      1.0000 0.40020  0.70660  0.33750  Biso   1.000  H
  H55      1.0000 0.90020  0.79340  0.66250  Biso   1.000  H
  H56      1.0000 0.59980  0.20660  0.16250  Biso   1.000  H
  O13      1.0000 0.94490  0.76320  0.95090  Biso   1.000  O
  O14      1.0000 0.55510  0.23680  0.45090  Biso   1.000  O
  O15      1.0000 0.05510  0.26320  0.54910  Biso   1.000  O
  O16      1.0000 0.44490  0.73680  0.04910  Biso   1.000  O
