data_image0
_cell_length_a       8.6374
_cell_length_b       13.1553
_cell_length_c       14.2243
_cell_angle_alpha    73.755
_cell_angle_beta     73.863
_cell_angle_gamma    84.226

_symmetry_space_group_name_H-M    "P 1"
_symmetry_int_tables_number       1

loop_
  _symmetry_equiv_pos_as_xyz
  'x, y, z'

loop_
  _atom_site_label
  _atom_site_occupancy
  _atom_site_fract_x
  _atom_site_fract_y
  _atom_site_fract_z
  _atom_site_thermal_displace_type
  _atom_site_B_iso_or_equiv
  _atom_site_type_symbol
  S1       1.0000 0.49721  0.89467  0.91493  Biso   1.000  S
  S2       1.0000 0.50279  0.10533  0.08507  Biso   1.000  S
  Cu1      1.0000 0.73657  0.44610  0.17008  Biso   1.000  Cu
  Cu2      1.0000 0.26343  0.55390  0.82992  Biso   1.000  Cu
  Cl1      1.0000 0.56174  0.37920  0.11470  Biso   1.000  Cl
  Cl2      1.0000 0.43826  0.62080  0.88530  Biso   1.000  Cl
  C1       1.0000 0.40570  0.01950  0.87880  Biso   1.000  C
  C2       1.0000 0.59430  0.98050  0.12120  Biso   1.000  C
  Cl3      1.0000 0.54781  0.54742  0.24664  Biso   1.000  Cl
  Cl4      1.0000 0.45219  0.45258  0.75336  Biso   1.000  Cl
  N1       1.0000 0.27190  0.03835  0.94172  Biso   1.000  N
  N2       1.0000 0.72810  0.96165  0.05828  Biso   1.000  N
  C3       1.0000 0.09780  0.94620  0.10890  Biso   1.000  C
  C4       1.0000 0.90220  0.05380  0.89110  Biso   1.000  C
  C5       1.0000 0.07430  0.85440  0.18620  Biso   1.000  C
  C6       1.0000 0.92570  0.14560  0.81380  Biso   1.000  C
  C7       1.0000 0.18210  0.76740  0.18434  Biso   1.000  C
  C8       1.0000 0.81790  0.23260  0.81566  Biso   1.000  C
  C9       1.0000 0.31900  0.77300  0.10350  Biso   1.000  C
  C10      1.0000 0.68100  0.22700  0.89650  Biso   1.000  C
  C11      1.0000 0.34170  0.86520  0.02530  Biso   1.000  C
  C12      1.0000 0.65830  0.13480  0.97470  Biso   1.000  C
  C13      1.0000 0.23370  0.95230  0.02610  Biso   1.000  C
  C14      1.0000 0.76630  0.04770  0.97390  Biso   1.000  C
  C15      1.0000 0.47850  0.09280  0.78070  Biso   1.000  C
  C16      1.0000 0.52150  0.90720  0.21930  Biso   1.000  C
  C17      1.0000 0.63220  0.07240  0.72410  Biso   1.000  C
  C18      1.0000 0.36780  0.92760  0.27590  Biso   1.000  C
  C19      1.0000 0.69820  0.13940  0.62950  Biso   1.000  C
  C20      1.0000 0.30180  0.86060  0.37050  Biso   1.000  C
  C21      1.0000 0.60830  0.22640  0.58910  Biso   1.000  C
  C22      1.0000 0.39170  0.77360  0.41090  Biso   1.000  C
  C23      1.0000 0.45670  0.24920  0.64630  Biso   1.000  C
  C24      1.0000 0.54330  0.75080  0.35370  Biso   1.000  C
  C25      1.0000 0.39210  0.18340  0.74200  Biso   1.000  C
  C26      1.0000 0.60790  0.81660  0.25800  Biso   1.000  C
  C27      1.0000 0.14800  0.66450  0.26700  Biso   1.000  C
  C28      1.0000 0.85200  0.33550  0.73300  Biso   1.000  C
  N3       1.0000 0.08980  0.58631  0.22896  Biso   1.000  N
  N4       1.0000 0.91020  0.41369  0.77104  Biso   1.000  N
  N5       1.0000 0.93240  0.58195  0.23796  Biso   1.000  N
  N6       1.0000 0.06760  0.41805  0.76204  Biso   1.000  N
  N7       1.0000 0.92020  0.51277  0.18938  Biso   1.000  N
  N8       1.0000 0.07980  0.48723  0.81062  Biso   1.000  N
  C29      1.0000 0.06880  0.47430  0.14907  Biso   1.000  C
  C30      1.0000 0.93120  0.52570  0.85093  Biso   1.000  C
  C31      1.0000 0.18010  0.52170  0.17465  Biso   1.000  C
  C32      1.0000 0.81990  0.47830  0.82535  Biso   1.000  C
  C33      1.0000 0.07530  0.39660  0.09231  Biso   1.000  C
  C34      1.0000 0.92470  0.60340  0.90769  Biso   1.000  C
  C35      1.0000 0.21690  0.35490  0.04070  Biso   1.000  C
  C36      1.0000 0.78310  0.64510  0.95930  Biso   1.000  C
  C37      1.0000 0.20650  0.28060  0.99030  Biso   1.000  C
  C38      1.0000 0.79350  0.71940  0.00970  Biso   1.000  C
  C39      1.0000 0.05510  0.25120  0.99270  Biso   1.000  C
  C40      1.0000 0.94490  0.74880  0.00730  Biso   1.000  C
  C41      1.0000 0.92020  0.29830  0.04310  Biso   1.000  C
  C42      1.0000 0.07980  0.70170  0.95690  Biso   1.000  C
  N9       1.0000 0.92770  0.36987  0.09261  Biso   1.000  N
  N10      1.0000 0.07230  0.63013  0.90739  Biso   1.000  N
  N11      1.0000 0.67160  0.29292  0.48943  Biso   1.000  N
  N12      1.0000 0.32840  0.70708  0.51057  Biso   1.000  N
  C43      1.0000 0.68890  0.40670  0.47670  Biso   1.000  C
  C44      1.0000 0.31110  0.59330  0.52330  Biso   1.000  C
  C45      1.0000 0.72870  0.25480  0.40660  Biso   1.000  C
  C46      1.0000 0.27130  0.74520  0.59340  Biso   1.000  C
  O1       1.0000 0.78770  0.30981  0.32214  Biso   1.000  O
  O2       1.0000 0.21230  0.69019  0.67786  Biso   1.000  O
  O3       1.0000 0.70710  0.15044  0.43036  Biso   1.000  O
  O4       1.0000 0.29290  0.84956  0.56964  Biso   1.000  O
  C47      1.0000 0.78740  0.08730  0.35860  Biso   1.000  C
  C48      1.0000 0.21260  0.91270  0.64140  Biso   1.000  C
  C49      1.0000 0.70930  0.11080  0.27240  Biso   1.000  C
  C50      1.0000 0.29070  0.88920  0.72760  Biso   1.000  C
  C51      1.0000 0.96710  0.10730  0.32210  Biso   1.000  C
  C52      1.0000 0.03290  0.89270  0.67790  Biso   1.000  C
  C53      1.0000 0.75330  0.97440  0.42470  Biso   1.000  C
  C54      1.0000 0.24670  0.02560  0.57530  Biso   1.000  C
  H1       1.0000 0.02460  0.00450  0.11190  Biso   1.000  H
  H2       1.0000 0.97540  0.99550  0.88810  Biso   1.000  H
  H3       1.0000 0.98280  0.84960  0.24370  Biso   1.000  H
  H4       1.0000 0.01720  0.15040  0.75630  Biso   1.000  H
  H5       1.0000 0.39460  0.71430  0.10260  Biso   1.000  H
  H6       1.0000 0.60540  0.28570  0.89740  Biso   1.000  H
  H7       1.0000 0.69400  0.01220  0.75110  Biso   1.000  H
  H8       1.0000 0.30600  0.98780  0.24890  Biso   1.000  H
  H9       1.0000 0.80460  0.12700  0.59250  Biso   1.000  H
  H10      1.0000 0.19540  0.87300  0.40750  Biso   1.000  H
  H11      1.0000 0.39700  0.30950  0.61930  Biso   1.000  H
  H12      1.0000 0.60300  0.69050  0.38070  Biso   1.000  H
  H13      1.0000 0.28920  0.20010  0.78070  Biso   1.000  H
  H14      1.0000 0.71080  0.79990  0.21930  Biso   1.000  H
  H15      1.0000 0.24620  0.63600  0.28650  Biso   1.000  H
  H16      1.0000 0.75380  0.36400  0.71350  Biso   1.000  H
  H17      1.0000 0.06550  0.67660  0.32530  Biso   1.000  H
  H18      1.0000 0.93450  0.32340  0.67470  Biso   1.000  H
  H19      1.0000 0.29250  0.51310  0.16010  Biso   1.000  H
  H20      1.0000 0.70750  0.48690  0.83990  Biso   1.000  H
  H21      1.0000 0.31740  0.37760  0.04000  Biso   1.000  H
  H22      1.0000 0.68260  0.62240  0.96000  Biso   1.000  H
  H23      1.0000 0.29970  0.24970  0.95460  Biso   1.000  H
  H24      1.0000 0.70030  0.75030  0.04540  Biso   1.000  H
  H25      1.0000 0.04390  0.20020  0.95990  Biso   1.000  H
  H26      1.0000 0.95610  0.79980  0.04010  Biso   1.000  H
  H27      1.0000 0.81710  0.28090  0.04270  Biso   1.000  H
  H28      1.0000 0.18290  0.71910  0.95730  Biso   1.000  H
  H29      1.0000 0.64930  0.44830  0.42170  Biso   1.000  H
  H30      1.0000 0.35070  0.55170  0.57830  Biso   1.000  H
  H31      1.0000 0.63000  0.42750  0.53700  Biso   1.000  H
  H32      1.0000 0.37000  0.57250  0.46300  Biso   1.000  H
  H33      1.0000 0.80100  0.42300  0.46550  Biso   1.000  H
  H34      1.0000 0.19900  0.57700  0.53450  Biso   1.000  H
  H35      1.0000 0.76190  0.06740  0.22660  Biso   1.000  H
  H36      1.0000 0.23810  0.93260  0.77340  Biso   1.000  H
  H37      1.0000 0.59700  0.09360  0.29890  Biso   1.000  H
  H38      1.0000 0.40300  0.90640  0.70110  Biso   1.000  H
  H39      1.0000 0.71960  0.18440  0.23620  Biso   1.000  H
  H40      1.0000 0.28040  0.81560  0.76380  Biso   1.000  H
  H41      1.0000 0.01950  0.05710  0.28600  Biso   1.000  H
  H42      1.0000 0.98050  0.94290  0.71400  Biso   1.000  H
  H43      1.0000 0.01200  0.09780  0.37940  Biso   1.000  H
  H44      1.0000 0.98800  0.90220  0.62060  Biso   1.000  H
  H45      1.0000 0.99030  0.17840  0.27840  Biso   1.000  H
  H46      1.0000 0.00970  0.82160  0.72160  Biso   1.000  H
  H47      1.0000 0.79250  0.96280  0.48380  Biso   1.000  H
  H48      1.0000 0.20750  0.03720  0.51620  Biso   1.000  H
  H49      1.0000 0.80640  0.92610  0.38550  Biso   1.000  H
  H50      1.0000 0.19360  0.07390  0.61450  Biso   1.000  H
  H51      1.0000 0.63760  0.96440  0.44450  Biso   1.000  H
  H52      1.0000 0.36240  0.03560  0.55550  Biso   1.000  H
  C55      1.0000 0.32530  0.28900  0.36510  Biso   1.000  C
  C56      1.0000 0.67470  0.71100  0.63490  Biso   1.000  C
  C57      1.0000 0.18120  0.29080  0.44320  Biso   1.000  C
  C58      1.0000 0.81880  0.70920  0.55680  Biso   1.000  C
  N13      1.0000 0.06480  0.28750  0.50480  Biso   1.000  N
  N14      1.0000 0.93520  0.71250  0.49520  Biso   1.000  N
  H53      1.0000 0.39410  0.23120  0.39080  Biso   1.000  H
  H54      1.0000 0.60590  0.76880  0.60920  Biso   1.000  H
  H55      1.0000 0.37740  0.35540  0.34570  Biso   1.000  H
  H56      1.0000 0.62260  0.64460  0.65430  Biso   1.000  H
  H57      1.0000 0.29560  0.27690  0.30770  Biso   1.000  H
  H58      1.0000 0.70440  0.72310  0.69230  Biso   1.000  H
