data_image0
_cell_length_a       29.57
_cell_length_b       17.221
_cell_length_c       12.542
_cell_angle_alpha    90
_cell_angle_beta     90
_cell_angle_gamma    90

_symmetry_space_group_name_H-M    "P 1"
_symmetry_int_tables_number       1

loop_
  _symmetry_equiv_pos_as_xyz
  'x, y, z'

loop_
  _atom_site_label
  _atom_site_occupancy
  _atom_site_fract_x
  _atom_site_fract_y
  _atom_site_fract_z
  _atom_site_thermal_displace_type
  _atom_site_B_iso_or_equiv
  _atom_site_type_symbol
  Pt1      1.0000 0.07311  0.22478  0.10665  Biso   1.000  Pt
  Pt2      1.0000 0.92689  0.77522  0.10665  Biso   1.000  Pt
  Pt3      1.0000 0.42689  0.72478  0.89335  Biso   1.000  Pt
  Pt4      1.0000 0.57311  0.27522  0.89335  Biso   1.000  Pt
  Pt5      1.0000 0.87660  0.14507  0.89610  Biso   1.000  Pt
  Pt6      1.0000 0.12340  0.85493  0.89610  Biso   1.000  Pt
  Pt7      1.0000 0.62340  0.64507  0.10390  Biso   1.000  Pt
  Pt8      1.0000 0.37660  0.35493  0.10390  Biso   1.000  Pt
  Cu1      1.0000 0.00000  0.00000  0.69766  Biso   1.000  Cu
  Cu2      1.0000 0.50000  0.50000  0.30234  Biso   1.000  Cu
  Cu3      1.0000 0.00000  0.00000  0.30675  Biso   1.000  Cu
  Cu4      1.0000 0.50000  0.50000  0.69325  Biso   1.000  Cu
  S1       1.0000 0.11067  0.16100  0.97420  Biso   1.000  S
  S2       1.0000 0.88933  0.83900  0.97420  Biso   1.000  S
  S3       1.0000 0.38933  0.66100  0.02580  Biso   1.000  S
  S4       1.0000 0.61067  0.33900  0.02580  Biso   1.000  S
  S5       1.0000 0.03136  0.25207  0.95670  Biso   1.000  S
  S6       1.0000 0.96864  0.74793  0.95670  Biso   1.000  S
  S7       1.0000 0.46864  0.75207  0.04330  Biso   1.000  S
  S8       1.0000 0.53136  0.24793  0.04330  Biso   1.000  S
  S9       1.0000 0.90918  0.20118  0.04310  Biso   1.000  S
  S10      1.0000 0.09082  0.79882  0.04310  Biso   1.000  S
  S11      1.0000 0.59082  0.70118  0.95690  Biso   1.000  S
  S12      1.0000 0.40918  0.29882  0.95690  Biso   1.000  S
  S13      1.0000 0.85850  0.06150  0.03140  Biso   1.000  S
  S14      1.0000 0.14150  0.93850  0.03140  Biso   1.000  S
  S15      1.0000 0.64150  0.56150  0.96860  Biso   1.000  S
  S16      1.0000 0.35850  0.43850  0.96860  Biso   1.000  S
  P1       1.0000 0.00000  0.00000  0.00150  Biso   1.000  P
  P2       1.0000 0.50000  0.50000  0.99850  Biso   1.000  P
  F1       1.0000 0.01210  0.90980  0.00270  Biso   1.000  F
  F2       1.0000 0.98790  0.09020  0.00270  Biso   1.000  F
  F3       1.0000 0.48790  0.40980  0.99730  Biso   1.000  F
  F4       1.0000 0.51210  0.59020  0.99730  Biso   1.000  F
  F5       1.0000 0.00000  0.00000  0.12190  Biso   1.000  F
  F6       1.0000 0.50000  0.50000  0.87810  Biso   1.000  F
  F7       1.0000 0.05150  0.01900  0.99830  Biso   1.000  F
  F8       1.0000 0.94850  0.98100  0.99830  Biso   1.000  F
  F9       1.0000 0.44850  0.51900  0.00170  Biso   1.000  F
  F10      1.0000 0.55150  0.48100  0.00170  Biso   1.000  F
  F11      1.0000 0.00000  0.00000  0.88250  Biso   1.000  F
  F12      1.0000 0.50000  0.50000  0.11750  Biso   1.000  F
  N1       1.0000 0.03550  0.28240  0.22360  Biso   1.000  N
  N2       1.0000 0.96450  0.71760  0.22360  Biso   1.000  N
  N3       1.0000 0.46450  0.78240  0.77640  Biso   1.000  N
  N4       1.0000 0.53550  0.21760  0.77640  Biso   1.000  N
  H1       1.0000 0.02840  0.33050  0.20080  Biso   1.000  H
  H2       1.0000 0.97160  0.66950  0.20080  Biso   1.000  H
  H3       1.0000 0.47160  0.83050  0.79920  Biso   1.000  H
  H4       1.0000 0.52840  0.16950  0.79920  Biso   1.000  H
  H5       1.0000 0.00960  0.25650  0.23580  Biso   1.000  H
  H6       1.0000 0.99040  0.74350  0.23580  Biso   1.000  H
  H7       1.0000 0.49040  0.75650  0.76420  Biso   1.000  H
  H8       1.0000 0.50960  0.24350  0.76420  Biso   1.000  H
  N5       1.0000 0.11050  0.18980  0.24070  Biso   1.000  N
  N6       1.0000 0.88950  0.81020  0.24070  Biso   1.000  N
  N7       1.0000 0.38950  0.68980  0.75930  Biso   1.000  N
  N8       1.0000 0.61050  0.31020  0.75930  Biso   1.000  N
  H9       1.0000 0.11630  0.13860  0.23660  Biso   1.000  H
  H10      1.0000 0.88370  0.86140  0.23660  Biso   1.000  H
  H11      1.0000 0.38370  0.63860  0.76340  Biso   1.000  H
  H12      1.0000 0.61630  0.36140  0.76340  Biso   1.000  H
  H13      1.0000 0.13700  0.21530  0.24230  Biso   1.000  H
  H14      1.0000 0.86300  0.78470  0.24230  Biso   1.000  H
  H15      1.0000 0.36300  0.71530  0.75770  Biso   1.000  H
  H16      1.0000 0.63700  0.28470  0.75770  Biso   1.000  H
  N9       1.0000 0.89530  0.22500  0.77730  Biso   1.000  N
  N10      1.0000 0.10470  0.77500  0.77730  Biso   1.000  N
  N11      1.0000 0.60470  0.72500  0.22270  Biso   1.000  N
  N12      1.0000 0.39530  0.27500  0.22270  Biso   1.000  N
  H17      1.0000 0.88850  0.27360  0.79840  Biso   1.000  H
  H18      1.0000 0.11150  0.72640  0.79840  Biso   1.000  H
  H19      1.0000 0.61150  0.77360  0.20160  Biso   1.000  H
  H20      1.0000 0.38850  0.22640  0.20160  Biso   1.000  H
  H21      1.0000 0.92530  0.22240  0.76560  Biso   1.000  H
  H22      1.0000 0.07470  0.77760  0.76560  Biso   1.000  H
  H23      1.0000 0.57470  0.72240  0.23440  Biso   1.000  H
  H24      1.0000 0.42530  0.27760  0.23440  Biso   1.000  H
  N13      1.0000 0.84980  0.08680  0.76560  Biso   1.000  N
  N14      1.0000 0.15020  0.91320  0.76560  Biso   1.000  N
  N15      1.0000 0.65020  0.58680  0.23440  Biso   1.000  N
  N16      1.0000 0.34980  0.41320  0.23440  Biso   1.000  N
  H25      1.0000 0.85670  0.03600  0.76950  Biso   1.000  H
  H26      1.0000 0.14330  0.96400  0.76950  Biso   1.000  H
  H27      1.0000 0.64330  0.53600  0.23050  Biso   1.000  H
  H28      1.0000 0.35670  0.46400  0.23050  Biso   1.000  H
  H29      1.0000 0.81950  0.09140  0.76540  Biso   1.000  H
  H30      1.0000 0.18050  0.90860  0.76540  Biso   1.000  H
  H31      1.0000 0.68050  0.59140  0.23460  Biso   1.000  H
  H32      1.0000 0.31950  0.40860  0.23460  Biso   1.000  H
  C1       1.0000 0.06350  0.17960  0.88740  Biso   1.000  C
  C2       1.0000 0.93650  0.82040  0.88740  Biso   1.000  C
  C3       1.0000 0.43650  0.67960  0.11260  Biso   1.000  C
  C4       1.0000 0.56350  0.32040  0.11260  Biso   1.000  C
  C5       1.0000 0.05310  0.14290  0.79720  Biso   1.000  C
  C6       1.0000 0.94690  0.85710  0.79720  Biso   1.000  C
  C7       1.0000 0.44690  0.64290  0.20280  Biso   1.000  C
  C8       1.0000 0.55310  0.35710  0.20280  Biso   1.000  C
  C9       1.0000 0.00720  0.16480  0.73900  Biso   1.000  C
  C10      1.0000 0.99280  0.83520  0.73900  Biso   1.000  C
  C11      1.0000 0.49280  0.66480  0.26100  Biso   1.000  C
  C12      1.0000 0.50720  0.33520  0.26100  Biso   1.000  C
  C13      1.0000 0.08250  0.07970  0.75060  Biso   1.000  C
  C14      1.0000 0.91750  0.92030  0.75060  Biso   1.000  C
  C15      1.0000 0.41750  0.57970  0.24940  Biso   1.000  C
  C16      1.0000 0.58250  0.42030  0.24940  Biso   1.000  C
  C17      1.0000 0.15260  0.23370  0.92370  Biso   1.000  C
  C18      1.0000 0.84740  0.76630  0.92370  Biso   1.000  C
  C19      1.0000 0.34740  0.73370  0.07630  Biso   1.000  C
  C20      1.0000 0.65260  0.26630  0.07630  Biso   1.000  C
  H33      1.0000 0.17640  0.23720  0.97670  Biso   1.000  H
  H34      1.0000 0.82360  0.76280  0.97670  Biso   1.000  H
  H35      1.0000 0.32360  0.73720  0.02330  Biso   1.000  H
  H36      1.0000 0.67640  0.26280  0.02330  Biso   1.000  H
  H37      1.0000 0.16620  0.21150  0.86030  Biso   1.000  H
  H38      1.0000 0.83380  0.78850  0.86030  Biso   1.000  H
  H39      1.0000 0.33380  0.71150  0.13970  Biso   1.000  H
  H40      1.0000 0.66620  0.28850  0.13970  Biso   1.000  H
  C21      1.0000 0.13990  0.31300  0.89700  Biso   1.000  C
  C22      1.0000 0.86010  0.68700  0.89700  Biso   1.000  C
  C23      1.0000 0.36010  0.81300  0.10300  Biso   1.000  C
  C24      1.0000 0.63990  0.18700  0.10300  Biso   1.000  C
  H41      1.0000 0.15210  0.34430  0.95430  Biso   1.000  H
  H42      1.0000 0.84790  0.65570  0.95430  Biso   1.000  H
  H43      1.0000 0.34790  0.84430  0.04570  Biso   1.000  H
  H44      1.0000 0.65210  0.15570  0.04570  Biso   1.000  H
  H45      1.0000 0.15790  0.32550  0.83450  Biso   1.000  H
  H46      1.0000 0.84210  0.67450  0.83450  Biso   1.000  H
  H47      1.0000 0.34210  0.82550  0.16550  Biso   1.000  H
  H48      1.0000 0.65790  0.17450  0.16550  Biso   1.000  H
  C25      1.0000 0.10180  0.34170  0.87800  Biso   1.000  C
  C26      1.0000 0.89820  0.65830  0.87800  Biso   1.000  C
  C27      1.0000 0.39820  0.84170  0.12200  Biso   1.000  C
  C28      1.0000 0.60180  0.15830  0.12200  Biso   1.000  C
  H49      1.0000 0.10150  0.33660  0.80120  Biso   1.000  H
  H50      1.0000 0.89850  0.66340  0.80120  Biso   1.000  H
  H51      1.0000 0.39850  0.83660  0.19880  Biso   1.000  H
  H52      1.0000 0.60150  0.16340  0.19880  Biso   1.000  H
  H53      1.0000 0.10890  0.39600  0.89000  Biso   1.000  H
  H54      1.0000 0.89110  0.60400  0.89000  Biso   1.000  H
  H55      1.0000 0.39110  0.89600  0.11000  Biso   1.000  H
  H56      1.0000 0.60890  0.10400  0.11000  Biso   1.000  H
  C29      1.0000 0.05210  0.34450  0.89780  Biso   1.000  C
  C30      1.0000 0.94790  0.65550  0.89780  Biso   1.000  C
  C31      1.0000 0.44790  0.84450  0.10220  Biso   1.000  C
  C32      1.0000 0.55210  0.15550  0.10220  Biso   1.000  C
  H57      1.0000 0.03660  0.35400  0.83100  Biso   1.000  H
  H58      1.0000 0.96340  0.64600  0.83100  Biso   1.000  H
  H59      1.0000 0.46340  0.85400  0.16900  Biso   1.000  H
  H60      1.0000 0.53660  0.14600  0.16900  Biso   1.000  H
  H61      1.0000 0.04530  0.38700  0.94580  Biso   1.000  H
  H62      1.0000 0.95470  0.61300  0.94580  Biso   1.000  H
  H63      1.0000 0.45470  0.88700  0.05420  Biso   1.000  H
  H64      1.0000 0.54530  0.11300  0.05420  Biso   1.000  H
  C33      1.0000 0.06280  0.28770  0.32660  Biso   1.000  C
  C34      1.0000 0.93720  0.71230  0.32660  Biso   1.000  C
  C35      1.0000 0.43720  0.78770  0.67340  Biso   1.000  C
  C36      1.0000 0.56280  0.21230  0.67340  Biso   1.000  C
  H65      1.0000 0.08690  0.32640  0.31800  Biso   1.000  H
  H66      1.0000 0.91310  0.67360  0.31800  Biso   1.000  H
  H67      1.0000 0.41310  0.82640  0.68200  Biso   1.000  H
  H68      1.0000 0.58690  0.17360  0.68200  Biso   1.000  H
  C37      1.0000 0.03350  0.30980  0.41960  Biso   1.000  C
  C38      1.0000 0.96650  0.69020  0.41960  Biso   1.000  C
  C39      1.0000 0.46650  0.80980  0.58040  Biso   1.000  C
  C40      1.0000 0.53350  0.19020  0.58040  Biso   1.000  C
  H69      1.0000 0.00740  0.27590  0.42320  Biso   1.000  H
  H70      1.0000 0.99260  0.72410  0.42320  Biso   1.000  H
  H71      1.0000 0.49260  0.77590  0.57680  Biso   1.000  H
  H72      1.0000 0.50740  0.22410  0.57680  Biso   1.000  H
  H73      1.0000 0.02290  0.36280  0.41140  Biso   1.000  H
  H74      1.0000 0.97710  0.63720  0.41140  Biso   1.000  H
  H75      1.0000 0.47710  0.86280  0.58860  Biso   1.000  H
  H76      1.0000 0.52290  0.13720  0.58860  Biso   1.000  H
  C41      1.0000 0.06230  0.30210  0.52420  Biso   1.000  C
  C42      1.0000 0.93770  0.69790  0.52420  Biso   1.000  C
  C43      1.0000 0.43770  0.80210  0.47580  Biso   1.000  C
  C44      1.0000 0.56230  0.19790  0.47580  Biso   1.000  C
  H77      1.0000 0.08580  0.34140  0.52350  Biso   1.000  H
  H78      1.0000 0.91420  0.65860  0.52350  Biso   1.000  H
  H79      1.0000 0.41420  0.84140  0.47650  Biso   1.000  H
  H80      1.0000 0.58580  0.15860  0.47650  Biso   1.000  H
  H81      1.0000 0.04290  0.31240  0.58510  Biso   1.000  H
  H82      1.0000 0.95710  0.68760  0.58510  Biso   1.000  H
  H83      1.0000 0.45710  0.81240  0.41490  Biso   1.000  H
  H84      1.0000 0.54290  0.18760  0.41490  Biso   1.000  H
  C45      1.0000 0.08330  0.22630  0.53800  Biso   1.000  C
  C46      1.0000 0.91670  0.77370  0.53800  Biso   1.000  C
  C47      1.0000 0.41670  0.72630  0.46200  Biso   1.000  C
  C48      1.0000 0.58330  0.27370  0.46200  Biso   1.000  C
  H85      1.0000 0.05980  0.18800  0.55030  Biso   1.000  H
  H86      1.0000 0.94020  0.81200  0.55030  Biso   1.000  H
  H87      1.0000 0.44020  0.68800  0.44970  Biso   1.000  H
  H88      1.0000 0.55980  0.31200  0.44970  Biso   1.000  H
  H89      1.0000 0.10250  0.22760  0.60070  Biso   1.000  H
  H90      1.0000 0.89750  0.77240  0.60070  Biso   1.000  H
  H91      1.0000 0.39750  0.72760  0.39930  Biso   1.000  H
  H92      1.0000 0.60250  0.27240  0.39930  Biso   1.000  H
  C49      1.0000 0.11240  0.20070  0.43860  Biso   1.000  C
  C50      1.0000 0.88760  0.79930  0.43860  Biso   1.000  C
  C51      1.0000 0.38760  0.70070  0.56140  Biso   1.000  C
  C52      1.0000 0.61240  0.29930  0.56140  Biso   1.000  C
  H93      1.0000 0.13880  0.23400  0.43210  Biso   1.000  H
  H94      1.0000 0.86120  0.76600  0.43210  Biso   1.000  H
  H95      1.0000 0.36120  0.73400  0.56790  Biso   1.000  H
  H96      1.0000 0.63880  0.26600  0.56790  Biso   1.000  H
  H97      1.0000 0.12270  0.14770  0.44780  Biso   1.000  H
  H98      1.0000 0.87730  0.85230  0.44780  Biso   1.000  H
  H99      1.0000 0.37730  0.64770  0.55220  Biso   1.000  H
  H100     1.0000 0.62270  0.35230  0.55220  Biso   1.000  H
  C53      1.0000 0.08410  0.20680  0.34120  Biso   1.000  C
  C54      1.0000 0.91590  0.79320  0.34120  Biso   1.000  C
  C55      1.0000 0.41590  0.70680  0.65880  Biso   1.000  C
  C56      1.0000 0.58410  0.29320  0.65880  Biso   1.000  C
  H101     1.0000 0.05960  0.16880  0.34680  Biso   1.000  H
  H102     1.0000 0.94040  0.83120  0.34680  Biso   1.000  H
  H103     1.0000 0.44040  0.66880  0.65320  Biso   1.000  H
  H104     1.0000 0.55960  0.33120  0.65320  Biso   1.000  H
  C57      1.0000 0.89750  0.11620  0.11720  Biso   1.000  C
  C58      1.0000 0.10250  0.88380  0.11720  Biso   1.000  C
  C59      1.0000 0.60250  0.61620  0.88280  Biso   1.000  C
  C60      1.0000 0.39750  0.38380  0.88280  Biso   1.000  C
  C61      1.0000 0.91770  0.09030  0.20780  Biso   1.000  C
  C62      1.0000 0.08230  0.90970  0.20780  Biso   1.000  C
  C63      1.0000 0.58230  0.59030  0.79220  Biso   1.000  C
  C64      1.0000 0.41770  0.40970  0.79220  Biso   1.000  C
  C65      1.0000 0.95130  0.14110  0.26160  Biso   1.000  C
  C66      1.0000 0.04870  0.85890  0.26160  Biso   1.000  C
  C67      1.0000 0.54870  0.64110  0.73840  Biso   1.000  C
  C68      1.0000 0.45130  0.35890  0.73840  Biso   1.000  C
  C69      1.0000 0.90520  0.00930  0.25460  Biso   1.000  C
  C70      1.0000 0.09480  0.99070  0.25460  Biso   1.000  C
  C71      1.0000 0.59480  0.50930  0.74540  Biso   1.000  C
  C72      1.0000 0.40520  0.49070  0.74540  Biso   1.000  C
  C73      1.0000 0.86780  0.26780  0.09800  Biso   1.000  C
  C74      1.0000 0.13220  0.73220  0.09800  Biso   1.000  C
  C75      1.0000 0.63220  0.76780  0.90200  Biso   1.000  C
  C76      1.0000 0.36780  0.23220  0.90200  Biso   1.000  C
  H105     1.0000 0.88370  0.30220  0.14630  Biso   1.000  H
  H106     1.0000 0.11630  0.69780  0.14630  Biso   1.000  H
  H107     1.0000 0.61630  0.80220  0.85370  Biso   1.000  H
  H108     1.0000 0.38370  0.19780  0.85370  Biso   1.000  H
  H109     1.0000 0.85680  0.29960  0.03960  Biso   1.000  H
  H110     1.0000 0.14320  0.70040  0.03960  Biso   1.000  H
  H111     1.0000 0.64320  0.79960  0.96040  Biso   1.000  H
  H112     1.0000 0.35680  0.20040  0.96040  Biso   1.000  H
  C77      1.0000 0.82880  0.23910  0.15400  Biso   1.000  C
  C78      1.0000 0.17120  0.76090  0.15400  Biso   1.000  C
  C79      1.0000 0.67120  0.73910  0.84600  Biso   1.000  C
  C80      1.0000 0.32880  0.26090  0.84600  Biso   1.000  C
  H113     1.0000 0.83860  0.20910  0.21500  Biso   1.000  H
  H114     1.0000 0.16140  0.79090  0.21500  Biso   1.000  H
  H115     1.0000 0.66140  0.70910  0.78500  Biso   1.000  H
  H116     1.0000 0.33860  0.29090  0.78500  Biso   1.000  H
  H117     1.0000 0.81100  0.28260  0.17940  Biso   1.000  H
  H118     1.0000 0.18900  0.71740  0.17940  Biso   1.000  H
  H119     1.0000 0.68900  0.78260  0.82060  Biso   1.000  H
  H120     1.0000 0.31100  0.21740  0.82060  Biso   1.000  H
  C81      1.0000 0.80250  0.19300  0.08900  Biso   1.000  C
  C82      1.0000 0.19750  0.80700  0.08900  Biso   1.000  C
  C83      1.0000 0.69750  0.69300  0.91100  Biso   1.000  C
  C84      1.0000 0.30250  0.30700  0.91100  Biso   1.000  C
  H121     1.0000 0.80800  0.21110  0.01640  Biso   1.000  H
  H122     1.0000 0.19200  0.78890  0.01640  Biso   1.000  H
  H123     1.0000 0.69200  0.71110  0.98360  Biso   1.000  H
  H124     1.0000 0.30800  0.28890  0.98360  Biso   1.000  H
  H125     1.0000 0.77140  0.20640  0.10490  Biso   1.000  H
  H126     1.0000 0.22860  0.79360  0.10490  Biso   1.000  H
  H127     1.0000 0.72860  0.70640  0.89510  Biso   1.000  H
  H128     1.0000 0.27140  0.29360  0.89510  Biso   1.000  H
  C85      1.0000 0.80470  0.09350  0.08370  Biso   1.000  C
  C86      1.0000 0.19530  0.90650  0.08370  Biso   1.000  C
  C87      1.0000 0.69530  0.59350  0.91630  Biso   1.000  C
  C88      1.0000 0.30470  0.40650  0.91630  Biso   1.000  C
  H129     1.0000 0.78050  0.07420  0.03870  Biso   1.000  H
  H130     1.0000 0.21950  0.92580  0.03870  Biso   1.000  H
  H131     1.0000 0.71950  0.57420  0.96130  Biso   1.000  H
  H132     1.0000 0.28050  0.42580  0.96130  Biso   1.000  H
  H133     1.0000 0.80040  0.07250  0.15470  Biso   1.000  H
  H134     1.0000 0.19960  0.92750  0.15470  Biso   1.000  H
  H135     1.0000 0.69960  0.57250  0.84530  Biso   1.000  H
  H136     1.0000 0.30040  0.42750  0.84530  Biso   1.000  H
  C89      1.0000 0.87080  0.20650  0.67890  Biso   1.000  C
  C90      1.0000 0.12920  0.79350  0.67890  Biso   1.000  C
  C91      1.0000 0.62920  0.70650  0.32110  Biso   1.000  C
  C92      1.0000 0.37080  0.29350  0.32110  Biso   1.000  C
  H137     1.0000 0.83970  0.22520  0.68710  Biso   1.000  H
  H138     1.0000 0.16030  0.77480  0.68710  Biso   1.000  H
  H139     1.0000 0.66030  0.72520  0.31290  Biso   1.000  H
  H140     1.0000 0.33970  0.27480  0.31290  Biso   1.000  H
  C93      1.0000 0.89030  0.24410  0.57960  Biso   1.000  C
  C94      1.0000 0.10970  0.75590  0.57960  Biso   1.000  C
  C95      1.0000 0.60970  0.74410  0.42040  Biso   1.000  C
  C96      1.0000 0.39030  0.25590  0.42040  Biso   1.000  C
  H141     1.0000 0.92220  0.23120  0.57390  Biso   1.000  H
  H142     1.0000 0.07780  0.76880  0.57390  Biso   1.000  H
  H143     1.0000 0.57780  0.73120  0.42610  Biso   1.000  H
  H144     1.0000 0.42220  0.26880  0.42610  Biso   1.000  H
  H145     1.0000 0.88780  0.30010  0.58560  Biso   1.000  H
  H146     1.0000 0.11220  0.69990  0.58560  Biso   1.000  H
  H147     1.0000 0.61220  0.80010  0.41440  Biso   1.000  H
  H148     1.0000 0.38780  0.19990  0.41440  Biso   1.000  H
  C97      1.0000 0.86490  0.21600  0.47540  Biso   1.000  C
  C98      1.0000 0.13510  0.78400  0.47540  Biso   1.000  C
  C99      1.0000 0.63510  0.71600  0.52460  Biso   1.000  C
  C100     1.0000 0.36490  0.28400  0.52460  Biso   1.000  C
  H149     1.0000 0.83390  0.23430  0.47800  Biso   1.000  H
  H150     1.0000 0.16610  0.76570  0.47800  Biso   1.000  H
  H151     1.0000 0.66610  0.73430  0.52200  Biso   1.000  H
  H152     1.0000 0.33390  0.26570  0.52200  Biso   1.000  H
  H153     1.0000 0.87920  0.23950  0.41380  Biso   1.000  H
  H154     1.0000 0.12080  0.76050  0.41380  Biso   1.000  H
  H155     1.0000 0.62080  0.73950  0.58620  Biso   1.000  H
  H156     1.0000 0.37920  0.26050  0.58620  Biso   1.000  H
  C101     1.0000 0.86460  0.13560  0.46230  Biso   1.000  C
  C102     1.0000 0.13540  0.86440  0.46230  Biso   1.000  C
  C103     1.0000 0.63540  0.63560  0.53770  Biso   1.000  C
  C104     1.0000 0.36460  0.36440  0.53770  Biso   1.000  C
  H157     1.0000 0.89540  0.11750  0.45210  Biso   1.000  H
  H158     1.0000 0.10460  0.88250  0.45210  Biso   1.000  H
  H159     1.0000 0.60460  0.61750  0.54790  Biso   1.000  H
  H160     1.0000 0.39540  0.38250  0.54790  Biso   1.000  H
  H161     1.0000 0.84740  0.12240  0.39900  Biso   1.000  H
  H162     1.0000 0.15260  0.87760  0.39900  Biso   1.000  H
  H163     1.0000 0.65260  0.62240  0.60100  Biso   1.000  H
  H164     1.0000 0.34740  0.37760  0.60100  Biso   1.000  H
  C105     1.0000 0.84260  0.09160  0.56560  Biso   1.000  C
  C106     1.0000 0.15740  0.90840  0.56560  Biso   1.000  C
  C107     1.0000 0.65740  0.59160  0.43440  Biso   1.000  C
  C108     1.0000 0.34260  0.40840  0.43440  Biso   1.000  C
  H165     1.0000 0.81070  0.10410  0.57190  Biso   1.000  H
  H166     1.0000 0.18930  0.89590  0.57190  Biso   1.000  H
  H167     1.0000 0.68930  0.60410  0.42810  Biso   1.000  H
  H168     1.0000 0.31070  0.39590  0.42810  Biso   1.000  H
  H169     1.0000 0.84560  0.03570  0.55850  Biso   1.000  H
  H170     1.0000 0.15440  0.96430  0.55850  Biso   1.000  H
  H171     1.0000 0.65440  0.53570  0.44150  Biso   1.000  H
  H172     1.0000 0.34560  0.46430  0.44150  Biso   1.000  H
  C109     1.0000 0.86890  0.12100  0.66530  Biso   1.000  C
  C110     1.0000 0.13110  0.87900  0.66530  Biso   1.000  C
  C111     1.0000 0.63110  0.62100  0.33470  Biso   1.000  C
  C112     1.0000 0.36890  0.37900  0.33470  Biso   1.000  C
  H173     1.0000 0.90020  0.10240  0.65880  Biso   1.000  H
  H174     1.0000 0.09980  0.89760  0.65880  Biso   1.000  H
  H175     1.0000 0.59980  0.60240  0.34120  Biso   1.000  H
  H176     1.0000 0.40020  0.39760  0.34120  Biso   1.000  H
  O1       1.0000 0.06330  0.02360  0.70000  Biso   1.000  O
  O2       1.0000 0.93670  0.97640  0.70000  Biso   1.000  O
  O3       1.0000 0.43670  0.52360  0.30000  Biso   1.000  O
  O4       1.0000 0.56330  0.47640  0.30000  Biso   1.000  O
  O5       1.0000 0.12340  0.08380  0.77010  Biso   1.000  O
  O6       1.0000 0.87660  0.91620  0.77010  Biso   1.000  O
  O7       1.0000 0.37660  0.58380  0.22990  Biso   1.000  O
  O8       1.0000 0.62340  0.41620  0.22990  Biso   1.000  O
  O9       1.0000 0.98540  0.11120  0.69310  Biso   1.000  O
  O10      1.0000 0.01460  0.88880  0.69310  Biso   1.000  O
  O11      1.0000 0.51460  0.61120  0.30690  Biso   1.000  O
  O12      1.0000 0.48540  0.38880  0.30690  Biso   1.000  O
  O13      1.0000 0.99460  0.23310  0.74560  Biso   1.000  O
  O14      1.0000 0.00540  0.76690  0.74560  Biso   1.000  O
  O15      1.0000 0.50540  0.73310  0.25440  Biso   1.000  O
  O16      1.0000 0.49460  0.26690  0.25440  Biso   1.000  O
  O17      1.0000 0.98450  0.10960  0.30900  Biso   1.000  O
  O18      1.0000 0.01550  0.89040  0.30900  Biso   1.000  O
  O19      1.0000 0.51550  0.60960  0.69100  Biso   1.000  O
  O20      1.0000 0.48450  0.39040  0.69100  Biso   1.000  O
  O21      1.0000 0.94670  0.21370  0.25280  Biso   1.000  O
  O22      1.0000 0.05330  0.78630  0.25280  Biso   1.000  O
  O23      1.0000 0.55330  0.71370  0.74720  Biso   1.000  O
  O24      1.0000 0.44670  0.28630  0.74720  Biso   1.000  O
  O25      1.0000 0.86660  0.98450  0.23860  Biso   1.000  O
  O26      1.0000 0.13340  0.01550  0.23860  Biso   1.000  O
  O27      1.0000 0.63340  0.48450  0.76140  Biso   1.000  O
  O28      1.0000 0.36660  0.51550  0.76140  Biso   1.000  O
  O29      1.0000 0.93590  0.97390  0.30380  Biso   1.000  O
  O30      1.0000 0.06410  0.02610  0.30380  Biso   1.000  O
  O31      1.0000 0.56410  0.47390  0.69620  Biso   1.000  O
  O32      1.0000 0.43590  0.52610  0.69620  Biso   1.000  O
  P3       1.0000 0.21960  0.33500  0.21530  Biso   1.000  P
  P4       1.0000 0.78040  0.66500  0.21530  Biso   1.000  P
  P5       1.0000 0.28040  0.83500  0.78470  Biso   1.000  P
  P6       1.0000 0.71960  0.16500  0.78470  Biso   1.000  P
  F13      1.0000 0.26940  0.29930  0.20900  Biso   1.000  F
  F14      1.0000 0.73060  0.70070  0.20900  Biso   1.000  F
  F15      1.0000 0.23060  0.79930  0.79100  Biso   1.000  F
  F16      1.0000 0.76940  0.20070  0.79100  Biso   1.000  F
  F17      1.0000 0.23620  0.41080  0.26200  Biso   1.000  F
  F18      1.0000 0.76380  0.58920  0.26200  Biso   1.000  F
  F19      1.0000 0.26380  0.91080  0.73800  Biso   1.000  F
  F20      1.0000 0.73620  0.08920  0.73800  Biso   1.000  F
  F21      1.0000 0.21280  0.38100  0.09500  Biso   1.000  F
  F22      1.0000 0.78720  0.61900  0.09500  Biso   1.000  F
  F23      1.0000 0.28720  0.88100  0.90500  Biso   1.000  F
  F24      1.0000 0.71280  0.11900  0.90500  Biso   1.000  F
  F25      1.0000 0.21810  0.29230  0.32100  Biso   1.000  F
  F26      1.0000 0.78190  0.70770  0.32100  Biso   1.000  F
  F27      1.0000 0.28190  0.79230  0.67900  Biso   1.000  F
  F28      1.0000 0.71810  0.20770  0.67900  Biso   1.000  F
  F29      1.0000 0.19820  0.26060  0.17800  Biso   1.000  F
  F30      1.0000 0.80180  0.73940  0.17800  Biso   1.000  F
  F31      1.0000 0.30180  0.76060  0.82200  Biso   1.000  F
  F32      1.0000 0.69820  0.23940  0.82200  Biso   1.000  F
  F33      1.0000 0.17440  0.35370  0.24000  Biso   1.000  F
  F34      1.0000 0.82560  0.64630  0.24000  Biso   1.000  F
  F35      1.0000 0.32560  0.85370  0.76000  Biso   1.000  F
  F36      1.0000 0.67440  0.14630  0.76000  Biso   1.000  F
  P7       1.0000 0.00000  0.50000  0.13190  Biso   1.000  P
  P8       1.0000 0.50000  0.00000  0.86810  Biso   1.000  P
  F37      1.0000 0.00000  0.50000  0.01300  Biso   1.000  F
  F38      1.0000 0.50000  0.00000  0.98700  Biso   1.000  F
  F39      1.0000 0.04310  0.44930  0.13140  Biso   1.000  F
  F40      1.0000 0.95690  0.55070  0.13140  Biso   1.000  F
  F41      1.0000 0.45690  0.94930  0.86860  Biso   1.000  F
  F42      1.0000 0.54310  0.05070  0.86860  Biso   1.000  F
  F43      1.0000 0.00000  0.50000  0.26100  Biso   1.000  F
  F44      1.0000 0.50000  0.00000  0.73900  Biso   1.000  F
  F45      1.0000 0.02850  0.58790  0.12500  Biso   1.000  F
  F46      1.0000 0.97150  0.41210  0.12500  Biso   1.000  F
  F47      1.0000 0.47150  0.08790  0.87500  Biso   1.000  F
  F48      1.0000 0.52850  0.91210  0.87500  Biso   1.000  F
  O33      1.0000 0.00000  0.00000  0.51050  Biso   1.000  O
  O34      1.0000 0.50000  0.50000  0.48950  Biso   1.000  O
  O35      1.0000 0.12030  0.62160  0.84700  Biso   1.000  O
  O36      1.0000 0.87970  0.37840  0.84700  Biso   1.000  O
  O37      1.0000 0.37970  0.12160  0.15300  Biso   1.000  O
  O38      1.0000 0.62030  0.87840  0.15300  Biso   1.000  O
