data_image0
_cell_length_a       16.715
_cell_length_b       18.954
_cell_length_c       13.364
_cell_angle_alpha    90
_cell_angle_beta     126.52
_cell_angle_gamma    90

_symmetry_space_group_name_H-M    "P 1"
_symmetry_int_tables_number       1

loop_
  _symmetry_equiv_pos_as_xyz
  'x, y, z'

loop_
  _atom_site_label
  _atom_site_occupancy
  _atom_site_fract_x
  _atom_site_fract_y
  _atom_site_fract_z
  _atom_site_thermal_displace_type
  _atom_site_B_iso_or_equiv
  _atom_site_type_symbol
  Cu1      1.0000 0.25000  0.25000  0.50000  Biso   1.000  Cu
  Cu2      1.0000 0.75000  0.75000  0.50000  Biso   1.000  Cu
  Cu3      1.0000 0.75000  0.25000  0.00000  Biso   1.000  Cu
  Cu4      1.0000 0.25000  0.75000  0.00000  Biso   1.000  Cu
  F1       1.0000 0.42930  0.05610  0.54100  Biso   1.000  F
  F2       1.0000 0.92930  0.55610  0.54100  Biso   1.000  F
  F3       1.0000 0.57070  0.05610  0.95900  Biso   1.000  F
  F4       1.0000 0.07070  0.55610  0.95900  Biso   1.000  F
  F5       1.0000 0.57070  0.94390  0.45900  Biso   1.000  F
  F6       1.0000 0.07070  0.44390  0.45900  Biso   1.000  F
  F7       1.0000 0.42930  0.94390  0.04100  Biso   1.000  F
  F8       1.0000 0.92930  0.44390  0.04100  Biso   1.000  F
  F9       1.0000 0.51430  0.10020  0.49050  Biso   1.000  F
  F10      1.0000 0.01430  0.60020  0.49050  Biso   1.000  F
  F11      1.0000 0.48570  0.10020  0.00950  Biso   1.000  F
  F12      1.0000 0.98570  0.60020  0.00950  Biso   1.000  F
  F13      1.0000 0.48570  0.89980  0.50950  Biso   1.000  F
  F14      1.0000 0.98570  0.39980  0.50950  Biso   1.000  F
  F15      1.0000 0.51430  0.89980  0.99050  Biso   1.000  F
  F16      1.0000 0.01430  0.39980  0.99050  Biso   1.000  F
  F17      1.0000 0.55050  0.12190  0.66610  Biso   1.000  F
  F18      1.0000 0.05050  0.62190  0.66610  Biso   1.000  F
  F19      1.0000 0.44950  0.12190  0.83390  Biso   1.000  F
  F20      1.0000 0.94950  0.62190  0.83390  Biso   1.000  F
  F21      1.0000 0.44950  0.87810  0.33390  Biso   1.000  F
  F22      1.0000 0.94950  0.37810  0.33390  Biso   1.000  F
  F23      1.0000 0.55050  0.87810  0.16610  Biso   1.000  F
  F24      1.0000 0.05050  0.37810  0.16610  Biso   1.000  F
  F25      1.0000 0.31720  0.36840  0.22880  Biso   1.000  F
  F26      1.0000 0.81720  0.86840  0.22880  Biso   1.000  F
  F27      1.0000 0.68280  0.36840  0.27120  Biso   1.000  F
  F28      1.0000 0.18280  0.86840  0.27120  Biso   1.000  F
  F29      1.0000 0.68280  0.63160  0.77120  Biso   1.000  F
  F30      1.0000 0.18280  0.13160  0.77120  Biso   1.000  F
  F31      1.0000 0.31720  0.63160  0.72880  Biso   1.000  F
  F32      1.0000 0.81720  0.13160  0.72880  Biso   1.000  F
  F33      1.0000 0.21870  0.28700  0.12810  Biso   1.000  F
  F34      1.0000 0.71870  0.78700  0.12810  Biso   1.000  F
  F35      1.0000 0.78130  0.28700  0.37190  Biso   1.000  F
  F36      1.0000 0.28130  0.78700  0.37190  Biso   1.000  F
  F37      1.0000 0.78130  0.71300  0.87190  Biso   1.000  F
  F38      1.0000 0.28130  0.21300  0.87190  Biso   1.000  F
  F39      1.0000 0.21870  0.71300  0.62810  Biso   1.000  F
  F40      1.0000 0.71870  0.21300  0.62810  Biso   1.000  F
  F41      1.0000 0.36170  0.27320  0.19560  Biso   1.000  F
  F42      1.0000 0.86170  0.77320  0.19560  Biso   1.000  F
  F43      1.0000 0.63830  0.27320  0.30440  Biso   1.000  F
  F44      1.0000 0.13830  0.77320  0.30440  Biso   1.000  F
  F45      1.0000 0.63830  0.72680  0.80440  Biso   1.000  F
  F46      1.0000 0.13830  0.22680  0.80440  Biso   1.000  F
  F47      1.0000 0.36170  0.72680  0.69560  Biso   1.000  F
  F48      1.0000 0.86170  0.22680  0.69560  Biso   1.000  F
  O1       1.0000 0.37610  0.19260  0.56350  Biso   1.000  O
  O2       1.0000 0.87610  0.69260  0.56350  Biso   1.000  O
  O3       1.0000 0.62390  0.19260  0.93650  Biso   1.000  O
  O4       1.0000 0.12390  0.69260  0.93650  Biso   1.000  O
  O5       1.0000 0.62390  0.80740  0.43650  Biso   1.000  O
  O6       1.0000 0.12390  0.30740  0.43650  Biso   1.000  O
  O7       1.0000 0.37610  0.80740  0.06350  Biso   1.000  O
  O8       1.0000 0.87610  0.30740  0.06350  Biso   1.000  O
  O9       1.0000 0.28190  0.30400  0.37810  Biso   1.000  O
  O10      1.0000 0.78190  0.80400  0.37810  Biso   1.000  O
  O11      1.0000 0.71810  0.30400  0.12190  Biso   1.000  O
  O12      1.0000 0.21810  0.80400  0.12190  Biso   1.000  O
  O13      1.0000 0.71810  0.69600  0.62190  Biso   1.000  O
  O14      1.0000 0.21810  0.19600  0.62190  Biso   1.000  O
  O15      1.0000 0.28190  0.69600  0.87810  Biso   1.000  O
  O16      1.0000 0.78190  0.19600  0.87810  Biso   1.000  O
  N1       1.0000 0.16900  0.17770  0.36420  Biso   1.000  N
  N2       1.0000 0.66900  0.67770  0.36420  Biso   1.000  N
  N3       1.0000 0.83100  0.17770  0.13580  Biso   1.000  N
  N4       1.0000 0.33100  0.67770  0.13580  Biso   1.000  N
  N5       1.0000 0.83100  0.82230  0.63580  Biso   1.000  N
  N6       1.0000 0.33100  0.32230  0.63580  Biso   1.000  N
  N7       1.0000 0.16900  0.82230  0.86420  Biso   1.000  N
  N8       1.0000 0.66900  0.32230  0.86420  Biso   1.000  N
  N9       1.0000 0.84750  0.91760  0.98160  Biso   1.000  N
  N10      1.0000 0.34750  0.41760  0.98160  Biso   1.000  N
  N11      1.0000 0.15250  0.91760  0.51840  Biso   1.000  N
  N12      1.0000 0.65250  0.41760  0.51840  Biso   1.000  N
  N13      1.0000 0.15250  0.08240  0.01840  Biso   1.000  N
  N14      1.0000 0.65250  0.58240  0.01840  Biso   1.000  N
  N15      1.0000 0.84750  0.08240  0.48160  Biso   1.000  N
  N16      1.0000 0.34750  0.58240  0.48160  Biso   1.000  N
  C1       1.0000 0.09980  0.19680  0.24660  Biso   1.000  C
  C2       1.0000 0.59980  0.69680  0.24660  Biso   1.000  C
  C3       1.0000 0.90020  0.19680  0.25340  Biso   1.000  C
  C4       1.0000 0.40020  0.69680  0.25340  Biso   1.000  C
  C5       1.0000 0.90020  0.80320  0.75340  Biso   1.000  C
  C6       1.0000 0.40020  0.30320  0.75340  Biso   1.000  C
  C7       1.0000 0.09980  0.80320  0.74660  Biso   1.000  C
  C8       1.0000 0.59980  0.30320  0.74660  Biso   1.000  C
  H1       1.0000 0.08660  0.24570  0.22800  Biso   1.000  H
  H2       1.0000 0.58660  0.74570  0.22800  Biso   1.000  H
  H3       1.0000 0.91340  0.24570  0.27200  Biso   1.000  H
  H4       1.0000 0.41340  0.74570  0.27200  Biso   1.000  H
  H5       1.0000 0.91340  0.75430  0.77200  Biso   1.000  H
  H6       1.0000 0.41340  0.25430  0.77200  Biso   1.000  H
  H7       1.0000 0.08660  0.75430  0.72800  Biso   1.000  H
  H8       1.0000 0.58660  0.25430  0.72800  Biso   1.000  H
  C9       1.0000 0.04660  0.14870  0.15060  Biso   1.000  C
  C10      1.0000 0.54660  0.64870  0.15060  Biso   1.000  C
  C11      1.0000 0.95340  0.14870  0.34940  Biso   1.000  C
  C12      1.0000 0.45340  0.64870  0.34940  Biso   1.000  C
  C13      1.0000 0.95340  0.85130  0.84940  Biso   1.000  C
  C14      1.0000 0.45340  0.35130  0.84940  Biso   1.000  C
  C15      1.0000 0.04660  0.85130  0.65060  Biso   1.000  C
  C16      1.0000 0.54660  0.35130  0.65060  Biso   1.000  C
  H9       1.0000 0.99790  0.16500  0.06830  Biso   1.000  H
  H10      1.0000 0.49790  0.66500  0.06830  Biso   1.000  H
  H11      1.0000 0.00210  0.16500  0.43170  Biso   1.000  H
  H12      1.0000 0.50210  0.66500  0.43170  Biso   1.000  H
  H13      1.0000 0.00210  0.83500  0.93170  Biso   1.000  H
  H14      1.0000 0.50210  0.33500  0.93170  Biso   1.000  H
  H15      1.0000 0.99790  0.83500  0.56830  Biso   1.000  H
  H16      1.0000 0.49790  0.33500  0.56830  Biso   1.000  H
  C17      1.0000 0.06360  0.07700  0.17350  Biso   1.000  C
  C18      1.0000 0.56360  0.57700  0.17350  Biso   1.000  C
  C19      1.0000 0.93640  0.07700  0.32650  Biso   1.000  C
  C20      1.0000 0.43640  0.57700  0.32650  Biso   1.000  C
  C21      1.0000 0.93640  0.92300  0.82650  Biso   1.000  C
  C22      1.0000 0.43640  0.42300  0.82650  Biso   1.000  C
  C23      1.0000 0.06360  0.92300  0.67350  Biso   1.000  C
  C24      1.0000 0.56360  0.42300  0.67350  Biso   1.000  C
  C25      1.0000 0.13420  0.05860  0.29520  Biso   1.000  C
  C26      1.0000 0.63420  0.55860  0.29520  Biso   1.000  C
  C27      1.0000 0.86580  0.05860  0.20480  Biso   1.000  C
  C28      1.0000 0.36580  0.55860  0.20480  Biso   1.000  C
  C29      1.0000 0.86580  0.94140  0.70480  Biso   1.000  C
  C30      1.0000 0.36580  0.44140  0.70480  Biso   1.000  C
  C31      1.0000 0.13420  0.94140  0.79520  Biso   1.000  C
  C32      1.0000 0.63420  0.44140  0.79520  Biso   1.000  C
  H17      1.0000 0.14810  0.01010  0.31650  Biso   1.000  H
  H18      1.0000 0.64810  0.51010  0.31650  Biso   1.000  H
  H19      1.0000 0.85190  0.01010  0.18350  Biso   1.000  H
  H20      1.0000 0.35190  0.51010  0.18350  Biso   1.000  H
  H21      1.0000 0.85190  0.98990  0.68350  Biso   1.000  H
  H22      1.0000 0.35190  0.48990  0.68350  Biso   1.000  H
  H23      1.0000 0.14810  0.98990  0.81650  Biso   1.000  H
  H24      1.0000 0.64810  0.48990  0.81650  Biso   1.000  H
  C33      1.0000 0.18480  0.10790  0.38640  Biso   1.000  C
  C34      1.0000 0.68480  0.60790  0.38640  Biso   1.000  C
  C35      1.0000 0.81520  0.10790  0.11360  Biso   1.000  C
  C36      1.0000 0.31520  0.60790  0.11360  Biso   1.000  C
  C37      1.0000 0.81520  0.89210  0.61360  Biso   1.000  C
  C38      1.0000 0.31520  0.39210  0.61360  Biso   1.000  C
  C39      1.0000 0.18480  0.89210  0.88640  Biso   1.000  C
  C40      1.0000 0.68480  0.39210  0.88640  Biso   1.000  C
  H25      1.0000 0.23340  0.09250  0.46940  Biso   1.000  H
  H26      1.0000 0.73340  0.59250  0.46940  Biso   1.000  H
  H27      1.0000 0.76660  0.09250  0.03060  Biso   1.000  H
  H28      1.0000 0.26660  0.59250  0.03060  Biso   1.000  H
  H29      1.0000 0.76660  0.90750  0.53060  Biso   1.000  H
  H30      1.0000 0.26660  0.40750  0.53060  Biso   1.000  H
  H31      1.0000 0.23340  0.90750  0.96940  Biso   1.000  H
  H32      1.0000 0.73340  0.40750  0.96940  Biso   1.000  H
  C41      1.0000 0.83640  0.97660  0.93420  Biso   1.000  C
  C42      1.0000 0.33640  0.47660  0.93420  Biso   1.000  C
  C43      1.0000 0.16360  0.97660  0.56580  Biso   1.000  C
  C44      1.0000 0.66360  0.47660  0.56580  Biso   1.000  C
  C45      1.0000 0.16360  0.02340  0.06580  Biso   1.000  C
  C46      1.0000 0.66360  0.52340  0.06580  Biso   1.000  C
  C47      1.0000 0.83640  0.02340  0.43420  Biso   1.000  C
  C48      1.0000 0.33640  0.52340  0.43420  Biso   1.000  C
  C49      1.0000 0.75160  0.00460  0.84720  Biso   1.000  C
  C50      1.0000 0.25160  0.50460  0.84720  Biso   1.000  C
  C51      1.0000 0.24840  0.00460  0.65280  Biso   1.000  C
  C52      1.0000 0.74840  0.50460  0.65280  Biso   1.000  C
  C53      1.0000 0.24840  0.99540  0.15280  Biso   1.000  C
  C54      1.0000 0.74840  0.49540  0.15280  Biso   1.000  C
  C55      1.0000 0.75160  0.99540  0.34720  Biso   1.000  C
  C56      1.0000 0.25160  0.49540  0.34720  Biso   1.000  C
  H33      1.0000 0.74730  0.04700  0.80630  Biso   1.000  H
  H34      1.0000 0.24730  0.54700  0.80630  Biso   1.000  H
  H35      1.0000 0.25270  0.04700  0.69370  Biso   1.000  H
  H36      1.0000 0.75270  0.54700  0.69370  Biso   1.000  H
  H37      1.0000 0.25270  0.95300  0.19370  Biso   1.000  H
  H38      1.0000 0.75270  0.45300  0.19370  Biso   1.000  H
  H39      1.0000 0.74730  0.95300  0.30630  Biso   1.000  H
  H40      1.0000 0.24730  0.45300  0.30630  Biso   1.000  H
  C57      1.0000 0.65970  0.96580  0.81470  Biso   1.000  C
  C58      1.0000 0.15970  0.46580  0.81470  Biso   1.000  C
  C59      1.0000 0.34030  0.96580  0.68530  Biso   1.000  C
  C60      1.0000 0.84030  0.46580  0.68530  Biso   1.000  C
  C61      1.0000 0.34030  0.03420  0.18530  Biso   1.000  C
  C62      1.0000 0.84030  0.53420  0.18530  Biso   1.000  C
  C63      1.0000 0.65970  0.03420  0.31470  Biso   1.000  C
  C64      1.0000 0.15970  0.53420  0.31470  Biso   1.000  C
  H41      1.0000 0.59400  0.98270  0.75530  Biso   1.000  H
  H42      1.0000 0.09400  0.48270  0.75530  Biso   1.000  H
  H43      1.0000 0.40600  0.98270  0.74470  Biso   1.000  H
  H44      1.0000 0.90600  0.48270  0.74470  Biso   1.000  H
  H45      1.0000 0.40600  0.01730  0.24470  Biso   1.000  H
  H46      1.0000 0.90600  0.51730  0.24470  Biso   1.000  H
  H47      1.0000 0.59400  0.01730  0.25530  Biso   1.000  H
  H48      1.0000 0.09400  0.51730  0.25530  Biso   1.000  H
  C65      1.0000 0.67930  0.90670  0.87620  Biso   1.000  C
  C66      1.0000 0.17930  0.40670  0.87620  Biso   1.000  C
  C67      1.0000 0.32070  0.90670  0.62380  Biso   1.000  C
  C68      1.0000 0.82070  0.40670  0.62380  Biso   1.000  C
  C69      1.0000 0.32070  0.09330  0.12380  Biso   1.000  C
  C70      1.0000 0.82070  0.59330  0.12380  Biso   1.000  C
  C71      1.0000 0.67930  0.09330  0.37620  Biso   1.000  C
  C72      1.0000 0.17930  0.59330  0.37620  Biso   1.000  C
  H49      1.0000 0.62610  0.88060  0.86540  Biso   1.000  H
  H50      1.0000 0.12610  0.38060  0.86540  Biso   1.000  H
  H51      1.0000 0.37390  0.88060  0.63460  Biso   1.000  H
  H52      1.0000 0.87390  0.38060  0.63460  Biso   1.000  H
  H53      1.0000 0.37390  0.11940  0.13460  Biso   1.000  H
  H54      1.0000 0.87390  0.61940  0.13460  Biso   1.000  H
  H55      1.0000 0.62610  0.11940  0.36540  Biso   1.000  H
  H56      1.0000 0.12610  0.61940  0.36540  Biso   1.000  H
  C73      1.0000 0.76920  0.88300  0.95140  Biso   1.000  C
  C74      1.0000 0.26920  0.38300  0.95140  Biso   1.000  C
  C75      1.0000 0.23080  0.88300  0.54860  Biso   1.000  C
  C76      1.0000 0.73080  0.38300  0.54860  Biso   1.000  C
  C77      1.0000 0.23080  0.11700  0.04860  Biso   1.000  C
  C78      1.0000 0.73080  0.61700  0.04860  Biso   1.000  C
  C79      1.0000 0.76920  0.11700  0.45140  Biso   1.000  C
  C80      1.0000 0.26920  0.61700  0.45140  Biso   1.000  C
  H57      1.0000 0.77840  0.83750  0.98650  Biso   1.000  H
  H58      1.0000 0.27840  0.33750  0.98650  Biso   1.000  H
  H59      1.0000 0.22160  0.83750  0.51350  Biso   1.000  H
  H60      1.0000 0.72160  0.33750  0.51350  Biso   1.000  H
  H61      1.0000 0.22160  0.16250  0.01350  Biso   1.000  H
  H62      1.0000 0.72160  0.66250  0.01350  Biso   1.000  H
  H63      1.0000 0.77840  0.16250  0.48650  Biso   1.000  H
  H64      1.0000 0.27840  0.66250  0.48650  Biso   1.000  H
  C81      1.0000 0.40680  0.17790  0.50100  Biso   1.000  C
  C82      1.0000 0.90680  0.67790  0.50100  Biso   1.000  C
  C83      1.0000 0.59320  0.17790  0.99900  Biso   1.000  C
  C84      1.0000 0.09320  0.67790  0.99900  Biso   1.000  C
  C85      1.0000 0.59320  0.82210  0.49900  Biso   1.000  C
  C86      1.0000 0.09320  0.32210  0.49900  Biso   1.000  C
  C87      1.0000 0.40680  0.82210  0.00100  Biso   1.000  C
  C88      1.0000 0.90680  0.32210  0.00100  Biso   1.000  C
  C89      1.0000 0.38640  0.21130  0.39590  Biso   1.000  C
  C90      1.0000 0.88640  0.71130  0.39590  Biso   1.000  C
  C91      1.0000 0.61360  0.21130  0.10410  Biso   1.000  C
  C92      1.0000 0.11360  0.71130  0.10410  Biso   1.000  C
  C93      1.0000 0.61360  0.78870  0.60410  Biso   1.000  C
  C94      1.0000 0.11360  0.28870  0.60410  Biso   1.000  C
  C95      1.0000 0.38640  0.78870  0.89590  Biso   1.000  C
  C96      1.0000 0.88640  0.28870  0.89590  Biso   1.000  C
  H65      1.0000 0.41450  0.19250  0.35740  Biso   1.000  H
  H66      1.0000 0.91450  0.69250  0.35740  Biso   1.000  H
  H67      1.0000 0.58550  0.19250  0.14260  Biso   1.000  H
  H68      1.0000 0.08550  0.69250  0.14260  Biso   1.000  H
  H69      1.0000 0.58550  0.80750  0.64260  Biso   1.000  H
  H70      1.0000 0.08550  0.30750  0.64260  Biso   1.000  H
  H71      1.0000 0.41450  0.80750  0.85740  Biso   1.000  H
  H72      1.0000 0.91450  0.30750  0.85740  Biso   1.000  H
  C97      1.0000 0.47510  0.11370  0.54710  Biso   1.000  C
  C98      1.0000 0.97510  0.61370  0.54710  Biso   1.000  C
  C99      1.0000 0.52490  0.11370  0.95290  Biso   1.000  C
  C100     1.0000 0.02490  0.61370  0.95290  Biso   1.000  C
  C101     1.0000 0.52490  0.88630  0.45290  Biso   1.000  C
  C102     1.0000 0.02490  0.38630  0.45290  Biso   1.000  C
  C103     1.0000 0.47510  0.88630  0.04710  Biso   1.000  C
  C104     1.0000 0.97510  0.38630  0.04710  Biso   1.000  C
  C105     1.0000 0.32570  0.27190  0.34340  Biso   1.000  C
  C106     1.0000 0.82570  0.77190  0.34340  Biso   1.000  C
  C107     1.0000 0.67430  0.27190  0.15660  Biso   1.000  C
  C108     1.0000 0.17430  0.77190  0.15660  Biso   1.000  C
  C109     1.0000 0.67430  0.72810  0.65660  Biso   1.000  C
  C110     1.0000 0.17430  0.22810  0.65660  Biso   1.000  C
  C111     1.0000 0.32570  0.72810  0.84340  Biso   1.000  C
  C112     1.0000 0.82570  0.22810  0.84340  Biso   1.000  C
  C113     1.0000 0.30950  0.30200  0.22790  Biso   1.000  C
  C114     1.0000 0.80950  0.80200  0.22790  Biso   1.000  C
  C115     1.0000 0.69050  0.30200  0.27210  Biso   1.000  C
  C116     1.0000 0.19050  0.80200  0.27210  Biso   1.000  C
  C117     1.0000 0.69050  0.69800  0.77210  Biso   1.000  C
  C118     1.0000 0.19050  0.19800  0.77210  Biso   1.000  C
  C119     1.0000 0.30950  0.69800  0.72790  Biso   1.000  C
  C120     1.0000 0.80950  0.19800  0.72790  Biso   1.000  C
  C121     1.0000 0.02140  0.00760  0.09470  Biso   1.000  C
  C122     1.0000 0.52140  0.50760  0.09470  Biso   1.000  C
  C123     1.0000 0.97860  0.00760  0.40530  Biso   1.000  C
  C124     1.0000 0.47860  0.50760  0.40530  Biso   1.000  C
  C125     1.0000 0.97860  0.99240  0.90530  Biso   1.000  C
  C126     1.0000 0.47860  0.49240  0.90530  Biso   1.000  C
  C127     1.0000 0.02140  0.99240  0.59470  Biso   1.000  C
  C128     1.0000 0.52140  0.49240  0.59470  Biso   1.000  C
  C129     1.0000 0.92560  0.02060  0.96320  Biso   1.000  C
  C130     1.0000 0.42560  0.52060  0.96320  Biso   1.000  C
  C131     1.0000 0.07440  0.02060  0.53680  Biso   1.000  C
  C132     1.0000 0.57440  0.52060  0.53680  Biso   1.000  C
  C133     1.0000 0.07440  0.97940  0.03680  Biso   1.000  C
  C134     1.0000 0.57440  0.47940  0.03680  Biso   1.000  C
  C135     1.0000 0.92560  0.97940  0.46320  Biso   1.000  C
  C136     1.0000 0.42560  0.47940  0.46320  Biso   1.000  C
  C137     1.0000 0.98940  0.05100  0.03340  Biso   1.000  C
  C138     1.0000 0.48940  0.55100  0.03340  Biso   1.000  C
  C139     1.0000 0.01060  0.05100  0.46660  Biso   1.000  C
  C140     1.0000 0.51060  0.55100  0.46660  Biso   1.000  C
  C141     1.0000 0.01060  0.94900  0.96660  Biso   1.000  C
  C142     1.0000 0.51060  0.44900  0.96660  Biso   1.000  C
  C143     1.0000 0.98940  0.94900  0.53340  Biso   1.000  C
  C144     1.0000 0.48940  0.44900  0.53340  Biso   1.000  C
  C145     1.0000 0.95880  0.97230  0.03150  Biso   1.000  C
  C146     1.0000 0.45880  0.47230  0.03150  Biso   1.000  C
  C147     1.0000 0.04120  0.97230  0.46850  Biso   1.000  C
  C148     1.0000 0.54120  0.47230  0.46850  Biso   1.000  C
  C149     1.0000 0.04120  0.02770  0.96850  Biso   1.000  C
  C150     1.0000 0.54120  0.52770  0.96850  Biso   1.000  C
  C151     1.0000 0.95880  0.02770  0.53150  Biso   1.000  C
  C152     1.0000 0.45880  0.52770  0.53150  Biso   1.000  C
  H73      1.0000 0.99900  0.96100  0.12000  Biso   1.000  H
  H74      1.0000 0.49900  0.46100  0.12000  Biso   1.000  H
  H75      1.0000 0.00100  0.96100  0.38000  Biso   1.000  H
  H76      1.0000 0.50100  0.46100  0.38000  Biso   1.000  H
  H77      1.0000 0.00100  0.03900  0.88000  Biso   1.000  H
  H78      1.0000 0.50100  0.53900  0.88000  Biso   1.000  H
  H79      1.0000 0.99900  0.03900  0.62000  Biso   1.000  H
  H80      1.0000 0.49900  0.53900  0.62000  Biso   1.000  H
  N17      1.0000 0.92000  0.06700  0.96200  Biso   1.000  N
  N18      1.0000 0.42000  0.56700  0.96200  Biso   1.000  N
  N19      1.0000 0.08000  0.06700  0.53800  Biso   1.000  N
  N20      1.0000 0.58000  0.56700  0.53800  Biso   1.000  N
  N21      1.0000 0.08000  0.93300  0.03800  Biso   1.000  N
  N22      1.0000 0.58000  0.43300  0.03800  Biso   1.000  N
  N23      1.0000 0.92000  0.93300  0.46200  Biso   1.000  N
  N24      1.0000 0.42000  0.43300  0.46200  Biso   1.000  N
