data_image0
_cell_length_a       20.3982
_cell_length_b       18.9865
_cell_length_c       21.4028
_cell_angle_alpha    90
_cell_angle_beta     118.152
_cell_angle_gamma    90

_symmetry_space_group_name_H-M    "P 1"
_symmetry_int_tables_number       1

loop_
  _symmetry_equiv_pos_as_xyz
  'x, y, z'

loop_
  _atom_site_label
  _atom_site_occupancy
  _atom_site_fract_x
  _atom_site_fract_y
  _atom_site_fract_z
  _atom_site_thermal_displace_type
  _atom_site_B_iso_or_equiv
  _atom_site_type_symbol
  Cu1      1.0000 0.68760  0.10663  0.16073  Biso   1.000  Cu
  Cu2      1.0000 0.31240  0.10663  0.33927  Biso   1.000  Cu
  Cu3      1.0000 0.18760  0.60663  0.16073  Biso   1.000  Cu
  Cu4      1.0000 0.81240  0.60663  0.33927  Biso   1.000  Cu
  Cu5      1.0000 0.31240  0.89337  0.83927  Biso   1.000  Cu
  Cu6      1.0000 0.68760  0.89337  0.66073  Biso   1.000  Cu
  Cu7      1.0000 0.81240  0.39337  0.83927  Biso   1.000  Cu
  Cu8      1.0000 0.18760  0.39337  0.66073  Biso   1.000  Cu
  Cu9      1.0000 0.76002  0.21241  0.14110  Biso   1.000  Cu
  Cu10     1.0000 0.23998  0.21241  0.35890  Biso   1.000  Cu
  Cu11     1.0000 0.26002  0.71241  0.14110  Biso   1.000  Cu
  Cu12     1.0000 0.73998  0.71241  0.35890  Biso   1.000  Cu
  Cu13     1.0000 0.23998  0.78759  0.85890  Biso   1.000  Cu
  Cu14     1.0000 0.76002  0.78759  0.64110  Biso   1.000  Cu
  Cu15     1.0000 0.73998  0.28759  0.85890  Biso   1.000  Cu
  Cu16     1.0000 0.26002  0.28759  0.64110  Biso   1.000  Cu
  O1       1.0000 0.60090  0.16356  0.09825  Biso   1.000  O
  O2       1.0000 0.39910  0.16356  0.40175  Biso   1.000  O
  O3       1.0000 0.10090  0.66356  0.09825  Biso   1.000  O
  O4       1.0000 0.89910  0.66356  0.40175  Biso   1.000  O
  O5       1.0000 0.39910  0.83644  0.90175  Biso   1.000  O
  O6       1.0000 0.60090  0.83644  0.59825  Biso   1.000  O
  O7       1.0000 0.89910  0.33644  0.90175  Biso   1.000  O
  O8       1.0000 0.10090  0.33644  0.59825  Biso   1.000  O
  O9       1.0000 0.65940  0.25011  0.07336  Biso   1.000  O
  O10      1.0000 0.34060  0.25011  0.42664  Biso   1.000  O
  O11      1.0000 0.15940  0.75011  0.07336  Biso   1.000  O
  O12      1.0000 0.84060  0.75011  0.42664  Biso   1.000  O
  O13      1.0000 0.34060  0.74989  0.92664  Biso   1.000  O
  O14      1.0000 0.65940  0.74989  0.57336  Biso   1.000  O
  O15      1.0000 0.84060  0.24989  0.92664  Biso   1.000  O
  O16      1.0000 0.15940  0.24989  0.57336  Biso   1.000  O
  C1       1.0000 0.60160  0.22080  0.06920  Biso   1.000  C
  C2       1.0000 0.39840  0.22080  0.43080  Biso   1.000  C
  C3       1.0000 0.10160  0.72080  0.06920  Biso   1.000  C
  C4       1.0000 0.89840  0.72080  0.43080  Biso   1.000  C
  C5       1.0000 0.39840  0.77920  0.93080  Biso   1.000  C
  C6       1.0000 0.60160  0.77920  0.56920  Biso   1.000  C
  C7       1.0000 0.89840  0.27920  0.93080  Biso   1.000  C
  C8       1.0000 0.10160  0.27920  0.56920  Biso   1.000  C
  C9       1.0000 0.52810  0.25510  0.02600  Biso   1.000  C
  C10      1.0000 0.47190  0.25510  0.47400  Biso   1.000  C
  C11      1.0000 0.02810  0.75510  0.02600  Biso   1.000  C
  C12      1.0000 0.97190  0.75510  0.47400  Biso   1.000  C
  C13      1.0000 0.47190  0.74490  0.97400  Biso   1.000  C
  C14      1.0000 0.52810  0.74490  0.52600  Biso   1.000  C
  C15      1.0000 0.97190  0.24490  0.97400  Biso   1.000  C
  C16      1.0000 0.02810  0.24490  0.52600  Biso   1.000  C
  C17      1.0000 0.46310  0.21700  0.00790  Biso   1.000  C
  C18      1.0000 0.53690  0.21700  0.49210  Biso   1.000  C
  C19      1.0000 0.96310  0.71700  0.00790  Biso   1.000  C
  C20      1.0000 0.03690  0.71700  0.49210  Biso   1.000  C
  C21      1.0000 0.53690  0.78300  0.99210  Biso   1.000  C
  C22      1.0000 0.46310  0.78300  0.50790  Biso   1.000  C
  C23      1.0000 0.03690  0.28300  0.99210  Biso   1.000  C
  C24      1.0000 0.96310  0.28300  0.50790  Biso   1.000  C
  H1       1.0000 0.46600  0.16970  0.02360  Biso   1.000  H
  H2       1.0000 0.53400  0.16970  0.47640  Biso   1.000  H
  H3       1.0000 0.96600  0.66970  0.02360  Biso   1.000  H
  H4       1.0000 0.03400  0.66970  0.47640  Biso   1.000  H
  H5       1.0000 0.53400  0.83030  0.97640  Biso   1.000  H
  H6       1.0000 0.46600  0.83030  0.52360  Biso   1.000  H
  H7       1.0000 0.03400  0.33030  0.97640  Biso   1.000  H
  H8       1.0000 0.96600  0.33030  0.52360  Biso   1.000  H
  C25      1.0000 0.39460  0.24780  0.96720  Biso   1.000  C
  C26      1.0000 0.60540  0.24780  0.53280  Biso   1.000  C
  C27      1.0000 0.89460  0.74780  0.96720  Biso   1.000  C
  C28      1.0000 0.10540  0.74780  0.53280  Biso   1.000  C
  C29      1.0000 0.60540  0.75220  0.03280  Biso   1.000  C
  C30      1.0000 0.39460  0.75220  0.46720  Biso   1.000  C
  C31      1.0000 0.10540  0.25220  0.03280  Biso   1.000  C
  C32      1.0000 0.89460  0.25220  0.46720  Biso   1.000  C
  H9       1.0000 0.35040  0.22160  0.95450  Biso   1.000  H
  H10      1.0000 0.64960  0.22160  0.54550  Biso   1.000  H
  H11      1.0000 0.85040  0.72160  0.95450  Biso   1.000  H
  H12      1.0000 0.14960  0.72160  0.54550  Biso   1.000  H
  H13      1.0000 0.64960  0.77840  0.04550  Biso   1.000  H
  H14      1.0000 0.35040  0.77840  0.45450  Biso   1.000  H
  H15      1.0000 0.14960  0.27840  0.04550  Biso   1.000  H
  H16      1.0000 0.85040  0.27840  0.45450  Biso   1.000  H
  C33      1.0000 0.39030  0.31760  0.94450  Biso   1.000  C
  C34      1.0000 0.60970  0.31760  0.55550  Biso   1.000  C
  C35      1.0000 0.89030  0.81760  0.94450  Biso   1.000  C
  C36      1.0000 0.10970  0.81760  0.55550  Biso   1.000  C
  C37      1.0000 0.60970  0.68240  0.05550  Biso   1.000  C
  C38      1.0000 0.39030  0.68240  0.44450  Biso   1.000  C
  C39      1.0000 0.10970  0.18240  0.05550  Biso   1.000  C
  C40      1.0000 0.89030  0.18240  0.44450  Biso   1.000  C
  H17      1.0000 0.34320  0.33900  0.91660  Biso   1.000  H
  H18      1.0000 0.65680  0.33900  0.58340  Biso   1.000  H
  H19      1.0000 0.84320  0.83900  0.91660  Biso   1.000  H
  H20      1.0000 0.15680  0.83900  0.58340  Biso   1.000  H
  H21      1.0000 0.65680  0.66100  0.08340  Biso   1.000  H
  H22      1.0000 0.34320  0.66100  0.41660  Biso   1.000  H
  H23      1.0000 0.15680  0.16100  0.08340  Biso   1.000  H
  H24      1.0000 0.84320  0.16100  0.41660  Biso   1.000  H
  C41      1.0000 0.45490  0.35510  0.96300  Biso   1.000  C
  C42      1.0000 0.54510  0.35510  0.53700  Biso   1.000  C
  C43      1.0000 0.95490  0.85510  0.96300  Biso   1.000  C
  C44      1.0000 0.04510  0.85510  0.53700  Biso   1.000  C
  C45      1.0000 0.54510  0.64490  0.03700  Biso   1.000  C
  C46      1.0000 0.45490  0.64490  0.46300  Biso   1.000  C
  C47      1.0000 0.04510  0.14490  0.03700  Biso   1.000  C
  C48      1.0000 0.95490  0.14490  0.46300  Biso   1.000  C
  H25      1.0000 0.45190  0.40280  0.94840  Biso   1.000  H
  H26      1.0000 0.54810  0.40280  0.55160  Biso   1.000  H
  H27      1.0000 0.95190  0.90280  0.94840  Biso   1.000  H
  H28      1.0000 0.04810  0.90280  0.55160  Biso   1.000  H
  H29      1.0000 0.54810  0.59720  0.05160  Biso   1.000  H
  H30      1.0000 0.45190  0.59720  0.44840  Biso   1.000  H
  H31      1.0000 0.04810  0.09720  0.05160  Biso   1.000  H
  H32      1.0000 0.95190  0.09720  0.44840  Biso   1.000  H
  C49      1.0000 0.52320  0.32460  0.00210  Biso   1.000  C
  C50      1.0000 0.47680  0.32460  0.49790  Biso   1.000  C
  C51      1.0000 0.02320  0.82460  0.00210  Biso   1.000  C
  C52      1.0000 0.97680  0.82460  0.49790  Biso   1.000  C
  C53      1.0000 0.47680  0.67540  0.99790  Biso   1.000  C
  C54      1.0000 0.52320  0.67540  0.50210  Biso   1.000  C
  C55      1.0000 0.97680  0.17540  0.99790  Biso   1.000  C
  C56      1.0000 0.02320  0.17540  0.50210  Biso   1.000  C
  H33      1.0000 0.56710  0.35050  0.01300  Biso   1.000  H
  H34      1.0000 0.43290  0.35050  0.48700  Biso   1.000  H
  H35      1.0000 0.06710  0.85050  0.01300  Biso   1.000  H
  H36      1.0000 0.93290  0.85050  0.48700  Biso   1.000  H
  H37      1.0000 0.43290  0.64950  0.98700  Biso   1.000  H
  H38      1.0000 0.56710  0.64950  0.51300  Biso   1.000  H
  H39      1.0000 0.93290  0.14950  0.98700  Biso   1.000  H
  H40      1.0000 0.06710  0.14950  0.51300  Biso   1.000  H
  O17      1.0000 0.69690  0.16681  0.24112  Biso   1.000  O
  O18      1.0000 0.30310  0.16681  0.25888  Biso   1.000  O
  O19      1.0000 0.19690  0.66681  0.24112  Biso   1.000  O
  O20      1.0000 0.80310  0.66681  0.25888  Biso   1.000  O
  O21      1.0000 0.30310  0.83319  0.75888  Biso   1.000  O
  O22      1.0000 0.69690  0.83319  0.74112  Biso   1.000  O
  O23      1.0000 0.80310  0.33319  0.75888  Biso   1.000  O
  O24      1.0000 0.19690  0.33319  0.74112  Biso   1.000  O
  O25      1.0000 0.74720  0.26039  0.21554  Biso   1.000  O
  O26      1.0000 0.25280  0.26039  0.28446  Biso   1.000  O
  O27      1.0000 0.24720  0.76039  0.21554  Biso   1.000  O
  O28      1.0000 0.75280  0.76039  0.28446  Biso   1.000  O
  O29      1.0000 0.25280  0.73961  0.78446  Biso   1.000  O
  O30      1.0000 0.74720  0.73961  0.71554  Biso   1.000  O
  O31      1.0000 0.75280  0.23961  0.78446  Biso   1.000  O
  O32      1.0000 0.24720  0.23961  0.71554  Biso   1.000  O
  C57      1.0000 0.71920  0.23010  0.24930  Biso   1.000  C
  C58      1.0000 0.28080  0.23010  0.25070  Biso   1.000  C
  C59      1.0000 0.21920  0.73010  0.24930  Biso   1.000  C
  C60      1.0000 0.78080  0.73010  0.25070  Biso   1.000  C
  C61      1.0000 0.28080  0.76990  0.75070  Biso   1.000  C
  C62      1.0000 0.71920  0.76990  0.74930  Biso   1.000  C
  C63      1.0000 0.78080  0.26990  0.75070  Biso   1.000  C
  C64      1.0000 0.21920  0.26990  0.74930  Biso   1.000  C
  C65      1.0000 0.71150  0.27330  0.30480  Biso   1.000  C
  C66      1.0000 0.28850  0.27330  0.19520  Biso   1.000  C
  C67      1.0000 0.21150  0.77330  0.30480  Biso   1.000  C
  C68      1.0000 0.78850  0.77330  0.19520  Biso   1.000  C
  C69      1.0000 0.28850  0.72670  0.69520  Biso   1.000  C
  C70      1.0000 0.71150  0.72670  0.80480  Biso   1.000  C
  C71      1.0000 0.78850  0.22670  0.69520  Biso   1.000  C
  C72      1.0000 0.21150  0.22670  0.80480  Biso   1.000  C
  C73      1.0000 0.68860  0.24120  0.34990  Biso   1.000  C
  C74      1.0000 0.31140  0.24120  0.15010  Biso   1.000  C
  C75      1.0000 0.18860  0.74120  0.34990  Biso   1.000  C
  C76      1.0000 0.81140  0.74120  0.15010  Biso   1.000  C
  C77      1.0000 0.31140  0.75880  0.65010  Biso   1.000  C
  C78      1.0000 0.68860  0.75880  0.84990  Biso   1.000  C
  C79      1.0000 0.81140  0.25880  0.65010  Biso   1.000  C
  C80      1.0000 0.18860  0.25880  0.84990  Biso   1.000  C
  H41      1.0000 0.67800  0.19220  0.34530  Biso   1.000  H
  H42      1.0000 0.32200  0.19220  0.15470  Biso   1.000  H
  H43      1.0000 0.17800  0.69220  0.34530  Biso   1.000  H
  H44      1.0000 0.82200  0.69220  0.15470  Biso   1.000  H
  H45      1.0000 0.32200  0.80780  0.65470  Biso   1.000  H
  H46      1.0000 0.67800  0.80780  0.84530  Biso   1.000  H
  H47      1.0000 0.82200  0.30780  0.65470  Biso   1.000  H
  H48      1.0000 0.17800  0.30780  0.84530  Biso   1.000  H
  C81      1.0000 0.68130  0.27910  0.40070  Biso   1.000  C
  C82      1.0000 0.31870  0.27910  0.09930  Biso   1.000  C
  C83      1.0000 0.18130  0.77910  0.40070  Biso   1.000  C
  C84      1.0000 0.81870  0.77910  0.09930  Biso   1.000  C
  C85      1.0000 0.31870  0.72090  0.59930  Biso   1.000  C
  C86      1.0000 0.68130  0.72090  0.90070  Biso   1.000  C
  C87      1.0000 0.81870  0.22090  0.59930  Biso   1.000  C
  C88      1.0000 0.18130  0.22090  0.90070  Biso   1.000  C
  H49      1.0000 0.66730  0.25620  0.43210  Biso   1.000  H
  H50      1.0000 0.33270  0.25620  0.06790  Biso   1.000  H
  H51      1.0000 0.16730  0.75620  0.43210  Biso   1.000  H
  H52      1.0000 0.83270  0.75620  0.06790  Biso   1.000  H
  H53      1.0000 0.33270  0.74380  0.56790  Biso   1.000  H
  H54      1.0000 0.66730  0.74380  0.93210  Biso   1.000  H
  H55      1.0000 0.83270  0.24380  0.56790  Biso   1.000  H
  H56      1.0000 0.16730  0.24380  0.93210  Biso   1.000  H
  C89      1.0000 0.69450  0.35160  0.40600  Biso   1.000  C
  C90      1.0000 0.30550  0.35160  0.09400  Biso   1.000  C
  C91      1.0000 0.19450  0.85160  0.40600  Biso   1.000  C
  C92      1.0000 0.80550  0.85160  0.09400  Biso   1.000  C
  C93      1.0000 0.30550  0.64840  0.59400  Biso   1.000  C
  C94      1.0000 0.69450  0.64840  0.90600  Biso   1.000  C
  C95      1.0000 0.80550  0.14840  0.59400  Biso   1.000  C
  C96      1.0000 0.19450  0.14840  0.90600  Biso   1.000  C
  H57      1.0000 0.68890  0.37850  0.44060  Biso   1.000  H
  H58      1.0000 0.31110  0.37850  0.05940  Biso   1.000  H
  H59      1.0000 0.18890  0.87850  0.44060  Biso   1.000  H
  H60      1.0000 0.81110  0.87850  0.05940  Biso   1.000  H
  H61      1.0000 0.31110  0.62150  0.55940  Biso   1.000  H
  H62      1.0000 0.68890  0.62150  0.94060  Biso   1.000  H
  H63      1.0000 0.81110  0.12150  0.55940  Biso   1.000  H
  H64      1.0000 0.18890  0.12150  0.94060  Biso   1.000  H
  C97      1.0000 0.71570  0.38370  0.36030  Biso   1.000  C
  C98      1.0000 0.28430  0.38370  0.13970  Biso   1.000  C
  C99      1.0000 0.21570  0.88370  0.36030  Biso   1.000  C
  C100     1.0000 0.78430  0.88370  0.13970  Biso   1.000  C
  C101     1.0000 0.28430  0.61630  0.63970  Biso   1.000  C
  C102     1.0000 0.71570  0.61630  0.86030  Biso   1.000  C
  C103     1.0000 0.78430  0.11630  0.63970  Biso   1.000  C
  C104     1.0000 0.21570  0.11630  0.86030  Biso   1.000  C
  H65      1.0000 0.72440  0.43310  0.36350  Biso   1.000  H
  H66      1.0000 0.27560  0.43310  0.13650  Biso   1.000  H
  H67      1.0000 0.22440  0.93310  0.36350  Biso   1.000  H
  H68      1.0000 0.77560  0.93310  0.13650  Biso   1.000  H
  H69      1.0000 0.27560  0.56690  0.63650  Biso   1.000  H
  H70      1.0000 0.72440  0.56690  0.86350  Biso   1.000  H
  H71      1.0000 0.77560  0.06690  0.63650  Biso   1.000  H
  H72      1.0000 0.22440  0.06690  0.86350  Biso   1.000  H
  C105     1.0000 0.72430  0.34480  0.31010  Biso   1.000  C
  C106     1.0000 0.27570  0.34480  0.18990  Biso   1.000  C
  C107     1.0000 0.22430  0.84480  0.31010  Biso   1.000  C
  C108     1.0000 0.77570  0.84480  0.18990  Biso   1.000  C
  C109     1.0000 0.27570  0.65520  0.68990  Biso   1.000  C
  C110     1.0000 0.72430  0.65520  0.81010  Biso   1.000  C
  C111     1.0000 0.77570  0.15520  0.68990  Biso   1.000  C
  C112     1.0000 0.22430  0.15520  0.81010  Biso   1.000  C
  H73      1.0000 0.73910  0.36740  0.27920  Biso   1.000  H
  H74      1.0000 0.26090  0.36740  0.22080  Biso   1.000  H
  H75      1.0000 0.23910  0.86740  0.27920  Biso   1.000  H
  H76      1.0000 0.76090  0.86740  0.22080  Biso   1.000  H
  H77      1.0000 0.26090  0.63260  0.72080  Biso   1.000  H
  H78      1.0000 0.73910  0.63260  0.77920  Biso   1.000  H
  H79      1.0000 0.76090  0.13260  0.72080  Biso   1.000  H
  H80      1.0000 0.23910  0.13260  0.77920  Biso   1.000  H
  O33      1.0000 0.78190  0.06215  0.22422  Biso   1.000  O
  O34      1.0000 0.21810  0.06215  0.27578  Biso   1.000  O
  O35      1.0000 0.28190  0.56215  0.22422  Biso   1.000  O
  O36      1.0000 0.71810  0.56215  0.27578  Biso   1.000  O
  O37      1.0000 0.21810  0.93785  0.77578  Biso   1.000  O
  O38      1.0000 0.78190  0.93785  0.72422  Biso   1.000  O
  O39      1.0000 0.71810  0.43785  0.77578  Biso   1.000  O
  O40      1.0000 0.28190  0.43785  0.72422  Biso   1.000  O
  O41      1.0000 0.84328  0.15528  0.21407  Biso   1.000  O
  O42      1.0000 0.15672  0.15528  0.28593  Biso   1.000  O
  O43      1.0000 0.34328  0.65528  0.21407  Biso   1.000  O
  O44      1.0000 0.65672  0.65528  0.28593  Biso   1.000  O
  O45      1.0000 0.15672  0.84472  0.78593  Biso   1.000  O
  O46      1.0000 0.84328  0.84472  0.71407  Biso   1.000  O
  O47      1.0000 0.65672  0.34472  0.78593  Biso   1.000  O
  O48      1.0000 0.34328  0.34472  0.71407  Biso   1.000  O
  C113     1.0000 0.84020  0.09680  0.23970  Biso   1.000  C
  C114     1.0000 0.15980  0.09680  0.26030  Biso   1.000  C
  C115     1.0000 0.34020  0.59680  0.23970  Biso   1.000  C
  C116     1.0000 0.65980  0.59680  0.26030  Biso   1.000  C
  C117     1.0000 0.15980  0.90320  0.76030  Biso   1.000  C
  C118     1.0000 0.84020  0.90320  0.73970  Biso   1.000  C
  C119     1.0000 0.65980  0.40320  0.76030  Biso   1.000  C
  C120     1.0000 0.34020  0.40320  0.73970  Biso   1.000  C
  C121     1.0000 0.91280  0.06520  0.29420  Biso   1.000  C
  C122     1.0000 0.08720  0.06520  0.20580  Biso   1.000  C
  C123     1.0000 0.41280  0.56520  0.29420  Biso   1.000  C
  C124     1.0000 0.58720  0.56520  0.20580  Biso   1.000  C
  C125     1.0000 0.08720  0.93480  0.70580  Biso   1.000  C
  C126     1.0000 0.91280  0.93480  0.79420  Biso   1.000  C
  C127     1.0000 0.58720  0.43480  0.70580  Biso   1.000  C
  C128     1.0000 0.41280  0.43480  0.79420  Biso   1.000  C
  C129     1.0000 0.91290  0.00010  0.32190  Biso   1.000  C
  C130     1.0000 0.08710  0.00010  0.17810  Biso   1.000  C
  C131     1.0000 0.41290  0.50010  0.32190  Biso   1.000  C
  C132     1.0000 0.58710  0.50010  0.17810  Biso   1.000  C
  C133     1.0000 0.08710  0.99990  0.67810  Biso   1.000  C
  C134     1.0000 0.91290  0.99990  0.82190  Biso   1.000  C
  C135     1.0000 0.58710  0.49990  0.67810  Biso   1.000  C
  C136     1.0000 0.41290  0.49990  0.82190  Biso   1.000  C
  H81      1.0000 0.86790  0.97450  0.30650  Biso   1.000  H
  H82      1.0000 0.13210  0.97450  0.19350  Biso   1.000  H
  H83      1.0000 0.36790  0.47450  0.30650  Biso   1.000  H
  H84      1.0000 0.63210  0.47450  0.19350  Biso   1.000  H
  H85      1.0000 0.13210  0.02550  0.69350  Biso   1.000  H
  H86      1.0000 0.86790  0.02550  0.80650  Biso   1.000  H
  H87      1.0000 0.63210  0.52550  0.69350  Biso   1.000  H
  H88      1.0000 0.36790  0.52550  0.80650  Biso   1.000  H
  C137     1.0000 0.98120  0.97160  0.37380  Biso   1.000  C
  C138     1.0000 0.01880  0.97160  0.12620  Biso   1.000  C
  C139     1.0000 0.48120  0.47160  0.37380  Biso   1.000  C
  C140     1.0000 0.51880  0.47160  0.12620  Biso   1.000  C
  C141     1.0000 0.01880  0.02840  0.62620  Biso   1.000  C
  C142     1.0000 0.98120  0.02840  0.87380  Biso   1.000  C
  C143     1.0000 0.51880  0.52840  0.62620  Biso   1.000  C
  C144     1.0000 0.48120  0.52840  0.87380  Biso   1.000  C
  H89      1.0000 0.98200  0.92660  0.39370  Biso   1.000  H
  H90      1.0000 0.01800  0.92660  0.10630  Biso   1.000  H
  H91      1.0000 0.48200  0.42660  0.39370  Biso   1.000  H
  H92      1.0000 0.51800  0.42660  0.10630  Biso   1.000  H
  H93      1.0000 0.01800  0.07340  0.60630  Biso   1.000  H
  H94      1.0000 0.98200  0.07340  0.89370  Biso   1.000  H
  H95      1.0000 0.51800  0.57340  0.60630  Biso   1.000  H
  H96      1.0000 0.48200  0.57340  0.89370  Biso   1.000  H
  C145     1.0000 0.04540  0.00830  0.39510  Biso   1.000  C
  C146     1.0000 0.95460  0.00830  0.10490  Biso   1.000  C
  C147     1.0000 0.54540  0.50830  0.39510  Biso   1.000  C
  C148     1.0000 0.45460  0.50830  0.10490  Biso   1.000  C
  C149     1.0000 0.95460  0.99170  0.60490  Biso   1.000  C
  C150     1.0000 0.04540  0.99170  0.89510  Biso   1.000  C
  C151     1.0000 0.45460  0.49170  0.60490  Biso   1.000  C
  C152     1.0000 0.54540  0.49170  0.89510  Biso   1.000  C
  H97      1.0000 0.09100  0.98910  0.43010  Biso   1.000  H
  H98      1.0000 0.90900  0.98910  0.06990  Biso   1.000  H
  H99      1.0000 0.59100  0.48910  0.43010  Biso   1.000  H
  H100     1.0000 0.40900  0.48910  0.06990  Biso   1.000  H
  H101     1.0000 0.90900  0.01090  0.56990  Biso   1.000  H
  H102     1.0000 0.09100  0.01090  0.93010  Biso   1.000  H
  H103     1.0000 0.40900  0.51090  0.56990  Biso   1.000  H
  H104     1.0000 0.59100  0.51090  0.93010  Biso   1.000  H
  C153     1.0000 0.04440  0.07290  0.36630  Biso   1.000  C
  C154     1.0000 0.95560  0.07290  0.13370  Biso   1.000  C
  C155     1.0000 0.54440  0.57290  0.36630  Biso   1.000  C
  C156     1.0000 0.45560  0.57290  0.13370  Biso   1.000  C
  C157     1.0000 0.95560  0.92710  0.63370  Biso   1.000  C
  C158     1.0000 0.04440  0.92710  0.86630  Biso   1.000  C
  C159     1.0000 0.45560  0.42710  0.63370  Biso   1.000  C
  C160     1.0000 0.54440  0.42710  0.86630  Biso   1.000  C
  H105     1.0000 0.08960  0.09800  0.38070  Biso   1.000  H
  H106     1.0000 0.91040  0.09800  0.11930  Biso   1.000  H
  H107     1.0000 0.58960  0.59800  0.38070  Biso   1.000  H
  H108     1.0000 0.41040  0.59800  0.11930  Biso   1.000  H
  H109     1.0000 0.91040  0.90200  0.61930  Biso   1.000  H
  H110     1.0000 0.08960  0.90200  0.88070  Biso   1.000  H
  H111     1.0000 0.41040  0.40200  0.61930  Biso   1.000  H
  H112     1.0000 0.58960  0.40200  0.88070  Biso   1.000  H
  C161     1.0000 0.97890  0.10140  0.31680  Biso   1.000  C
  C162     1.0000 0.02110  0.10140  0.18320  Biso   1.000  C
  C163     1.0000 0.47890  0.60140  0.31680  Biso   1.000  C
  C164     1.0000 0.52110  0.60140  0.18320  Biso   1.000  C
  C165     1.0000 0.02110  0.89860  0.68320  Biso   1.000  C
  C166     1.0000 0.97890  0.89860  0.81680  Biso   1.000  C
  C167     1.0000 0.52110  0.39860  0.68320  Biso   1.000  C
  C168     1.0000 0.47890  0.39860  0.81680  Biso   1.000  C
  H113     1.0000 0.97880  0.14670  0.29780  Biso   1.000  H
  H114     1.0000 0.02120  0.14670  0.20220  Biso   1.000  H
  H115     1.0000 0.47880  0.64670  0.29780  Biso   1.000  H
  H116     1.0000 0.52120  0.64670  0.20220  Biso   1.000  H
  H117     1.0000 0.02120  0.85330  0.70220  Biso   1.000  H
  H118     1.0000 0.97880  0.85330  0.79780  Biso   1.000  H
  H119     1.0000 0.52120  0.35330  0.70220  Biso   1.000  H
  H120     1.0000 0.47880  0.35330  0.79780  Biso   1.000  H
  O49      1.0000 0.69450  0.06596  0.07816  Biso   1.000  O
  O50      1.0000 0.30550  0.06596  0.42184  Biso   1.000  O
  O51      1.0000 0.19450  0.56596  0.07816  Biso   1.000  O
  O52      1.0000 0.80550  0.56596  0.42184  Biso   1.000  O
  O53      1.0000 0.30550  0.93404  0.92184  Biso   1.000  O
  O54      1.0000 0.69450  0.93404  0.57816  Biso   1.000  O
  O55      1.0000 0.80550  0.43404  0.92184  Biso   1.000  O
  O56      1.0000 0.19450  0.43404  0.57816  Biso   1.000  O
  O57      1.0000 0.76186  0.15344  0.06711  Biso   1.000  O
  O58      1.0000 0.23814  0.15344  0.43289  Biso   1.000  O
  O59      1.0000 0.26186  0.65344  0.06711  Biso   1.000  O
  O60      1.0000 0.73814  0.65344  0.43289  Biso   1.000  O
  O61      1.0000 0.23814  0.84656  0.93289  Biso   1.000  O
  O62      1.0000 0.76186  0.84656  0.56711  Biso   1.000  O
  O63      1.0000 0.73814  0.34656  0.93289  Biso   1.000  O
  O64      1.0000 0.26186  0.34656  0.56711  Biso   1.000  O
  C169     1.0000 0.73050  0.09380  0.05020  Biso   1.000  C
  C170     1.0000 0.26950  0.09380  0.44980  Biso   1.000  C
  C171     1.0000 0.23050  0.59380  0.05020  Biso   1.000  C
  C172     1.0000 0.76950  0.59380  0.44980  Biso   1.000  C
  C173     1.0000 0.26950  0.90620  0.94980  Biso   1.000  C
  C174     1.0000 0.73050  0.90620  0.55020  Biso   1.000  C
  C175     1.0000 0.76950  0.40620  0.94980  Biso   1.000  C
  C176     1.0000 0.23050  0.40620  0.55020  Biso   1.000  C
  C177     1.0000 0.73760  0.05390  0.99340  Biso   1.000  C
  C178     1.0000 0.26240  0.05390  0.50660  Biso   1.000  C
  C179     1.0000 0.23760  0.55390  0.99340  Biso   1.000  C
  C180     1.0000 0.76240  0.55390  0.50660  Biso   1.000  C
  C181     1.0000 0.26240  0.94610  0.00660  Biso   1.000  C
  C182     1.0000 0.73760  0.94610  0.49340  Biso   1.000  C
  C183     1.0000 0.76240  0.44610  0.00660  Biso   1.000  C
  C184     1.0000 0.23760  0.44610  0.49340  Biso   1.000  C
  C185     1.0000 0.77990  0.07910  0.96400  Biso   1.000  C
  C186     1.0000 0.22010  0.07910  0.53600  Biso   1.000  C
  C187     1.0000 0.27990  0.57910  0.96400  Biso   1.000  C
  C188     1.0000 0.72010  0.57910  0.53600  Biso   1.000  C
  C189     1.0000 0.22010  0.92090  0.03600  Biso   1.000  C
  C190     1.0000 0.77990  0.92090  0.46400  Biso   1.000  C
  C191     1.0000 0.72010  0.42090  0.03600  Biso   1.000  C
  C192     1.0000 0.27990  0.42090  0.46400  Biso   1.000  C
  H121     1.0000 0.80540  0.12260  0.98000  Biso   1.000  H
  H122     1.0000 0.19460  0.12260  0.52000  Biso   1.000  H
  H123     1.0000 0.30540  0.62260  0.98000  Biso   1.000  H
  H124     1.0000 0.69460  0.62260  0.52000  Biso   1.000  H
  H125     1.0000 0.19460  0.87740  0.02000  Biso   1.000  H
  H126     1.0000 0.80540  0.87740  0.48000  Biso   1.000  H
  H127     1.0000 0.69460  0.37740  0.02000  Biso   1.000  H
  H128     1.0000 0.30540  0.37740  0.48000  Biso   1.000  H
  C193     1.0000 0.78580  0.04200  0.91160  Biso   1.000  C
  C194     1.0000 0.21420  0.04200  0.58840  Biso   1.000  C
  C195     1.0000 0.28580  0.54200  0.91160  Biso   1.000  C
  C196     1.0000 0.71420  0.54200  0.58840  Biso   1.000  C
  C197     1.0000 0.21420  0.95800  0.08840  Biso   1.000  C
  C198     1.0000 0.78580  0.95800  0.41160  Biso   1.000  C
  C199     1.0000 0.71420  0.45800  0.08840  Biso   1.000  C
  C200     1.0000 0.28580  0.45800  0.41160  Biso   1.000  C
  H129     1.0000 0.81570  0.05980  0.89210  Biso   1.000  H
  H130     1.0000 0.18430  0.05980  0.60790  Biso   1.000  H
  H131     1.0000 0.31570  0.55980  0.89210  Biso   1.000  H
  H132     1.0000 0.68430  0.55980  0.60790  Biso   1.000  H
  H133     1.0000 0.18430  0.94020  0.10790  Biso   1.000  H
  H134     1.0000 0.81570  0.94020  0.39210  Biso   1.000  H
  H135     1.0000 0.68430  0.44020  0.10790  Biso   1.000  H
  H136     1.0000 0.31570  0.44020  0.39210  Biso   1.000  H
  C201     1.0000 0.74810  0.97840  0.88720  Biso   1.000  C
  C202     1.0000 0.25190  0.97840  0.61280  Biso   1.000  C
  C203     1.0000 0.24810  0.47840  0.88720  Biso   1.000  C
  C204     1.0000 0.75190  0.47840  0.61280  Biso   1.000  C
  C205     1.0000 0.25190  0.02160  0.11280  Biso   1.000  C
  C206     1.0000 0.74810  0.02160  0.38720  Biso   1.000  C
  C207     1.0000 0.75190  0.52160  0.11280  Biso   1.000  C
  C208     1.0000 0.24810  0.52160  0.38720  Biso   1.000  C
  H137     1.0000 0.75220  0.95260  0.85110  Biso   1.000  H
  H138     1.0000 0.24780  0.95260  0.64890  Biso   1.000  H
  H139     1.0000 0.25220  0.45260  0.85110  Biso   1.000  H
  H140     1.0000 0.74780  0.45260  0.64890  Biso   1.000  H
  H141     1.0000 0.24780  0.04740  0.14890  Biso   1.000  H
  H142     1.0000 0.75220  0.04740  0.35110  Biso   1.000  H
  H143     1.0000 0.74780  0.54740  0.14890  Biso   1.000  H
  H144     1.0000 0.25220  0.54740  0.35110  Biso   1.000  H
  C209     1.0000 0.70570  0.95400  0.91570  Biso   1.000  C
  C210     1.0000 0.29430  0.95400  0.58430  Biso   1.000  C
  C211     1.0000 0.20570  0.45400  0.91570  Biso   1.000  C
  C212     1.0000 0.79430  0.45400  0.58430  Biso   1.000  C
  C213     1.0000 0.29430  0.04600  0.08430  Biso   1.000  C
  C214     1.0000 0.70570  0.04600  0.41570  Biso   1.000  C
  C215     1.0000 0.79430  0.54600  0.08430  Biso   1.000  C
  C216     1.0000 0.20570  0.54600  0.41570  Biso   1.000  C
  H145     1.0000 0.67970  0.91080  0.89900  Biso   1.000  H
  H146     1.0000 0.32030  0.91080  0.60100  Biso   1.000  H
  H147     1.0000 0.17970  0.41080  0.89900  Biso   1.000  H
  H148     1.0000 0.82030  0.41080  0.60100  Biso   1.000  H
  H149     1.0000 0.32030  0.08920  0.10100  Biso   1.000  H
  H150     1.0000 0.67970  0.08920  0.39900  Biso   1.000  H
  H151     1.0000 0.82030  0.58920  0.10100  Biso   1.000  H
  H152     1.0000 0.17970  0.58920  0.39900  Biso   1.000  H
  C217     1.0000 0.69950  0.99100  0.96890  Biso   1.000  C
  C218     1.0000 0.30050  0.99100  0.53110  Biso   1.000  C
  C219     1.0000 0.19950  0.49100  0.96890  Biso   1.000  C
  C220     1.0000 0.80050  0.49100  0.53110  Biso   1.000  C
  C221     1.0000 0.30050  0.00900  0.03110  Biso   1.000  C
  C222     1.0000 0.69950  0.00900  0.46890  Biso   1.000  C
  C223     1.0000 0.80050  0.50900  0.03110  Biso   1.000  C
  C224     1.0000 0.19950  0.50900  0.46890  Biso   1.000  C
  H153     1.0000 0.66940  0.97320  0.98830  Biso   1.000  H
  H154     1.0000 0.33060  0.97320  0.51170  Biso   1.000  H
  H155     1.0000 0.16940  0.47320  0.98830  Biso   1.000  H
  H156     1.0000 0.83060  0.47320  0.51170  Biso   1.000  H
  H157     1.0000 0.33060  0.02680  0.01170  Biso   1.000  H
  H158     1.0000 0.66940  0.02680  0.48830  Biso   1.000  H
  H159     1.0000 0.83060  0.52680  0.01170  Biso   1.000  H
  H160     1.0000 0.16940  0.52680  0.48830  Biso   1.000  H
  N1       1.0000 0.61080  0.02870  0.16020  Biso   1.000  N
  N2       1.0000 0.38920  0.02870  0.33980  Biso   1.000  N
  N3       1.0000 0.11080  0.52870  0.16020  Biso   1.000  N
  N4       1.0000 0.88920  0.52870  0.33980  Biso   1.000  N
  N5       1.0000 0.38920  0.97130  0.83980  Biso   1.000  N
  N6       1.0000 0.61080  0.97130  0.66020  Biso   1.000  N
  N7       1.0000 0.88920  0.47130  0.83980  Biso   1.000  N
  N8       1.0000 0.11080  0.47130  0.66020  Biso   1.000  N
  N9       1.0000 0.33390  0.78970  0.13550  Biso   1.000  N
  N10      1.0000 0.66610  0.78970  0.36450  Biso   1.000  N
  N11      1.0000 0.83390  0.28970  0.13550  Biso   1.000  N
  N12      1.0000 0.16610  0.28970  0.36450  Biso   1.000  N
  N13      1.0000 0.66610  0.21030  0.86450  Biso   1.000  N
  N14      1.0000 0.33390  0.21030  0.63550  Biso   1.000  N
  N15      1.0000 0.16610  0.71030  0.86450  Biso   1.000  N
  N16      1.0000 0.83390  0.71030  0.63550  Biso   1.000  N
  C225     1.0000 0.60990  0.96200  0.14120  Biso   1.000  C
  C226     1.0000 0.39010  0.96200  0.35880  Biso   1.000  C
  C227     1.0000 0.10990  0.46200  0.14120  Biso   1.000  C
  C228     1.0000 0.89010  0.46200  0.35880  Biso   1.000  C
  C229     1.0000 0.39010  0.03800  0.85880  Biso   1.000  C
  C230     1.0000 0.60990  0.03800  0.64120  Biso   1.000  C
  C231     1.0000 0.89010  0.53800  0.85880  Biso   1.000  C
  C232     1.0000 0.10990  0.53800  0.64120  Biso   1.000  C
  H161     1.0000 0.65000  0.94590  0.13420  Biso   1.000  H
  H162     1.0000 0.35000  0.94590  0.36580  Biso   1.000  H
  H163     1.0000 0.15000  0.44590  0.13420  Biso   1.000  H
  H164     1.0000 0.85000  0.44590  0.36580  Biso   1.000  H
  H165     1.0000 0.35000  0.05410  0.86580  Biso   1.000  H
  H166     1.0000 0.65000  0.05410  0.63420  Biso   1.000  H
  H167     1.0000 0.85000  0.55410  0.86580  Biso   1.000  H
  H168     1.0000 0.15000  0.55410  0.63420  Biso   1.000  H
  C233     1.0000 0.55480  0.91500  0.13100  Biso   1.000  C
  C234     1.0000 0.44520  0.91500  0.36900  Biso   1.000  C
  C235     1.0000 0.05480  0.41500  0.13100  Biso   1.000  C
  C236     1.0000 0.94520  0.41500  0.36900  Biso   1.000  C
  C237     1.0000 0.44520  0.08500  0.86900  Biso   1.000  C
  C238     1.0000 0.55480  0.08500  0.63100  Biso   1.000  C
  C239     1.0000 0.94520  0.58500  0.86900  Biso   1.000  C
  C240     1.0000 0.05480  0.58500  0.63100  Biso   1.000  C
  H169     1.0000 0.55660  0.86830  0.11590  Biso   1.000  H
  H170     1.0000 0.44340  0.86830  0.38410  Biso   1.000  H
  H171     1.0000 0.05660  0.36830  0.11590  Biso   1.000  H
  H172     1.0000 0.94340  0.36830  0.38410  Biso   1.000  H
  H173     1.0000 0.44340  0.13170  0.88410  Biso   1.000  H
  H174     1.0000 0.55660  0.13170  0.61590  Biso   1.000  H
  H175     1.0000 0.94340  0.63170  0.88410  Biso   1.000  H
  H176     1.0000 0.05660  0.63170  0.61590  Biso   1.000  H
  C241     1.0000 0.49640  0.93590  0.14280  Biso   1.000  C
  C242     1.0000 0.50360  0.93590  0.35720  Biso   1.000  C
  C243     1.0000 0.99640  0.43590  0.14280  Biso   1.000  C
  C244     1.0000 0.00360  0.43590  0.35720  Biso   1.000  C
  C245     1.0000 0.50360  0.06410  0.85720  Biso   1.000  C
  C246     1.0000 0.49640  0.06410  0.64280  Biso   1.000  C
  C247     1.0000 0.00360  0.56410  0.85720  Biso   1.000  C
  C248     1.0000 0.99640  0.56410  0.64280  Biso   1.000  C
  C249     1.0000 0.49820  0.00620  0.16440  Biso   1.000  C
  C250     1.0000 0.50180  0.00620  0.33560  Biso   1.000  C
  C251     1.0000 0.99820  0.50620  0.16440  Biso   1.000  C
  C252     1.0000 0.00180  0.50620  0.33560  Biso   1.000  C
  C253     1.0000 0.50180  0.99380  0.83560  Biso   1.000  C
  C254     1.0000 0.49820  0.99380  0.66440  Biso   1.000  C
  C255     1.0000 0.00180  0.49380  0.83560  Biso   1.000  C
  C256     1.0000 0.99820  0.49380  0.66440  Biso   1.000  C
  H177     1.0000 0.45960  0.02390  0.17300  Biso   1.000  H
  H178     1.0000 0.54040  0.02390  0.32700  Biso   1.000  H
  H179     1.0000 0.95960  0.52390  0.17300  Biso   1.000  H
  H180     1.0000 0.04040  0.52390  0.32700  Biso   1.000  H
  H181     1.0000 0.54040  0.97610  0.82700  Biso   1.000  H
  H182     1.0000 0.45960  0.97610  0.67300  Biso   1.000  H
  H183     1.0000 0.04040  0.47610  0.82700  Biso   1.000  H
  H184     1.0000 0.95960  0.47610  0.67300  Biso   1.000  H
  C257     1.0000 0.55630  0.04910  0.17300  Biso   1.000  C
  C258     1.0000 0.44370  0.04910  0.32700  Biso   1.000  C
  C259     1.0000 0.05630  0.54910  0.17300  Biso   1.000  C
  C260     1.0000 0.94370  0.54910  0.32700  Biso   1.000  C
  C261     1.0000 0.44370  0.95090  0.82700  Biso   1.000  C
  C262     1.0000 0.55630  0.95090  0.67300  Biso   1.000  C
  C263     1.0000 0.94370  0.45090  0.82700  Biso   1.000  C
  C264     1.0000 0.05630  0.45090  0.67300  Biso   1.000  C
  H185     1.0000 0.55730  0.09590  0.18900  Biso   1.000  H
  H186     1.0000 0.44270  0.09590  0.31100  Biso   1.000  H
  H187     1.0000 0.05730  0.59590  0.18900  Biso   1.000  H
  H188     1.0000 0.94270  0.59590  0.31100  Biso   1.000  H
  H189     1.0000 0.44270  0.90410  0.81100  Biso   1.000  H
  H190     1.0000 0.55730  0.90410  0.68900  Biso   1.000  H
  H191     1.0000 0.94270  0.40410  0.81100  Biso   1.000  H
  H192     1.0000 0.05730  0.40410  0.68900  Biso   1.000  H
  C265     1.0000 0.43920  0.88590  0.13930  Biso   1.000  C
  C266     1.0000 0.56080  0.88590  0.36070  Biso   1.000  C
  C267     1.0000 0.93920  0.38590  0.13930  Biso   1.000  C
  C268     1.0000 0.06080  0.38590  0.36070  Biso   1.000  C
  C269     1.0000 0.56080  0.11410  0.86070  Biso   1.000  C
  C270     1.0000 0.43920  0.11410  0.63930  Biso   1.000  C
  C271     1.0000 0.06080  0.61410  0.86070  Biso   1.000  C
  C272     1.0000 0.93920  0.61410  0.63930  Biso   1.000  C
  C273     1.0000 0.41900  0.82770  0.09560  Biso   1.000  C
  C274     1.0000 0.58100  0.82770  0.40440  Biso   1.000  C
  C275     1.0000 0.91900  0.32770  0.09560  Biso   1.000  C
  C276     1.0000 0.08100  0.32770  0.40440  Biso   1.000  C
  C277     1.0000 0.58100  0.17230  0.90440  Biso   1.000  C
  C278     1.0000 0.41900  0.17230  0.59560  Biso   1.000  C
  C279     1.0000 0.08100  0.67230  0.90440  Biso   1.000  C
  C280     1.0000 0.91900  0.67230  0.59560  Biso   1.000  C
  H193     1.0000 0.44140  0.81950  0.06620  Biso   1.000  H
  H194     1.0000 0.55860  0.81950  0.43380  Biso   1.000  H
  H195     1.0000 0.94140  0.31950  0.06620  Biso   1.000  H
  H196     1.0000 0.05860  0.31950  0.43380  Biso   1.000  H
  H197     1.0000 0.55860  0.18050  0.93380  Biso   1.000  H
  H198     1.0000 0.44140  0.18050  0.56620  Biso   1.000  H
  H199     1.0000 0.05860  0.68050  0.93380  Biso   1.000  H
  H200     1.0000 0.94140  0.68050  0.56620  Biso   1.000  H
  C281     1.0000 0.36600  0.78090  0.09440  Biso   1.000  C
  C282     1.0000 0.63400  0.78090  0.40560  Biso   1.000  C
  C283     1.0000 0.86600  0.28090  0.09440  Biso   1.000  C
  C284     1.0000 0.13400  0.28090  0.40560  Biso   1.000  C
  C285     1.0000 0.63400  0.21910  0.90560  Biso   1.000  C
  C286     1.0000 0.36600  0.21910  0.59440  Biso   1.000  C
  C287     1.0000 0.13400  0.71910  0.90560  Biso   1.000  C
  C288     1.0000 0.86600  0.71910  0.59440  Biso   1.000  C
  H201     1.0000 0.35220  0.74160  0.06340  Biso   1.000  H
  H202     1.0000 0.64780  0.74160  0.43660  Biso   1.000  H
  H203     1.0000 0.85220  0.24160  0.06340  Biso   1.000  H
  H204     1.0000 0.14780  0.24160  0.43660  Biso   1.000  H
  H205     1.0000 0.64780  0.25840  0.93660  Biso   1.000  H
  H206     1.0000 0.35220  0.25840  0.56340  Biso   1.000  H
  H207     1.0000 0.14780  0.75840  0.93660  Biso   1.000  H
  H208     1.0000 0.85220  0.75840  0.56340  Biso   1.000  H
  C289     1.0000 0.35280  0.84560  0.17740  Biso   1.000  C
  C290     1.0000 0.64720  0.84560  0.32260  Biso   1.000  C
  C291     1.0000 0.85280  0.34560  0.17740  Biso   1.000  C
  C292     1.0000 0.14720  0.34560  0.32260  Biso   1.000  C
  C293     1.0000 0.64720  0.15440  0.82260  Biso   1.000  C
  C294     1.0000 0.35280  0.15440  0.67740  Biso   1.000  C
  C295     1.0000 0.14720  0.65440  0.82260  Biso   1.000  C
  C296     1.0000 0.85280  0.65440  0.67740  Biso   1.000  C
  H209     1.0000 0.33050  0.85180  0.20720  Biso   1.000  H
  H210     1.0000 0.66950  0.85180  0.29280  Biso   1.000  H
  H211     1.0000 0.83050  0.35180  0.20720  Biso   1.000  H
  H212     1.0000 0.16950  0.35180  0.29280  Biso   1.000  H
  H213     1.0000 0.66950  0.14820  0.79280  Biso   1.000  H
  H214     1.0000 0.33050  0.14820  0.70720  Biso   1.000  H
  H215     1.0000 0.16950  0.64820  0.79280  Biso   1.000  H
  H216     1.0000 0.83050  0.64820  0.70720  Biso   1.000  H
  C297     1.0000 0.40310  0.89500  0.17990  Biso   1.000  C
  C298     1.0000 0.59690  0.89500  0.32010  Biso   1.000  C
  C299     1.0000 0.90310  0.39500  0.17990  Biso   1.000  C
  C300     1.0000 0.09690  0.39500  0.32010  Biso   1.000  C
  C301     1.0000 0.59690  0.10500  0.82010  Biso   1.000  C
  C302     1.0000 0.40310  0.10500  0.67990  Biso   1.000  C
  C303     1.0000 0.09690  0.60500  0.82010  Biso   1.000  C
  C304     1.0000 0.90310  0.60500  0.67990  Biso   1.000  C
  H217     1.0000 0.41330  0.93530  0.20940  Biso   1.000  H
  H218     1.0000 0.58670  0.93530  0.29060  Biso   1.000  H
  H219     1.0000 0.91330  0.43530  0.20940  Biso   1.000  H
  H220     1.0000 0.08670  0.43530  0.29060  Biso   1.000  H
  H221     1.0000 0.58670  0.06470  0.79060  Biso   1.000  H
  H222     1.0000 0.41330  0.06470  0.70940  Biso   1.000  H
  H223     1.0000 0.08670  0.56470  0.79060  Biso   1.000  H
  H224     1.0000 0.91330  0.56470  0.70940  Biso   1.000  H
