data_image0
_cell_length_a       9.134
_cell_length_b       8.811
_cell_length_c       18.013
_cell_angle_alpha    90
_cell_angle_beta     101.53
_cell_angle_gamma    90

_symmetry_space_group_name_H-M    "P 1"
_symmetry_int_tables_number       1

loop_
  _symmetry_equiv_pos_as_xyz
  'x, y, z'

loop_
  _atom_site_label
  _atom_site_occupancy
  _atom_site_fract_x
  _atom_site_fract_y
  _atom_site_fract_z
  _atom_site_thermal_displace_type
  _atom_site_B_iso_or_equiv
  _atom_site_type_symbol
  Ba1      1.0000 0.47070  0.05571  0.19897  Biso   1.000  Ba
  Ba2      1.0000 0.52930  0.55571  0.30103  Biso   1.000  Ba
  Ba3      1.0000 0.52930  0.94429  0.80103  Biso   1.000  Ba
  Ba4      1.0000 0.47070  0.44429  0.69897  Biso   1.000  Ba
  Cu1      1.0000 0.93765  0.17807  0.10522  Biso   1.000  Cu
  Cu2      1.0000 0.06235  0.67807  0.39478  Biso   1.000  Cu
  Cu3      1.0000 0.06235  0.82193  0.89478  Biso   1.000  Cu
  Cu4      1.0000 0.93765  0.32193  0.60522  Biso   1.000  Cu
  O1       1.0000 0.16617  0.18035  0.18431  Biso   1.000  O
  O2       1.0000 0.83383  0.68035  0.31569  Biso   1.000  O
  O3       1.0000 0.83383  0.81965  0.81569  Biso   1.000  O
  O4       1.0000 0.16617  0.31965  0.68431  Biso   1.000  O
  O5       1.0000 0.34802  0.34651  0.22060  Biso   1.000  O
  O6       1.0000 0.65198  0.84651  0.27940  Biso   1.000  O
  O7       1.0000 0.65198  0.65349  0.77940  Biso   1.000  O
  O8       1.0000 0.34802  0.15349  0.72060  Biso   1.000  O
  O9       1.0000 0.72680  0.28790  0.03097  Biso   1.000  O
  O10      1.0000 0.27320  0.78790  0.46903  Biso   1.000  O
  O11      1.0000 0.27320  0.71210  0.96903  Biso   1.000  O
  O12      1.0000 0.72680  0.21210  0.53097  Biso   1.000  O
  O13      1.0000 0.67453  0.51070  0.97389  Biso   1.000  O
  O14      1.0000 0.32547  0.01070  0.52611  Biso   1.000  O
  O15      1.0000 0.32547  0.48930  0.02611  Biso   1.000  O
  O16      1.0000 0.67453  0.98930  0.47389  Biso   1.000  O
  O17      1.0000 0.80567  0.15283  0.17935  Biso   1.000  O
  O18      1.0000 0.19433  0.65283  0.32065  Biso   1.000  O
  O19      1.0000 0.19433  0.84717  0.82065  Biso   1.000  O
  O20      1.0000 0.80567  0.34717  0.67935  Biso   1.000  O
  O21      1.0000 0.68939  0.29165  0.25209  Biso   1.000  O
  O22      1.0000 0.31061  0.79165  0.24791  Biso   1.000  O
  O23      1.0000 0.31061  0.70835  0.74791  Biso   1.000  O
  O24      1.0000 0.68939  0.20835  0.75209  Biso   1.000  O
  O25      1.0000 0.91285  0.96285  0.07541  Biso   1.000  O
  O26      1.0000 0.08715  0.46285  0.42459  Biso   1.000  O
  O27      1.0000 0.08715  0.03715  0.92459  Biso   1.000  O
  O28      1.0000 0.91285  0.53715  0.57541  Biso   1.000  O
  O29      1.0000 0.95889  0.80808  0.98368  Biso   1.000  O
  O30      1.0000 0.04111  0.30808  0.51632  Biso   1.000  O
  O31      1.0000 0.04111  0.19192  0.01632  Biso   1.000  O
  O32      1.0000 0.95889  0.69192  0.48368  Biso   1.000  O
  O33      1.0000 0.27256  0.88431  0.09556  Biso   1.000  O
  O34      1.0000 0.72744  0.38431  0.40444  Biso   1.000  O
  O35      1.0000 0.72744  0.11569  0.90444  Biso   1.000  O
  O36      1.0000 0.27256  0.61569  0.59556  Biso   1.000  O
  O37      1.0000 0.45074  0.20601  0.05883  Biso   1.000  O
  O38      1.0000 0.54926  0.70601  0.44117  Biso   1.000  O
  O39      1.0000 0.54926  0.79399  0.94117  Biso   1.000  O
  O40      1.0000 0.45074  0.29399  0.55883  Biso   1.000  O
  O41      1.0000 0.62148  0.88695  0.09838  Biso   1.000  O
  O42      1.0000 0.37852  0.38695  0.40162  Biso   1.000  O
  O43      1.0000 0.37852  0.11305  0.90162  Biso   1.000  O
  O44      1.0000 0.62148  0.61305  0.59838  Biso   1.000  O
  O45      1.0000 0.45785  0.09775  0.34980  Biso   1.000  O
  O46      1.0000 0.54215  0.59775  0.15020  Biso   1.000  O
  O47      1.0000 0.54215  0.90225  0.65020  Biso   1.000  O
  O48      1.0000 0.45785  0.40225  0.84980  Biso   1.000  O
  N1       1.0000 0.95593  0.40127  0.13881  Biso   1.000  N
  N2       1.0000 0.04407  0.90127  0.36119  Biso   1.000  N
  N3       1.0000 0.04407  0.59873  0.86119  Biso   1.000  N
  N4       1.0000 0.95593  0.09873  0.63881  Biso   1.000  N
  C1       1.0000 0.11672  0.44314  0.15618  Biso   1.000  C
  C2       1.0000 0.88328  0.94314  0.34382  Biso   1.000  C
  C3       1.0000 0.88328  0.55686  0.84382  Biso   1.000  C
  C4       1.0000 0.11672  0.05686  0.65618  Biso   1.000  C
  C5       1.0000 0.21649  0.31336  0.19051  Biso   1.000  C
  C6       1.0000 0.78351  0.81336  0.30949  Biso   1.000  C
  C7       1.0000 0.78351  0.68664  0.80949  Biso   1.000  C
  C8       1.0000 0.21649  0.18664  0.69051  Biso   1.000  C
  C9       1.0000 0.87107  0.50400  0.08050  Biso   1.000  C
  C10      1.0000 0.12893  0.00400  0.41950  Biso   1.000  C
  C11      1.0000 0.12893  0.49600  0.91950  Biso   1.000  C
  C12      1.0000 0.87107  0.99600  0.58050  Biso   1.000  C
  C13      1.0000 0.74737  0.42882  0.02424  Biso   1.000  C
  C14      1.0000 0.25263  0.92882  0.47576  Biso   1.000  C
  C15      1.0000 0.25263  0.57118  0.97576  Biso   1.000  C
  C16      1.0000 0.74737  0.07118  0.52424  Biso   1.000  C
  C17      1.0000 0.89409  0.40449  0.20875  Biso   1.000  C
  C18      1.0000 0.10591  0.90449  0.29125  Biso   1.000  C
  C19      1.0000 0.10591  0.59551  0.79125  Biso   1.000  C
  C20      1.0000 0.89409  0.09551  0.70875  Biso   1.000  C
  C21      1.0000 0.78681  0.27510  0.21302  Biso   1.000  C
  C22      1.0000 0.21319  0.77510  0.28698  Biso   1.000  C
  C23      1.0000 0.21319  0.72490  0.78698  Biso   1.000  C
  C24      1.0000 0.78681  0.22490  0.71302  Biso   1.000  C
  C25      1.0000 0.96240  0.93348  0.01676  Biso   1.000  C
  C26      1.0000 0.03760  0.43348  0.48324  Biso   1.000  C
  C27      1.0000 0.03760  0.06652  0.98324  Biso   1.000  C
  C28      1.0000 0.96240  0.56652  0.51676  Biso   1.000  C
  H1       1.0000 0.31120  0.82600  0.06120  Biso   1.000  H
  H2       1.0000 0.68880  0.32600  0.43880  Biso   1.000  H
  H3       1.0000 0.68880  0.17400  0.93880  Biso   1.000  H
  H4       1.0000 0.31120  0.67400  0.56120  Biso   1.000  H
  H5       1.0000 0.23500  0.81400  0.12360  Biso   1.000  H
  H6       1.0000 0.76500  0.31400  0.37640  Biso   1.000  H
  H7       1.0000 0.76500  0.18600  0.87640  Biso   1.000  H
  H8       1.0000 0.23500  0.68600  0.62360  Biso   1.000  H
  H9       1.0000 0.52100  0.22380  0.04670  Biso   1.000  H
  H10      1.0000 0.47900  0.72380  0.45330  Biso   1.000  H
  H11      1.0000 0.47900  0.77620  0.95330  Biso   1.000  H
  H12      1.0000 0.52100  0.27620  0.54670  Biso   1.000  H
  H13      1.0000 0.40690  0.26610  0.05300  Biso   1.000  H
  H14      1.0000 0.59310  0.76610  0.44700  Biso   1.000  H
  H15      1.0000 0.59310  0.73390  0.94700  Biso   1.000  H
  H16      1.0000 0.40690  0.23390  0.55300  Biso   1.000  H
  H17      1.0000 0.71360  0.90190  0.10280  Biso   1.000  H
  H18      1.0000 0.28640  0.40190  0.39720  Biso   1.000  H
  H19      1.0000 0.28640  0.09810  0.89720  Biso   1.000  H
  H20      1.0000 0.71360  0.59810  0.60280  Biso   1.000  H
  H21      1.0000 0.59480  0.87390  0.05580  Biso   1.000  H
  H22      1.0000 0.40520  0.37390  0.44420  Biso   1.000  H
  H23      1.0000 0.40520  0.12610  0.94420  Biso   1.000  H
  H24      1.0000 0.59480  0.62610  0.55580  Biso   1.000  H
  H25      1.0000 0.44080  0.17820  0.36140  Biso   1.000  H
  H26      1.0000 0.55920  0.67820  0.13860  Biso   1.000  H
  H27      1.0000 0.55920  0.82180  0.63860  Biso   1.000  H
  H28      1.0000 0.44080  0.32180  0.86140  Biso   1.000  H
  H29      1.0000 0.52850  0.07910  0.37940  Biso   1.000  H
  H30      1.0000 0.47150  0.57910  0.12060  Biso   1.000  H
  H31      1.0000 0.47150  0.92090  0.62060  Biso   1.000  H
  H32      1.0000 0.52850  0.42090  0.87940  Biso   1.000  H
  H33      1.0000 0.13510  0.53810  0.18670  Biso   1.000  H
  H34      1.0000 0.86490  0.03810  0.31330  Biso   1.000  H
  H35      1.0000 0.86490  0.46190  0.81330  Biso   1.000  H
  H36      1.0000 0.13510  0.96190  0.68670  Biso   1.000  H
  H37      1.0000 0.14320  0.47200  0.10890  Biso   1.000  H
  H38      1.0000 0.85680  0.97200  0.39110  Biso   1.000  H
  H39      1.0000 0.85680  0.52800  0.89110  Biso   1.000  H
  H40      1.0000 0.14320  0.02800  0.60890  Biso   1.000  H
  H41      1.0000 0.94910  0.54040  0.04610  Biso   1.000  H
  H42      1.0000 0.05090  0.04040  0.45390  Biso   1.000  H
  H43      1.0000 0.05090  0.45960  0.95390  Biso   1.000  H
  H44      1.0000 0.94910  0.95960  0.54610  Biso   1.000  H
  H45      1.0000 0.82310  0.58880  0.10370  Biso   1.000  H
  H46      1.0000 0.17690  0.08880  0.39630  Biso   1.000  H
  H47      1.0000 0.17690  0.41120  0.89630  Biso   1.000  H
  H48      1.0000 0.82310  0.91120  0.60370  Biso   1.000  H
  H49      1.0000 0.97420  0.38410  0.24840  Biso   1.000  H
  H50      1.0000 0.02580  0.88410  0.25160  Biso   1.000  H
  H51      1.0000 0.02580  0.61590  0.75160  Biso   1.000  H
  H52      1.0000 0.97420  0.11590  0.74840  Biso   1.000  H
  H53      1.0000 0.83100  0.49880  0.21350  Biso   1.000  H
  H54      1.0000 0.16900  0.99880  0.28650  Biso   1.000  H
  H55      1.0000 0.16900  0.50120  0.78650  Biso   1.000  H
  H56      1.0000 0.83100  0.00120  0.71350  Biso   1.000  H
