data_image0
_cell_length_a       5.1435
_cell_length_b       7.2931
_cell_length_c       7.5198
_cell_angle_alpha    105.94
_cell_angle_beta     98.731
_cell_angle_gamma    101.981

_symmetry_space_group_name_H-M    "P 1"
_symmetry_int_tables_number       1

loop_
  _symmetry_equiv_pos_as_xyz
  'x, y, z'

loop_
  _atom_site_label
  _atom_site_occupancy
  _atom_site_fract_x
  _atom_site_fract_y
  _atom_site_fract_z
  _atom_site_thermal_displace_type
  _atom_site_B_iso_or_equiv
  _atom_site_type_symbol
  C1       1.0000 0.44640  0.26510  0.09360  Biso   1.000  C
  C2       1.0000 0.55360  0.73490  0.90640  Biso   1.000  C
  H1       1.0000 0.41170  0.14350  0.98960  Biso   1.000  H
  H2       1.0000 0.58830  0.85650  0.01040  Biso   1.000  H
  H3       1.0000 0.56000  0.37010  0.06190  Biso   1.000  H
  H4       1.0000 0.44000  0.62990  0.93810  Biso   1.000  H
  C3       1.0000 0.17940  0.31280  0.11850  Biso   1.000  C
  C4       1.0000 0.82060  0.68720  0.88150  Biso   1.000  C
  H5       1.0000 0.09290  0.33380  0.00450  Biso   1.000  H
  H6       1.0000 0.90710  0.66620  0.99550  Biso   1.000  H
  H7       1.0000 0.05870  0.20190  0.13730  Biso   1.000  H
  H8       1.0000 0.94130  0.79810  0.86270  Biso   1.000  H
  C5       1.0000 0.89990  0.85200  0.46200  Biso   1.000  C
  C6       1.0000 0.10010  0.14800  0.53800  Biso   1.000  C
  C7       1.0000 0.12940  0.96540  0.40910  Biso   1.000  C
  C8       1.0000 0.87060  0.03460  0.59090  Biso   1.000  C
  N1       1.0000 0.22210  0.49000  0.28130  Biso   1.000  N
  N2       1.0000 0.77790  0.51000  0.71870  Biso   1.000  N
  H9       1.0000 0.06330  0.49240  0.31710  Biso   1.000  H
  H10      1.0000 0.93670  0.50760  0.68290  Biso   1.000  H
  H11      1.0000 0.27520  0.59790  0.24620  Biso   1.000  H
  H12      1.0000 0.72480  0.40210  0.75380  Biso   1.000  H
  O1       1.0000 0.58700  0.24360  0.26300  Biso   1.000  O
  O2       1.0000 0.41300  0.75640  0.73700  Biso   1.000  O
  O3       1.0000 0.78610  0.67120  0.41220  Biso   1.000  O
  O4       1.0000 0.21390  0.32880  0.58780  Biso   1.000  O
  O5       1.0000 0.28050  0.92000  0.29930  Biso   1.000  O
  O6       1.0000 0.71950  0.08000  0.70070  Biso   1.000  O
  Cu1      1.0000 0.50000  0.50000  0.50000  Biso   1.000  Cu
  H13      1.0000 0.49900  0.14100  0.27100  Biso   1.000  H
  H14      1.0000 0.50100  0.85900  0.72900  Biso   1.000  H
