data_image0
_cell_length_a       9.6639
_cell_length_b       15.692
_cell_length_c       10.083
_cell_angle_alpha    90
_cell_angle_beta     111.69
_cell_angle_gamma    90

_symmetry_space_group_name_H-M    "P 1"
_symmetry_int_tables_number       1

loop_
  _symmetry_equiv_pos_as_xyz
  'x, y, z'

loop_
  _atom_site_label
  _atom_site_occupancy
  _atom_site_fract_x
  _atom_site_fract_y
  _atom_site_fract_z
  _atom_site_thermal_displace_type
  _atom_site_B_iso_or_equiv
  _atom_site_type_symbol
  Cu1      1.0000 0.37524  0.16091  0.75733  Biso   1.000  Cu
  Cu2      1.0000 0.62476  0.66091  0.74267  Biso   1.000  Cu
  Cu3      1.0000 0.62476  0.83909  0.24267  Biso   1.000  Cu
  Cu4      1.0000 0.37524  0.33909  0.25733  Biso   1.000  Cu
  N1       1.0000 0.27871  0.07120  0.60987  Biso   1.000  N
  N2       1.0000 0.72129  0.57120  0.89013  Biso   1.000  N
  N3       1.0000 0.72129  0.92880  0.39013  Biso   1.000  N
  N4       1.0000 0.27871  0.42880  0.10987  Biso   1.000  N
  N5       1.0000 0.52056  0.06652  0.83814  Biso   1.000  N
  N6       1.0000 0.47944  0.56652  0.66186  Biso   1.000  N
  N7       1.0000 0.47944  0.93348  0.16186  Biso   1.000  N
  N8       1.0000 0.52056  0.43348  0.33814  Biso   1.000  N
  C1       1.0000 0.15560  0.08109  0.49430  Biso   1.000  C
  C2       1.0000 0.84440  0.58109  0.00570  Biso   1.000  C
  C3       1.0000 0.84440  0.91891  0.50570  Biso   1.000  C
  C4       1.0000 0.15560  0.41891  0.99430  Biso   1.000  C
  H1       1.0000 0.09520  0.12810  0.48900  Biso   1.000  H
  H2       1.0000 0.90480  0.62810  0.01100  Biso   1.000  H
  H3       1.0000 0.90480  0.87190  0.51100  Biso   1.000  H
  H4       1.0000 0.09520  0.37190  0.98900  Biso   1.000  H
  C5       1.0000 0.11400  0.02389  0.38180  Biso   1.000  C
  C6       1.0000 0.88600  0.52389  0.11820  Biso   1.000  C
  C7       1.0000 0.88600  0.97611  0.61820  Biso   1.000  C
  C8       1.0000 0.11400  0.47611  0.88180  Biso   1.000  C
  H5       1.0000 0.02680  0.03190  0.30280  Biso   1.000  H
  H6       1.0000 0.97320  0.53190  0.19720  Biso   1.000  H
  H7       1.0000 0.97320  0.96810  0.69720  Biso   1.000  H
  H8       1.0000 0.02680  0.46810  0.80280  Biso   1.000  H
  C9       1.0000 0.20500  0.95468  0.38960  Biso   1.000  C
  C10      1.0000 0.79500  0.45468  0.11040  Biso   1.000  C
  C11      1.0000 0.79500  0.04532  0.61040  Biso   1.000  C
  C12      1.0000 0.20500  0.54532  0.88960  Biso   1.000  C
  H9       1.0000 0.18090  0.91620  0.31430  Biso   1.000  H
  H10      1.0000 0.81910  0.41620  0.18570  Biso   1.000  H
  H11      1.0000 0.81910  0.08380  0.68570  Biso   1.000  H
  H12      1.0000 0.18090  0.58380  0.81430  Biso   1.000  H
  C13      1.0000 0.33190  0.94297  0.50950  Biso   1.000  C
  C14      1.0000 0.66810  0.44297  0.99050  Biso   1.000  C
  C15      1.0000 0.66810  0.05703  0.49050  Biso   1.000  C
  C16      1.0000 0.33190  0.55703  0.00950  Biso   1.000  C
  H13      1.0000 0.39370  0.89640  0.51650  Biso   1.000  H
  H14      1.0000 0.60630  0.39640  0.98350  Biso   1.000  H
  H15      1.0000 0.60630  0.10360  0.48350  Biso   1.000  H
  H16      1.0000 0.39370  0.60360  0.01650  Biso   1.000  H
  C17      1.0000 0.36580  0.00228  0.61970  Biso   1.000  C
  C18      1.0000 0.63420  0.50228  0.88030  Biso   1.000  C
  C19      1.0000 0.63420  0.99772  0.38030  Biso   1.000  C
  C20      1.0000 0.36580  0.49772  0.11970  Biso   1.000  C
  C21      1.0000 0.49860  0.99717  0.75240  Biso   1.000  C
  C22      1.0000 0.50140  0.49717  0.74760  Biso   1.000  C
  C23      1.0000 0.50140  0.00283  0.24760  Biso   1.000  C
  C24      1.0000 0.49860  0.50283  0.25240  Biso   1.000  C
  C25      1.0000 0.59490  0.92838  0.78980  Biso   1.000  C
  C26      1.0000 0.40510  0.42838  0.71020  Biso   1.000  C
  C27      1.0000 0.40510  0.07162  0.21020  Biso   1.000  C
  C28      1.0000 0.59490  0.57162  0.28980  Biso   1.000  C
  H17      1.0000 0.57820  0.88110  0.73030  Biso   1.000  H
  H18      1.0000 0.42180  0.38110  0.76970  Biso   1.000  H
  H19      1.0000 0.42180  0.11890  0.26970  Biso   1.000  H
  H20      1.0000 0.57820  0.61890  0.23030  Biso   1.000  H
  C29      1.0000 0.71640  0.93089  0.91720  Biso   1.000  C
  C30      1.0000 0.28360  0.43089  0.58280  Biso   1.000  C
  C31      1.0000 0.28360  0.06911  0.08280  Biso   1.000  C
  C32      1.0000 0.71640  0.56911  0.41720  Biso   1.000  C
  H21      1.0000 0.78300  0.88550  0.94390  Biso   1.000  H
  H22      1.0000 0.21700  0.38550  0.55610  Biso   1.000  H
  H23      1.0000 0.21700  0.11450  0.05610  Biso   1.000  H
  H24      1.0000 0.78300  0.61450  0.44390  Biso   1.000  H
  C33      1.0000 0.73760  0.00160  0.00420  Biso   1.000  C
  C34      1.0000 0.26240  0.50160  0.49580  Biso   1.000  C
  C35      1.0000 0.26240  0.99840  0.99580  Biso   1.000  C
  C36      1.0000 0.73760  0.49840  0.50420  Biso   1.000  C
  H25      1.0000 0.81790  0.00410  0.09080  Biso   1.000  H
  H26      1.0000 0.18210  0.50410  0.40920  Biso   1.000  H
  H27      1.0000 0.18210  0.99590  0.90920  Biso   1.000  H
  H28      1.0000 0.81790  0.49590  0.59080  Biso   1.000  H
  C37      1.0000 0.63800  0.06861  0.96080  Biso   1.000  C
  C38      1.0000 0.36200  0.56861  0.53920  Biso   1.000  C
  C39      1.0000 0.36200  0.93139  0.03920  Biso   1.000  C
  C40      1.0000 0.63800  0.43139  0.46080  Biso   1.000  C
  H29      1.0000 0.65320  0.11650  0.01880  Biso   1.000  H
  H30      1.0000 0.34680  0.61650  0.48120  Biso   1.000  H
  H31      1.0000 0.34680  0.88350  0.98120  Biso   1.000  H
  H32      1.0000 0.65320  0.38350  0.51880  Biso   1.000  H
  O1       1.0000 0.21318  0.24305  0.67693  Biso   1.000  O
  O2       1.0000 0.78682  0.74305  0.82307  Biso   1.000  O
  O3       1.0000 0.78682  0.75695  0.32307  Biso   1.000  O
  O4       1.0000 0.21318  0.25695  0.17693  Biso   1.000  O
  O5       1.0000 0.08930  0.18554  0.80244  Biso   1.000  O
  O6       1.0000 0.91070  0.68554  0.69756  Biso   1.000  O
  O7       1.0000 0.91070  0.81446  0.19756  Biso   1.000  O
  O8       1.0000 0.08930  0.31446  0.30244  Biso   1.000  O
  C41      1.0000 0.10400  0.23887  0.71770  Biso   1.000  C
  C42      1.0000 0.89600  0.73887  0.78230  Biso   1.000  C
  C43      1.0000 0.89600  0.76113  0.28230  Biso   1.000  C
  C44      1.0000 0.10400  0.26113  0.21770  Biso   1.000  C
  H33      1.0000 0.02870  0.27910  0.68120  Biso   1.000  H
  H34      1.0000 0.97130  0.77910  0.81880  Biso   1.000  H
  H35      1.0000 0.97130  0.72090  0.31880  Biso   1.000  H
  H36      1.0000 0.02870  0.22090  0.18120  Biso   1.000  H
  O9       1.0000 0.48174  0.23548  0.91633  Biso   1.000  O
  O10      1.0000 0.51826  0.73548  0.58367  Biso   1.000  O
  O11      1.0000 0.51826  0.76452  0.08367  Biso   1.000  O
  O12      1.0000 0.48174  0.26452  0.41633  Biso   1.000  O
  O13      1.0000 0.49916  0.29672  0.12067  Biso   1.000  O
  O14      1.0000 0.50084  0.79672  0.37933  Biso   1.000  O
  O15      1.0000 0.50084  0.70328  0.87933  Biso   1.000  O
  O16      1.0000 0.49916  0.20328  0.62067  Biso   1.000  O
  C45      1.0000 0.42970  0.25646  0.01070  Biso   1.000  C
  C46      1.0000 0.57030  0.75646  0.48930  Biso   1.000  C
  C47      1.0000 0.57030  0.74354  0.98930  Biso   1.000  C
  C48      1.0000 0.42970  0.24354  0.51070  Biso   1.000  C
  H37      1.0000 0.33250  0.24040  0.99580  Biso   1.000  H
  H38      1.0000 0.66750  0.74040  0.50420  Biso   1.000  H
  H39      1.0000 0.66750  0.75960  0.00420  Biso   1.000  H
  H40      1.0000 0.33250  0.25960  0.49580  Biso   1.000  H
  O17      1.0000 0.82585  0.33536  0.77809  Biso   1.000  O
  O18      1.0000 0.17415  0.83536  0.72191  Biso   1.000  O
  O19      1.0000 0.17415  0.66464  0.22191  Biso   1.000  O
  O20      1.0000 0.82585  0.16464  0.27809  Biso   1.000  O
  O21      1.0000 0.86199  0.20494  0.87720  Biso   1.000  O
  O22      1.0000 0.13801  0.70494  0.62280  Biso   1.000  O
  O23      1.0000 0.13801  0.79506  0.12280  Biso   1.000  O
  O24      1.0000 0.86199  0.29506  0.37720  Biso   1.000  O
  C49      1.0000 0.78920  0.27710  0.83580  Biso   1.000  C
  C50      1.0000 0.21080  0.77710  0.66420  Biso   1.000  C
  C51      1.0000 0.21080  0.72290  0.16420  Biso   1.000  C
  C52      1.0000 0.78920  0.22290  0.33580  Biso   1.000  C
  H41      1.0000 0.70140  0.28370  0.85250  Biso   1.000  H
  H42      1.0000 0.29860  0.78370  0.64750  Biso   1.000  H
  H43      1.0000 0.29860  0.71630  0.14750  Biso   1.000  H
  H44      1.0000 0.70140  0.21630  0.35250  Biso   1.000  H
  H45      1.0000 0.95160  0.20250  0.86400  Biso   1.000  H
  H46      1.0000 0.04840  0.70250  0.63600  Biso   1.000  H
  H47      1.0000 0.04840  0.79750  0.13600  Biso   1.000  H
  H48      1.0000 0.95160  0.29750  0.36400  Biso   1.000  H
