data_image0
_cell_length_a       5.0328
_cell_length_b       24.855
_cell_length_c       11.176
_cell_angle_alpha    90
_cell_angle_beta     99.35
_cell_angle_gamma    90

_symmetry_space_group_name_H-M    "P 1"
_symmetry_int_tables_number       1

loop_
  _symmetry_equiv_pos_as_xyz
  'x, y, z'

loop_
  _atom_site_label
  _atom_site_occupancy
  _atom_site_fract_x
  _atom_site_fract_y
  _atom_site_fract_z
  _atom_site_thermal_displace_type
  _atom_site_B_iso_or_equiv
  _atom_site_type_symbol
  Cu1      1.0000 0.21406  0.61350  0.19775  Biso   1.000  Cu
  Cu2      1.0000 0.21406  0.38650  0.69775  Biso   1.000  Cu
  Cu3      1.0000 0.71406  0.11350  0.19775  Biso   1.000  Cu
  Cu4      1.0000 0.71406  0.88650  0.69775  Biso   1.000  Cu
  O1       1.0000 0.40140  0.67043  0.30300  Biso   1.000  O
  O2       1.0000 0.40140  0.32957  0.80300  Biso   1.000  O
  O3       1.0000 0.90140  0.17043  0.30300  Biso   1.000  O
  O4       1.0000 0.90140  0.82957  0.80300  Biso   1.000  O
  O5       1.0000 0.58150  0.39856  0.59750  Biso   1.000  O
  O6       1.0000 0.58150  0.60144  0.09750  Biso   1.000  O
  O7       1.0000 0.08150  0.89856  0.59750  Biso   1.000  O
  O8       1.0000 0.08150  0.10144  0.09750  Biso   1.000  O
  C1       1.0000 0.38560  0.73227  0.46160  Biso   1.000  C
  C2       1.0000 0.38560  0.26773  0.96160  Biso   1.000  C
  C3       1.0000 0.88560  0.23227  0.46160  Biso   1.000  C
  C4       1.0000 0.88560  0.76773  0.96160  Biso   1.000  C
  C5       1.0000 0.28190  0.68247  0.39150  Biso   1.000  C
  C6       1.0000 0.28190  0.31753  0.89150  Biso   1.000  C
  C7       1.0000 0.78190  0.18247  0.39150  Biso   1.000  C
  C8       1.0000 0.78190  0.81753  0.89150  Biso   1.000  C
  C9       1.0000 0.27720  0.74810  0.56360  Biso   1.000  C
  C10      1.0000 0.27720  0.25190  0.06360  Biso   1.000  C
  C11      1.0000 0.77720  0.24810  0.56360  Biso   1.000  C
  C12      1.0000 0.77720  0.75190  0.06360  Biso   1.000  C
  H1       1.0000 0.14280  0.72770  0.58990  Biso   1.000  H
  H2       1.0000 0.14280  0.27230  0.08990  Biso   1.000  H
  H3       1.0000 0.64280  0.22770  0.58990  Biso   1.000  H
  H4       1.0000 0.64280  0.77230  0.08990  Biso   1.000  H
  O9       1.0000 0.09180  0.65768  0.42010  Biso   1.000  O
  O10      1.0000 0.09180  0.34232  0.92010  Biso   1.000  O
  O11      1.0000 0.59180  0.15768  0.42010  Biso   1.000  O
  O12      1.0000 0.59180  0.84232  0.92010  Biso   1.000  O
  N1       1.0000 0.37940  0.55498  0.31290  Biso   1.000  N
  N2       1.0000 0.37940  0.44502  0.81290  Biso   1.000  N
  N3       1.0000 0.87940  0.05498  0.31290  Biso   1.000  N
  N4       1.0000 0.87940  0.94502  0.81290  Biso   1.000  N
  C13      1.0000 0.36010  0.46840  0.40510  Biso   1.000  C
  C14      1.0000 0.36010  0.53160  0.90510  Biso   1.000  C
  C15      1.0000 0.86010  0.96840  0.40510  Biso   1.000  C
  C16      1.0000 0.86010  0.03160  0.90510  Biso   1.000  C
  H5       1.0000 0.26600  0.43650  0.41060  Biso   1.000  H
  H6       1.0000 0.26600  0.56350  0.91060  Biso   1.000  H
  H7       1.0000 0.76600  0.93650  0.41060  Biso   1.000  H
  H8       1.0000 0.76600  0.06350  0.91060  Biso   1.000  H
  C17      1.0000 0.25600  0.50785  0.32320  Biso   1.000  C
  C18      1.0000 0.25600  0.49215  0.82320  Biso   1.000  C
  C19      1.0000 0.75600  0.00785  0.32320  Biso   1.000  C
  C20      1.0000 0.75600  0.99215  0.82320  Biso   1.000  C
  H9       1.0000 0.09290  0.50130  0.27300  Biso   1.000  H
  H10      1.0000 0.09290  0.49870  0.77300  Biso   1.000  H
  H11      1.0000 0.59290  0.00130  0.27300  Biso   1.000  H
  H12      1.0000 0.59290  0.99870  0.77300  Biso   1.000  H
  C21      1.0000 0.73430  0.52603  0.46680  Biso   1.000  C
  C22      1.0000 0.73430  0.47397  0.96680  Biso   1.000  C
  C23      1.0000 0.23430  0.02603  0.46680  Biso   1.000  C
  C24      1.0000 0.23430  0.97397  0.96680  Biso   1.000  C
  H13      1.0000 0.89960  0.53340  0.51440  Biso   1.000  H
  H14      1.0000 0.89960  0.46660  0.01440  Biso   1.000  H
  H15      1.0000 0.39960  0.03340  0.51440  Biso   1.000  H
  H16      1.0000 0.39960  0.96660  0.01440  Biso   1.000  H
  C25      1.0000 0.60620  0.47689  0.47890  Biso   1.000  C
  C26      1.0000 0.60620  0.52311  0.97890  Biso   1.000  C
  C27      1.0000 0.10620  0.97689  0.47890  Biso   1.000  C
  C28      1.0000 0.10620  0.02311  0.97890  Biso   1.000  C
  C29      1.0000 0.72670  0.43450  0.56760  Biso   1.000  C
  C30      1.0000 0.72670  0.56550  0.06760  Biso   1.000  C
  C31      1.0000 0.22670  0.93450  0.56760  Biso   1.000  C
  C32      1.0000 0.22670  0.06550  0.06760  Biso   1.000  C
  C33      1.0000 0.61480  0.56369  0.38390  Biso   1.000  C
  C34      1.0000 0.61480  0.43631  0.88390  Biso   1.000  C
  C35      1.0000 0.11480  0.06369  0.38390  Biso   1.000  C
  C36      1.0000 0.11480  0.93631  0.88390  Biso   1.000  C
  H17      1.0000 0.70220  0.59630  0.37750  Biso   1.000  H
  H18      1.0000 0.70220  0.40370  0.87750  Biso   1.000  H
  H19      1.0000 0.20220  0.09630  0.37750  Biso   1.000  H
  H20      1.0000 0.20220  0.90370  0.87750  Biso   1.000  H
  O13      1.0000 0.97890  0.43926  0.60420  Biso   1.000  O
  O14      1.0000 0.97890  0.56074  0.10420  Biso   1.000  O
  O15      1.0000 0.47890  0.93926  0.60420  Biso   1.000  O
  O16      1.0000 0.47890  0.06074  0.10420  Biso   1.000  O
  N5       1.0000 0.56560  0.82482  0.59050  Biso   1.000  N
  N6       1.0000 0.56560  0.17518  0.09050  Biso   1.000  N
  N7       1.0000 0.06560  0.32482  0.59050  Biso   1.000  N
  N8       1.0000 0.06560  0.67518  0.09050  Biso   1.000  N
  C37      1.0000 0.58320  0.76446  0.42520  Biso   1.000  C
  C38      1.0000 0.58320  0.23554  0.92520  Biso   1.000  C
  C39      1.0000 0.08320  0.26446  0.42520  Biso   1.000  C
  C40      1.0000 0.08320  0.73554  0.92520  Biso   1.000  C
  H21      1.0000 0.65890  0.75550  0.35730  Biso   1.000  H
  H22      1.0000 0.65890  0.24450  0.85730  Biso   1.000  H
  H23      1.0000 0.15890  0.25550  0.35730  Biso   1.000  H
  H24      1.0000 0.15890  0.74450  0.85730  Biso   1.000  H
  C41      1.0000 0.66660  0.81063  0.49230  Biso   1.000  C
  C42      1.0000 0.66660  0.18937  0.99230  Biso   1.000  C
  C43      1.0000 0.16660  0.31063  0.49230  Biso   1.000  C
  C44      1.0000 0.16660  0.68937  0.99230  Biso   1.000  C
  H25      1.0000 0.79800  0.83230  0.46730  Biso   1.000  H
  H26      1.0000 0.79800  0.16770  0.96730  Biso   1.000  H
  H27      1.0000 0.29800  0.33230  0.46730  Biso   1.000  H
  H28      1.0000 0.29800  0.66770  0.96730  Biso   1.000  H
  C45      1.0000 0.37160  0.79422  0.62500  Biso   1.000  C
  C46      1.0000 0.37160  0.20578  0.12500  Biso   1.000  C
  C47      1.0000 0.87160  0.29422  0.62500  Biso   1.000  C
  C48      1.0000 0.87160  0.70578  0.12500  Biso   1.000  C
  H29      1.0000 0.29820  0.80450  0.69270  Biso   1.000  H
  H30      1.0000 0.29820  0.19550  0.19270  Biso   1.000  H
  H31      1.0000 0.79820  0.30450  0.69270  Biso   1.000  H
  H32      1.0000 0.79820  0.69550  0.19270  Biso   1.000  H
  O17      1.0000 0.07000  0.62710  0.67400  Biso   1.000  O
  O18      1.0000 0.07000  0.37290  0.17400  Biso   1.000  O
  O19      1.0000 0.57000  0.12710  0.67400  Biso   1.000  O
  O20      1.0000 0.57000  0.87290  0.17400  Biso   1.000  O
  C49      1.0000 0.64900  0.64110  0.78300  Biso   1.000  C
  C50      1.0000 0.64900  0.35890  0.28300  Biso   1.000  C
  C51      1.0000 0.14900  0.14110  0.78300  Biso   1.000  C
  C52      1.0000 0.14900  0.85890  0.28300  Biso   1.000  C
  H33      1.0000 0.45980  0.64370  0.75230  Biso   1.000  H
  H34      1.0000 0.45980  0.35630  0.25230  Biso   1.000  H
  H35      1.0000 0.95980  0.14370  0.75230  Biso   1.000  H
  H36      1.0000 0.95980  0.85630  0.25230  Biso   1.000  H
  H37      1.0000 0.70480  0.67160  0.83320  Biso   1.000  H
  H38      1.0000 0.70480  0.32840  0.33320  Biso   1.000  H
  H39      1.0000 0.20480  0.17160  0.83320  Biso   1.000  H
  H40      1.0000 0.20480  0.82840  0.33320  Biso   1.000  H
  H41      1.0000 0.68410  0.60870  0.82950  Biso   1.000  H
  H42      1.0000 0.68410  0.39130  0.32950  Biso   1.000  H
  H43      1.0000 0.18410  0.10870  0.82950  Biso   1.000  H
  H44      1.0000 0.18410  0.89130  0.32950  Biso   1.000  H
  C53      1.0000 0.82100  0.63980  0.66600  Biso   1.000  C
  C54      1.0000 0.82100  0.36020  0.16600  Biso   1.000  C
  C55      1.0000 0.32100  0.13980  0.66600  Biso   1.000  C
  C56      1.0000 0.32100  0.86020  0.16600  Biso   1.000  C
  H45      1.0000 0.72310  0.61560  0.60650  Biso   1.000  H
  H46      1.0000 0.72310  0.38440  0.10650  Biso   1.000  H
  H47      1.0000 0.22310  0.11560  0.60650  Biso   1.000  H
  H48      1.0000 0.22310  0.88440  0.10650  Biso   1.000  H
  H49      1.0000 0.80340  0.67540  0.63040  Biso   1.000  H
  H50      1.0000 0.80340  0.32460  0.13040  Biso   1.000  H
  H51      1.0000 0.30340  0.17540  0.63040  Biso   1.000  H
  H52      1.0000 0.30340  0.82460  0.13040  Biso   1.000  H
