data_image0
_cell_length_a       5.1186
_cell_length_b       24.6268
_cell_length_c       11.3254
_cell_angle_alpha    90
_cell_angle_beta     100.021
_cell_angle_gamma    90

_symmetry_space_group_name_H-M    "P 1"
_symmetry_int_tables_number       1

loop_
  _symmetry_equiv_pos_as_xyz
  'x, y, z'

loop_
  _atom_site_label
  _atom_site_occupancy
  _atom_site_fract_x
  _atom_site_fract_y
  _atom_site_fract_z
  _atom_site_thermal_displace_type
  _atom_site_B_iso_or_equiv
  _atom_site_type_symbol
  Cu1      1.0000 0.05733  0.11297  0.78349  Biso   1.000  Cu
  Cu2      1.0000 0.05733  0.88703  0.28349  Biso   1.000  Cu
  Cu3      1.0000 0.55733  0.61297  0.78349  Biso   1.000  Cu
  Cu4      1.0000 0.55733  0.38703  0.28349  Biso   1.000  Cu
  O1       1.0000 0.86890  0.17175  0.68310  Biso   1.000  O
  O2       1.0000 0.86890  0.82825  0.18310  Biso   1.000  O
  O3       1.0000 0.36890  0.67175  0.68310  Biso   1.000  O
  O4       1.0000 0.36890  0.32825  0.18310  Biso   1.000  O
  O5       1.0000 0.18400  0.16005  0.57230  Biso   1.000  O
  O6       1.0000 0.18400  0.83995  0.07230  Biso   1.000  O
  O7       1.0000 0.68400  0.66005  0.57230  Biso   1.000  O
  O8       1.0000 0.68400  0.33995  0.07230  Biso   1.000  O
  O9       1.0000 0.29620  0.05916  0.87390  Biso   1.000  O
  O10      1.0000 0.29620  0.94084  0.37390  Biso   1.000  O
  O11      1.0000 0.79620  0.55916  0.87390  Biso   1.000  O
  O12      1.0000 0.79620  0.44084  0.37390  Biso   1.000  O
  O13      1.0000 0.69010  0.09977  0.87630  Biso   1.000  O
  O14      1.0000 0.69010  0.90023  0.37630  Biso   1.000  O
  O15      1.0000 0.19010  0.59977  0.87630  Biso   1.000  O
  O16      1.0000 0.19010  0.40023  0.37630  Biso   1.000  O
  N1       1.0000 0.70590  0.32623  0.39350  Biso   1.000  N
  N2       1.0000 0.70590  0.67377  0.89350  Biso   1.000  N
  N3       1.0000 0.20590  0.82623  0.39350  Biso   1.000  N
  N4       1.0000 0.20590  0.17377  0.89350  Biso   1.000  N
  N5       1.0000 0.89590  0.94457  0.16610  Biso   1.000  N
  N6       1.0000 0.89590  0.05543  0.66610  Biso   1.000  N
  N7       1.0000 0.39590  0.44457  0.16610  Biso   1.000  N
  N8       1.0000 0.39590  0.55543  0.66610  Biso   1.000  N
  C1       1.0000 0.59890  0.31063  0.48680  Biso   1.000  C
  C2       1.0000 0.59890  0.68937  0.98680  Biso   1.000  C
  C3       1.0000 0.09890  0.81063  0.48680  Biso   1.000  C
  C4       1.0000 0.09890  0.18937  0.98680  Biso   1.000  C
  H1       1.0000 0.45890  0.33140  0.50700  Biso   1.000  H
  H2       1.0000 0.45890  0.66860  0.00700  Biso   1.000  H
  H3       1.0000 0.95890  0.83140  0.50700  Biso   1.000  H
  H4       1.0000 0.95890  0.16860  0.00700  Biso   1.000  H
  C5       1.0000 0.68290  0.26532  0.55590  Biso   1.000  C
  C6       1.0000 0.68290  0.73468  0.05590  Biso   1.000  C
  C7       1.0000 0.18290  0.76532  0.55590  Biso   1.000  C
  C8       1.0000 0.18290  0.23468  0.05590  Biso   1.000  C
  H5       1.0000 0.60340  0.25610  0.62200  Biso   1.000  H
  H6       1.0000 0.60340  0.74390  0.12200  Biso   1.000  H
  H7       1.0000 0.10340  0.75610  0.62200  Biso   1.000  H
  H8       1.0000 0.10340  0.24390  0.12200  Biso   1.000  H
  C9       1.0000 0.88580  0.23401  0.52590  Biso   1.000  C
  C10      1.0000 0.88580  0.76599  0.02590  Biso   1.000  C
  C11      1.0000 0.38580  0.73401  0.52590  Biso   1.000  C
  C12      1.0000 0.38580  0.26599  0.02590  Biso   1.000  C
  C13      1.0000 0.99810  0.24992  0.42790  Biso   1.000  C
  C14      1.0000 0.99810  0.75008  0.92790  Biso   1.000  C
  C15      1.0000 0.49810  0.74992  0.42790  Biso   1.000  C
  C16      1.0000 0.49810  0.25008  0.92790  Biso   1.000  C
  H9       1.0000 0.13710  0.22960  0.40560  Biso   1.000  H
  H10      1.0000 0.13710  0.77040  0.90560  Biso   1.000  H
  H11      1.0000 0.63710  0.72960  0.40560  Biso   1.000  H
  H12      1.0000 0.63710  0.27040  0.90560  Biso   1.000  H
  C17      1.0000 0.90510  0.29567  0.36350  Biso   1.000  C
  C18      1.0000 0.90510  0.70433  0.86350  Biso   1.000  C
  C19      1.0000 0.40510  0.79567  0.36350  Biso   1.000  C
  C20      1.0000 0.40510  0.20433  0.86350  Biso   1.000  C
  H13      1.0000 0.98170  0.30590  0.29720  Biso   1.000  H
  H14      1.0000 0.98170  0.69410  0.79720  Biso   1.000  H
  H15      1.0000 0.48170  0.80590  0.29720  Biso   1.000  H
  H16      1.0000 0.48170  0.19410  0.79720  Biso   1.000  H
  C21      1.0000 0.98980  0.18417  0.59810  Biso   1.000  C
  C22      1.0000 0.98980  0.81583  0.09810  Biso   1.000  C
  C23      1.0000 0.48980  0.68417  0.59810  Biso   1.000  C
  C24      1.0000 0.48980  0.31583  0.09810  Biso   1.000  C
  C25      1.0000 0.65820  0.93620  0.09810  Biso   1.000  C
  C26      1.0000 0.65820  0.06380  0.59810  Biso   1.000  C
  C27      1.0000 0.15820  0.43620  0.09810  Biso   1.000  C
  C28      1.0000 0.15820  0.56380  0.59810  Biso   1.000  C
  H17      1.0000 0.56870  0.90360  0.10780  Biso   1.000  H
  H18      1.0000 0.56870  0.09640  0.60780  Biso   1.000  H
  H19      1.0000 0.06870  0.40360  0.10780  Biso   1.000  H
  H20      1.0000 0.06870  0.59640  0.60780  Biso   1.000  H
  C29      1.0000 0.53800  0.97335  0.01410  Biso   1.000  C
  C30      1.0000 0.53800  0.02665  0.51410  Biso   1.000  C
  C31      1.0000 0.03800  0.47335  0.01410  Biso   1.000  C
  C32      1.0000 0.03800  0.52665  0.51410  Biso   1.000  C
  H21      1.0000 0.36920  0.96620  0.96920  Biso   1.000  H
  H22      1.0000 0.36920  0.03380  0.46920  Biso   1.000  H
  H23      1.0000 0.86920  0.46620  0.96920  Biso   1.000  H
  H24      1.0000 0.86920  0.53380  0.46920  Biso   1.000  H
  C33      1.0000 0.66950  0.02149  0.99660  Biso   1.000  C
  C34      1.0000 0.66950  0.97851  0.49660  Biso   1.000  C
  C35      1.0000 0.16950  0.52149  0.99660  Biso   1.000  C
  C36      1.0000 0.16950  0.47851  0.49660  Biso   1.000  C
  C37      1.0000 0.91730  0.02991  0.06630  Biso   1.000  C
  C38      1.0000 0.91730  0.97009  0.56630  Biso   1.000  C
  C39      1.0000 0.41730  0.52991  0.06630  Biso   1.000  C
  C40      1.0000 0.41730  0.47009  0.56630  Biso   1.000  C
  H25      1.0000 0.01320  0.06170  0.05650  Biso   1.000  H
  H26      1.0000 0.01320  0.93830  0.55650  Biso   1.000  H
  H27      1.0000 0.51320  0.56170  0.05650  Biso   1.000  H
  H28      1.0000 0.51320  0.43830  0.55650  Biso   1.000  H
  C41      1.0000 0.02200  0.99166  0.14970  Biso   1.000  C
  C42      1.0000 0.02200  0.00834  0.64970  Biso   1.000  C
  C43      1.0000 0.52200  0.49166  0.14970  Biso   1.000  C
  C44      1.0000 0.52200  0.50834  0.64970  Biso   1.000  C
  H29      1.0000 0.18820  0.99850  0.19750  Biso   1.000  H
  H30      1.0000 0.18820  0.00150  0.69750  Biso   1.000  H
  H31      1.0000 0.68820  0.49850  0.19750  Biso   1.000  H
  H32      1.0000 0.68820  0.50150  0.69750  Biso   1.000  H
  C45      1.0000 0.54710  0.06395  0.90840  Biso   1.000  C
  C46      1.0000 0.54710  0.93605  0.40840  Biso   1.000  C
  C47      1.0000 0.04710  0.56395  0.90840  Biso   1.000  C
  C48      1.0000 0.04710  0.43605  0.40840  Biso   1.000  C
  O17      1.0000 0.73880  0.37413  0.83820  Biso   1.000  O
  O18      1.0000 0.73880  0.62587  0.33820  Biso   1.000  O
  O19      1.0000 0.23880  0.87413  0.83820  Biso   1.000  O
  O20      1.0000 0.23880  0.12587  0.33820  Biso   1.000  O
  H33      1.0000 0.71180  0.36240  0.91510  Biso   1.000  H
  H34      1.0000 0.71180  0.63760  0.41510  Biso   1.000  H
  H35      1.0000 0.21180  0.86240  0.91510  Biso   1.000  H
  H36      1.0000 0.21180  0.13760  0.41510  Biso   1.000  H
  C49      1.0000 0.99140  0.35310  0.81470  Biso   1.000  C
  C50      1.0000 0.99140  0.64690  0.31470  Biso   1.000  C
  C51      1.0000 0.49140  0.85310  0.81470  Biso   1.000  C
  C52      1.0000 0.49140  0.14690  0.31470  Biso   1.000  C
  H37      1.0000 0.96980  0.31610  0.78790  Biso   1.000  H
  H38      1.0000 0.96980  0.68390  0.28790  Biso   1.000  H
  H39      1.0000 0.46980  0.81610  0.78790  Biso   1.000  H
  H40      1.0000 0.46980  0.18390  0.28790  Biso   1.000  H
  H41      1.0000 0.12050  0.35380  0.88710  Biso   1.000  H
  H42      1.0000 0.12050  0.64620  0.38710  Biso   1.000  H
  H43      1.0000 0.62050  0.85380  0.88710  Biso   1.000  H
  H44      1.0000 0.62050  0.14620  0.38710  Biso   1.000  H
  C53      1.0000 0.08600  0.38710  0.72060  Biso   1.000  C
  C54      1.0000 0.08600  0.61290  0.22060  Biso   1.000  C
  C55      1.0000 0.58600  0.88710  0.72060  Biso   1.000  C
  C56      1.0000 0.58600  0.11290  0.22060  Biso   1.000  C
  H45      1.0000 0.25220  0.37310  0.70540  Biso   1.000  H
  H46      1.0000 0.25220  0.62690  0.20540  Biso   1.000  H
  H47      1.0000 0.75220  0.87310  0.70540  Biso   1.000  H
  H48      1.0000 0.75220  0.12690  0.20540  Biso   1.000  H
  H49      1.0000 0.95730  0.38590  0.64800  Biso   1.000  H
  H50      1.0000 0.95730  0.61410  0.14800  Biso   1.000  H
  H51      1.0000 0.45730  0.88590  0.64800  Biso   1.000  H
  H52      1.0000 0.45730  0.11410  0.14800  Biso   1.000  H
  H53      1.0000 0.10930  0.42390  0.74810  Biso   1.000  H
  H54      1.0000 0.10930  0.57610  0.24810  Biso   1.000  H
  H55      1.0000 0.60930  0.92390  0.74810  Biso   1.000  H
  H56      1.0000 0.60930  0.07610  0.24810  Biso   1.000  H
  O21      1.0000 0.27200  0.35080  0.69370  Biso   1.000  O
  O22      1.0000 0.27200  0.64920  0.19370  Biso   1.000  O
  O23      1.0000 0.77200  0.85080  0.69370  Biso   1.000  O
  O24      1.0000 0.77200  0.14920  0.19370  Biso   1.000  O
  H57      1.0000 0.43700  0.36040  0.74110  Biso   1.000  H
  H58      1.0000 0.43700  0.63960  0.24110  Biso   1.000  H
  H59      1.0000 0.93700  0.86040  0.74110  Biso   1.000  H
  H60      1.0000 0.93700  0.13960  0.24110  Biso   1.000  H
  C57      1.0000 0.06000  0.38290  0.73100  Biso   1.000  C
  C58      1.0000 0.06000  0.61710  0.23100  Biso   1.000  C
  C59      1.0000 0.56000  0.88290  0.73100  Biso   1.000  C
  C60      1.0000 0.56000  0.11710  0.23100  Biso   1.000  C
  H61      1.0000 0.91460  0.38620  0.66560  Biso   1.000  H
  H62      1.0000 0.91460  0.61380  0.16560  Biso   1.000  H
  H63      1.0000 0.41460  0.88620  0.66560  Biso   1.000  H
  H64      1.0000 0.41460  0.11380  0.16560  Biso   1.000  H
  H65      1.0000 0.12480  0.41870  0.75370  Biso   1.000  H
  H66      1.0000 0.12480  0.58130  0.25370  Biso   1.000  H
  H67      1.0000 0.62480  0.91870  0.75370  Biso   1.000  H
  H68      1.0000 0.62480  0.08130  0.25370  Biso   1.000  H
  C61      1.0000 0.96900  0.35580  0.83500  Biso   1.000  C
  C62      1.0000 0.96900  0.64420  0.33500  Biso   1.000  C
  C63      1.0000 0.46900  0.85580  0.83500  Biso   1.000  C
  C64      1.0000 0.46900  0.14420  0.33500  Biso   1.000  C
  H69      1.0000 0.82970  0.37710  0.85960  Biso   1.000  H
  H70      1.0000 0.82970  0.62290  0.35960  Biso   1.000  H
  H71      1.0000 0.32970  0.87710  0.85960  Biso   1.000  H
  H72      1.0000 0.32970  0.12290  0.35960  Biso   1.000  H
  H73      1.0000 0.90260  0.32020  0.81200  Biso   1.000  H
  H74      1.0000 0.90260  0.67980  0.31200  Biso   1.000  H
  H75      1.0000 0.40260  0.82020  0.81200  Biso   1.000  H
  H76      1.0000 0.40260  0.17980  0.31200  Biso   1.000  H
  H77      1.0000 0.11440  0.35290  0.90080  Biso   1.000  H
  H78      1.0000 0.11440  0.64710  0.40080  Biso   1.000  H
  H79      1.0000 0.61440  0.85290  0.90080  Biso   1.000  H
  H80      1.0000 0.61440  0.14710  0.40080  Biso   1.000  H
