data_image0
_cell_length_a       10.78
_cell_length_b       9.447
_cell_length_c       12.604
_cell_angle_alpha    90
_cell_angle_beta     112.38
_cell_angle_gamma    90

_symmetry_space_group_name_H-M    "P 1"
_symmetry_int_tables_number       1

loop_
  _symmetry_equiv_pos_as_xyz
  'x, y, z'

loop_
  _atom_site_label
  _atom_site_occupancy
  _atom_site_fract_x
  _atom_site_fract_y
  _atom_site_fract_z
  _atom_site_thermal_displace_type
  _atom_site_B_iso_or_equiv
  _atom_site_type_symbol
  Cu1      1.0000 0.10760  0.13980  0.93750  Biso   1.000  Cu
  Cu2      1.0000 0.39240  0.63980  0.56250  Biso   1.000  Cu
  Cu3      1.0000 0.89240  0.86020  0.06250  Biso   1.000  Cu
  Cu4      1.0000 0.60760  0.36020  0.43750  Biso   1.000  Cu
  O1       1.0000 0.09070  0.19750  0.78240  Biso   1.000  O
  O2       1.0000 0.40930  0.69750  0.71760  Biso   1.000  O
  O3       1.0000 0.90930  0.80250  0.21760  Biso   1.000  O
  O4       1.0000 0.59070  0.30250  0.28240  Biso   1.000  O
  O5       1.0000 0.18630  0.15690  0.10270  Biso   1.000  O
  O6       1.0000 0.31370  0.65690  0.39730  Biso   1.000  O
  O7       1.0000 0.81370  0.84310  0.89730  Biso   1.000  O
  O8       1.0000 0.68630  0.34310  0.60270  Biso   1.000  O
  O9       1.0000 0.27530  0.32640  0.86910  Biso   1.000  O
  O10      1.0000 0.22470  0.82640  0.63090  Biso   1.000  O
  O11      1.0000 0.72470  0.67360  0.13090  Biso   1.000  O
  O12      1.0000 0.77530  0.17360  0.36910  Biso   1.000  O
  O13      1.0000 0.05140  0.02430  0.15970  Biso   1.000  O
  O14      1.0000 0.44860  0.52430  0.34030  Biso   1.000  O
  O15      1.0000 0.94860  0.97570  0.84030  Biso   1.000  O
  O16      1.0000 0.55140  0.47570  0.65970  Biso   1.000  O
  N1       1.0000 0.25530  0.48820  0.55760  Biso   1.000  N
  N2       1.0000 0.24470  0.98820  0.94240  Biso   1.000  N
  N3       1.0000 0.74470  0.51180  0.44240  Biso   1.000  N
  N4       1.0000 0.75530  0.01180  0.05760  Biso   1.000  N
  N5       1.0000 0.45310  0.22790  0.42640  Biso   1.000  N
  N6       1.0000 0.04690  0.72790  0.07360  Biso   1.000  N
  N7       1.0000 0.54690  0.77210  0.57360  Biso   1.000  N
  N8       1.0000 0.95310  0.27210  0.92640  Biso   1.000  N
  C1       1.0000 0.15610  0.44270  0.46070  Biso   1.000  C
  C2       1.0000 0.34390  0.94270  0.03930  Biso   1.000  C
  C3       1.0000 0.84390  0.55730  0.53930  Biso   1.000  C
  C4       1.0000 0.65610  0.05730  0.96070  Biso   1.000  C
  C5       1.0000 0.06380  0.34200  0.46090  Biso   1.000  C
  C6       1.0000 0.43620  0.84200  0.03910  Biso   1.000  C
  C7       1.0000 0.93620  0.65800  0.53910  Biso   1.000  C
  C8       1.0000 0.56380  0.15800  0.96090  Biso   1.000  C
  C9       1.0000 0.06950  0.28660  0.56460  Biso   1.000  C
  C10      1.0000 0.43050  0.78660  0.93540  Biso   1.000  C
  C11      1.0000 0.93050  0.71340  0.43540  Biso   1.000  C
  C12      1.0000 0.56950  0.21340  0.06460  Biso   1.000  C
  C13      1.0000 0.17100  0.33260  0.66520  Biso   1.000  C
  C14      1.0000 0.32900  0.83260  0.83480  Biso   1.000  C
  C15      1.0000 0.82900  0.66740  0.33480  Biso   1.000  C
  C16      1.0000 0.67100  0.16740  0.16520  Biso   1.000  C
  C17      1.0000 0.26170  0.43140  0.65720  Biso   1.000  C
  C18      1.0000 0.23830  0.93140  0.84280  Biso   1.000  C
  C19      1.0000 0.73830  0.56860  0.34280  Biso   1.000  C
  C20      1.0000 0.76170  0.06860  0.15720  Biso   1.000  C
  C21      1.0000 0.43480  0.16390  0.51500  Biso   1.000  C
  C22      1.0000 0.06520  0.66390  0.98500  Biso   1.000  C
  C23      1.0000 0.56520  0.83610  0.48500  Biso   1.000  C
  C24      1.0000 0.93480  0.33610  0.01500  Biso   1.000  C
  C25      1.0000 0.32740  0.07770  0.50180  Biso   1.000  C
  C26      1.0000 0.17260  0.57770  0.99820  Biso   1.000  C
  C27      1.0000 0.67260  0.92230  0.49820  Biso   1.000  C
  C28      1.0000 0.82740  0.42230  0.00180  Biso   1.000  C
  C29      1.0000 0.23220  0.05320  0.39200  Biso   1.000  C
  C30      1.0000 0.26780  0.55320  0.10800  Biso   1.000  C
  C31      1.0000 0.76780  0.94680  0.60800  Biso   1.000  C
  C32      1.0000 0.73220  0.44680  0.89200  Biso   1.000  C
  C33      1.0000 0.24910  0.11870  0.29980  Biso   1.000  C
  C34      1.0000 0.25090  0.61870  0.20020  Biso   1.000  C
  C35      1.0000 0.75090  0.88130  0.70020  Biso   1.000  C
  C36      1.0000 0.74910  0.38130  0.79980  Biso   1.000  C
  C37      1.0000 0.35980  0.20490  0.32100  Biso   1.000  C
  C38      1.0000 0.14020  0.70490  0.17900  Biso   1.000  C
  C39      1.0000 0.64020  0.79510  0.67900  Biso   1.000  C
  C40      1.0000 0.85980  0.29510  0.82100  Biso   1.000  C
  C41      1.0000 0.15210  0.09630  0.17750  Biso   1.000  C
  C42      1.0000 0.34790  0.59630  0.32250  Biso   1.000  C
  C43      1.0000 0.84790  0.90370  0.82250  Biso   1.000  C
  C44      1.0000 0.65210  0.40370  0.67750  Biso   1.000  C
  C45      1.0000 0.18240  0.28280  0.78250  Biso   1.000  C
  C46      1.0000 0.31760  0.78280  0.71750  Biso   1.000  C
  C47      1.0000 0.81760  0.71720  0.21750  Biso   1.000  C
  C48      1.0000 0.68240  0.21720  0.28250  Biso   1.000  C
  H1       1.0000 0.14980  0.48110  0.39090  Biso   1.000  H
  H2       1.0000 0.35020  0.98110  0.10910  Biso   1.000  H
  H3       1.0000 0.85020  0.51890  0.60910  Biso   1.000  H
  H4       1.0000 0.64980  0.01890  0.89090  Biso   1.000  H
  H5       1.0000 0.99840  0.31140  0.39220  Biso   1.000  H
  H6       1.0000 0.50160  0.81140  0.10780  Biso   1.000  H
  H7       1.0000 0.00160  0.68860  0.60780  Biso   1.000  H
  H8       1.0000 0.49840  0.18860  0.89220  Biso   1.000  H
  H9       1.0000 0.00690  0.22010  0.56680  Biso   1.000  H
  H10      1.0000 0.49310  0.72010  0.93320  Biso   1.000  H
  H11      1.0000 0.99310  0.77990  0.43320  Biso   1.000  H
  H12      1.0000 0.50690  0.27990  0.06680  Biso   1.000  H
  H13      1.0000 0.33070  0.46010  0.72450  Biso   1.000  H
  H14      1.0000 0.16930  0.96010  0.77550  Biso   1.000  H
  H15      1.0000 0.66930  0.53990  0.27550  Biso   1.000  H
  H16      1.0000 0.83070  0.03990  0.22450  Biso   1.000  H
  H17      1.0000 0.49800  0.17900  0.58870  Biso   1.000  H
  H18      1.0000 0.00200  0.67900  0.91130  Biso   1.000  H
  H19      1.0000 0.50200  0.82100  0.41130  Biso   1.000  H
  H20      1.0000 0.99800  0.32100  0.08870  Biso   1.000  H
  H21      1.0000 0.31830  0.03620  0.56530  Biso   1.000  H
  H22      1.0000 0.18170  0.53620  0.93470  Biso   1.000  H
  H23      1.0000 0.68170  0.96380  0.43470  Biso   1.000  H
  H24      1.0000 0.81830  0.46380  0.06530  Biso   1.000  H
  H25      1.0000 0.15910  0.99440  0.38070  Biso   1.000  H
  H26      1.0000 0.34090  0.49440  0.11930  Biso   1.000  H
  H27      1.0000 0.84090  0.00560  0.61930  Biso   1.000  H
  H28      1.0000 0.65910  0.50560  0.88070  Biso   1.000  H
  H29      1.0000 0.37010  0.24930  0.25900  Biso   1.000  H
  H30      1.0000 0.12990  0.74930  0.24100  Biso   1.000  H
  H31      1.0000 0.62990  0.75070  0.74100  Biso   1.000  H
  H32      1.0000 0.87010  0.25070  0.75900  Biso   1.000  H
