data_image0
_cell_length_a       10.693
_cell_length_b       9.5894
_cell_length_c       12.535
_cell_angle_alpha    90
_cell_angle_beta     112.09
_cell_angle_gamma    90

_symmetry_space_group_name_H-M    "P 1"
_symmetry_int_tables_number       1

loop_
  _symmetry_equiv_pos_as_xyz
  'x, y, z'

loop_
  _atom_site_label
  _atom_site_occupancy
  _atom_site_fract_x
  _atom_site_fract_y
  _atom_site_fract_z
  _atom_site_thermal_displace_type
  _atom_site_B_iso_or_equiv
  _atom_site_type_symbol
  Cu1      1.0000 0.60772  0.13911  0.93752  Biso   1.000  Cu
  Cu2      1.0000 0.10772  0.36089  0.43752  Biso   1.000  Cu
  Cu3      1.0000 0.39228  0.86089  0.06248  Biso   1.000  Cu
  Cu4      1.0000 0.89228  0.63911  0.56248  Biso   1.000  Cu
  O1       1.0000 0.90700  0.69680  0.71720  Biso   1.000  O
  O2       1.0000 0.40700  0.80320  0.21720  Biso   1.000  O
  O3       1.0000 0.09300  0.30320  0.28280  Biso   1.000  O
  O4       1.0000 0.59300  0.19680  0.78280  Biso   1.000  O
  O5       1.0000 0.18630  0.34380  0.60260  Biso   1.000  O
  O6       1.0000 0.68630  0.15620  0.10260  Biso   1.000  O
  O7       1.0000 0.81370  0.65620  0.39740  Biso   1.000  O
  O8       1.0000 0.31370  0.84380  0.89740  Biso   1.000  O
  C1       1.0000 0.15290  0.40610  0.67810  Biso   1.000  C
  C2       1.0000 0.65290  0.09390  0.17810  Biso   1.000  C
  C3       1.0000 0.84710  0.59390  0.32190  Biso   1.000  C
  C4       1.0000 0.34710  0.90610  0.82190  Biso   1.000  C
  O9       1.0000 0.72590  0.82640  0.62980  Biso   1.000  O
  O10      1.0000 0.22590  0.67360  0.12980  Biso   1.000  O
  O11      1.0000 0.27410  0.17360  0.37020  Biso   1.000  O
  O12      1.0000 0.77410  0.32640  0.87020  Biso   1.000  O
  C5       1.0000 0.25030  0.38180  0.80030  Biso   1.000  C
  C6       1.0000 0.75030  0.11820  0.30030  Biso   1.000  C
  C7       1.0000 0.74970  0.61820  0.19970  Biso   1.000  C
  C8       1.0000 0.24970  0.88180  0.69970  Biso   1.000  C
  C9       1.0000 0.81660  0.78250  0.71660  Biso   1.000  C
  C10      1.0000 0.31660  0.71750  0.21660  Biso   1.000  C
  C11      1.0000 0.18340  0.21750  0.28340  Biso   1.000  C
  C12      1.0000 0.68340  0.28250  0.78340  Biso   1.000  C
  O13      1.0000 0.05500  0.47900  0.66080  Biso   1.000  O
  O14      1.0000 0.55500  0.02100  0.16080  Biso   1.000  O
  O15      1.0000 0.94500  0.52100  0.33920  Biso   1.000  O
  O16      1.0000 0.44500  0.97900  0.83920  Biso   1.000  O
  C13      1.0000 0.43600  0.33540  0.01520  Biso   1.000  C
  C14      1.0000 0.93600  0.16460  0.51520  Biso   1.000  C
  C15      1.0000 0.56400  0.66460  0.98480  Biso   1.000  C
  C16      1.0000 0.06400  0.83540  0.48480  Biso   1.000  C
  H1       1.0000 0.50020  0.32090  0.08870  Biso   1.000  H
  H2       1.0000 0.00020  0.17910  0.58870  Biso   1.000  H
  H3       1.0000 0.49980  0.67910  0.91130  Biso   1.000  H
  H4       1.0000 0.99980  0.82090  0.41130  Biso   1.000  H
  N1       1.0000 0.45310  0.27120  0.92670  Biso   1.000  N
  N2       1.0000 0.95310  0.22880  0.42670  Biso   1.000  N
  N3       1.0000 0.54690  0.72880  0.07330  Biso   1.000  N
  N4       1.0000 0.04690  0.77120  0.57330  Biso   1.000  N
  C17      1.0000 0.36000  0.29500  0.82110  Biso   1.000  C
  C18      1.0000 0.86000  0.20500  0.32110  Biso   1.000  C
  C19      1.0000 0.64000  0.70500  0.17890  Biso   1.000  C
  C20      1.0000 0.14000  0.79500  0.67890  Biso   1.000  C
  H5       1.0000 0.36990  0.25080  0.75870  Biso   1.000  H
  H6       1.0000 0.86990  0.24920  0.25870  Biso   1.000  H
  H7       1.0000 0.63010  0.74920  0.24130  Biso   1.000  H
  H8       1.0000 0.13010  0.75080  0.74130  Biso   1.000  H
  C21      1.0000 0.32860  0.42130  0.00300  Biso   1.000  C
  C22      1.0000 0.82860  0.07870  0.50300  Biso   1.000  C
  C23      1.0000 0.67140  0.57870  0.99700  Biso   1.000  C
  C24      1.0000 0.17140  0.92130  0.49700  Biso   1.000  C
  H9       1.0000 0.31940  0.46140  0.06730  Biso   1.000  H
  H10      1.0000 0.81940  0.03860  0.56730  Biso   1.000  H
  H11      1.0000 0.68060  0.53860  0.93270  Biso   1.000  H
  H12      1.0000 0.18060  0.96140  0.43270  Biso   1.000  H
  C25      1.0000 0.23360  0.44770  0.89280  Biso   1.000  C
  C26      1.0000 0.73360  0.05230  0.39280  Biso   1.000  C
  C27      1.0000 0.76640  0.55230  0.10720  Biso   1.000  C
  C28      1.0000 0.26640  0.94770  0.60720  Biso   1.000  C
  H13      1.0000 0.16130  0.50760  0.88160  Biso   1.000  H
  H14      1.0000 0.66130  0.99240  0.38160  Biso   1.000  H
  H15      1.0000 0.83870  0.49240  0.11840  Biso   1.000  H
  H16      1.0000 0.33870  0.00760  0.61840  Biso   1.000  H
  N5       1.0000 0.74450  0.98870  0.94200  Biso   1.000  N
  N6       1.0000 0.24450  0.51130  0.44200  Biso   1.000  N
  N7       1.0000 0.25550  0.01130  0.05800  Biso   1.000  N
  N8       1.0000 0.75550  0.48870  0.55800  Biso   1.000  N
  C29      1.0000 0.73790  0.93210  0.84280  Biso   1.000  C
  C30      1.0000 0.23790  0.56790  0.34280  Biso   1.000  C
  C31      1.0000 0.26210  0.06790  0.15720  Biso   1.000  C
  C32      1.0000 0.76210  0.43210  0.65720  Biso   1.000  C
  H17      1.0000 0.66850  0.96040  0.77560  Biso   1.000  H
  H18      1.0000 0.16850  0.53960  0.27560  Biso   1.000  H
  H19      1.0000 0.33150  0.03960  0.22440  Biso   1.000  H
  H20      1.0000 0.83150  0.46040  0.72440  Biso   1.000  H
  C33      1.0000 0.93530  0.84220  0.03960  Biso   1.000  C
  C34      1.0000 0.43530  0.65780  0.53960  Biso   1.000  C
  C35      1.0000 0.06470  0.15780  0.96040  Biso   1.000  C
  C36      1.0000 0.56470  0.34220  0.46040  Biso   1.000  C
  H21      1.0000 0.00040  0.81140  0.10850  Biso   1.000  H
  H22      1.0000 0.50040  0.68860  0.60850  Biso   1.000  H
  H23      1.0000 0.99960  0.18860  0.89150  Biso   1.000  H
  H24      1.0000 0.49960  0.31140  0.39150  Biso   1.000  H
  C37      1.0000 0.84330  0.94350  0.03990  Biso   1.000  C
  C38      1.0000 0.34330  0.55650  0.53990  Biso   1.000  C
  C39      1.0000 0.15670  0.05650  0.96010  Biso   1.000  C
  C40      1.0000 0.65670  0.44350  0.46010  Biso   1.000  C
  H25      1.0000 0.84950  0.98180  0.10980  Biso   1.000  H
  H26      1.0000 0.34950  0.51820  0.60980  Biso   1.000  H
  H27      1.0000 0.15050  0.01820  0.89020  Biso   1.000  H
  H28      1.0000 0.65050  0.48180  0.39020  Biso   1.000  H
  C41      1.0000 0.92960  0.78700  0.93500  Biso   1.000  C
  C42      1.0000 0.42960  0.71300  0.43500  Biso   1.000  C
  C43      1.0000 0.07040  0.21300  0.06500  Biso   1.000  C
  C44      1.0000 0.57040  0.28700  0.56500  Biso   1.000  C
  H29      1.0000 0.99190  0.72050  0.93260  Biso   1.000  H
  H30      1.0000 0.49190  0.77950  0.43260  Biso   1.000  H
  H31      1.0000 0.00810  0.27950  0.06740  Biso   1.000  H
  H32      1.0000 0.50810  0.22050  0.56740  Biso   1.000  H
  C45      1.0000 0.82820  0.83370  0.83400  Biso   1.000  C
  C46      1.0000 0.32820  0.66630  0.33400  Biso   1.000  C
  C47      1.0000 0.17180  0.16630  0.16600  Biso   1.000  C
  C48      1.0000 0.67180  0.33370  0.66600  Biso   1.000  C
