data_image0
_cell_length_a       15.0066
_cell_length_b       16.7843
_cell_length_c       14.7438
_cell_angle_alpha    90
_cell_angle_beta     90
_cell_angle_gamma    90

_symmetry_space_group_name_H-M    "P 1"
_symmetry_int_tables_number       1

loop_
  _symmetry_equiv_pos_as_xyz
  'x, y, z'

loop_
  _atom_site_label
  _atom_site_occupancy
  _atom_site_fract_x
  _atom_site_fract_y
  _atom_site_fract_z
  _atom_site_thermal_displace_type
  _atom_site_B_iso_or_equiv
  _atom_site_type_symbol
  Mo1      1.0000 0.00000  0.06264  0.75000  Biso   1.000  Mo
  Mo2      1.0000 0.50000  0.43736  0.25000  Biso   1.000  Mo
  Mo3      1.0000 0.00000  0.93736  0.25000  Biso   1.000  Mo
  Mo4      1.0000 0.50000  0.56264  0.75000  Biso   1.000  Mo
  Mo5      1.0000 0.86989  0.92500  0.83526  Biso   1.000  Mo
  Mo6      1.0000 0.63011  0.57500  0.33526  Biso   1.000  Mo
  Mo7      1.0000 0.36989  0.57500  0.16474  Biso   1.000  Mo
  Mo8      1.0000 0.13011  0.92500  0.66474  Biso   1.000  Mo
  Mo9      1.0000 0.13011  0.07500  0.16474  Biso   1.000  Mo
  Mo10     1.0000 0.36989  0.42500  0.66474  Biso   1.000  Mo
  Mo11     1.0000 0.63011  0.42500  0.83526  Biso   1.000  Mo
  Mo12     1.0000 0.86989  0.07500  0.33526  Biso   1.000  Mo
  Mo13     1.0000 0.00000  0.78669  0.75000  Biso   1.000  Mo
  Mo14     1.0000 0.50000  0.71331  0.25000  Biso   1.000  Mo
  Mo15     1.0000 0.00000  0.21331  0.25000  Biso   1.000  Mo
  Mo16     1.0000 0.50000  0.28669  0.75000  Biso   1.000  Mo
  Mo17     1.0000 0.91655  0.92579  0.61738  Biso   1.000  Mo
  Mo18     1.0000 0.58345  0.57421  0.11738  Biso   1.000  Mo
  Mo19     1.0000 0.41655  0.57421  0.38262  Biso   1.000  Mo
  Mo20     1.0000 0.08345  0.92579  0.88262  Biso   1.000  Mo
  Mo21     1.0000 0.08345  0.07421  0.38262  Biso   1.000  Mo
  Mo22     1.0000 0.41655  0.42579  0.88262  Biso   1.000  Mo
  Mo23     1.0000 0.58345  0.42579  0.61738  Biso   1.000  Mo
  Mo24     1.0000 0.91655  0.07421  0.11738  Biso   1.000  Mo
  O1       1.0000 0.00000  0.92476  0.75000  Biso   1.000  O
  O2       1.0000 0.50000  0.57524  0.25000  Biso   1.000  O
  O3       1.0000 0.00000  0.07524  0.25000  Biso   1.000  O
  O4       1.0000 0.50000  0.42476  0.75000  Biso   1.000  O
  O5       1.0000 0.77485  0.92494  0.89621  Biso   1.000  O
  O6       1.0000 0.72515  0.57506  0.39621  Biso   1.000  O
  O7       1.0000 0.27485  0.57506  0.10379  Biso   1.000  O
  O8       1.0000 0.22515  0.92494  0.60379  Biso   1.000  O
  O9       1.0000 0.22515  0.07506  0.10379  Biso   1.000  O
  O10      1.0000 0.27485  0.42494  0.60379  Biso   1.000  O
  O11      1.0000 0.72515  0.42494  0.89621  Biso   1.000  O
  O12      1.0000 0.77485  0.07506  0.39621  Biso   1.000  O
  O13      1.0000 0.00000  0.16275  0.75000  Biso   1.000  O
  O14      1.0000 0.50000  0.33725  0.25000  Biso   1.000  O
  O15      1.0000 0.00000  0.83725  0.25000  Biso   1.000  O
  O16      1.0000 0.50000  0.66275  0.75000  Biso   1.000  O
  O17      1.0000 0.93477  0.03649  0.64215  Biso   1.000  O
  O18      1.0000 0.56523  0.46351  0.14215  Biso   1.000  O
  O19      1.0000 0.43477  0.46351  0.35785  Biso   1.000  O
  O20      1.0000 0.06523  0.03649  0.85785  Biso   1.000  O
  O21      1.0000 0.06523  0.96351  0.35785  Biso   1.000  O
  O22      1.0000 0.43477  0.53649  0.85785  Biso   1.000  O
  O23      1.0000 0.56523  0.53649  0.64215  Biso   1.000  O
  O24      1.0000 0.93477  0.96351  0.14215  Biso   1.000  O
  O25      1.0000 0.82687  0.92447  0.71008  Biso   1.000  O
  O26      1.0000 0.67313  0.57553  0.21008  Biso   1.000  O
  O27      1.0000 0.32687  0.57553  0.28992  Biso   1.000  O
  O28      1.0000 0.17313  0.92447  0.78992  Biso   1.000  O
  O29      1.0000 0.17313  0.07553  0.28992  Biso   1.000  O
  O30      1.0000 0.32687  0.42447  0.78992  Biso   1.000  O
  O31      1.0000 0.67313  0.42447  0.71008  Biso   1.000  O
  O32      1.0000 0.82687  0.07553  0.21008  Biso   1.000  O
  O33      1.0000 0.85389  0.92580  0.52325  Biso   1.000  O
  O34      1.0000 0.64611  0.57420  0.02325  Biso   1.000  O
  O35      1.0000 0.35389  0.57420  0.47675  Biso   1.000  O
  O36      1.0000 0.14611  0.92580  0.97675  Biso   1.000  O
  O37      1.0000 0.14611  0.07420  0.47675  Biso   1.000  O
  O38      1.0000 0.35389  0.42580  0.97675  Biso   1.000  O
  O39      1.0000 0.64611  0.42580  0.52325  Biso   1.000  O
  O40      1.0000 0.85389  0.07420  0.02325  Biso   1.000  O
  O41      1.0000 0.89315  0.03619  0.81571  Biso   1.000  O
  O42      1.0000 0.60685  0.46381  0.31571  Biso   1.000  O
  O43      1.0000 0.39315  0.46381  0.18429  Biso   1.000  O
  O44      1.0000 0.10685  0.03619  0.68429  Biso   1.000  O
  O45      1.0000 0.10685  0.96381  0.18429  Biso   1.000  O
  O46      1.0000 0.39315  0.53619  0.68429  Biso   1.000  O
  O47      1.0000 0.60685  0.53619  0.81571  Biso   1.000  O
  O48      1.0000 0.89315  0.96381  0.31571  Biso   1.000  O
  O49      1.0000 0.03958  0.92439  0.57438  Biso   1.000  O
  O50      1.0000 0.46042  0.57561  0.07438  Biso   1.000  O
  O51      1.0000 0.53958  0.57561  0.42562  Biso   1.000  O
  O52      1.0000 0.96042  0.92439  0.92562  Biso   1.000  O
  O53      1.0000 0.96042  0.07561  0.42562  Biso   1.000  O
  O54      1.0000 0.53958  0.42439  0.92562  Biso   1.000  O
  O55      1.0000 0.46042  0.42439  0.57438  Biso   1.000  O
  O56      1.0000 0.03958  0.07561  0.07438  Biso   1.000  O
  O57      1.0000 0.93524  0.81415  0.64179  Biso   1.000  O
  O58      1.0000 0.56476  0.68585  0.14179  Biso   1.000  O
  O59      1.0000 0.43524  0.68585  0.35821  Biso   1.000  O
  O60      1.0000 0.06476  0.81415  0.85821  Biso   1.000  O
  O61      1.0000 0.06476  0.18585  0.35821  Biso   1.000  O
  O62      1.0000 0.43524  0.31415  0.85821  Biso   1.000  O
  O63      1.0000 0.56476  0.31415  0.64179  Biso   1.000  O
  O64      1.0000 0.93524  0.18585  0.14179  Biso   1.000  O
  O65      1.0000 0.89317  0.81285  0.81703  Biso   1.000  O
  O66      1.0000 0.60683  0.68715  0.31703  Biso   1.000  O
  O67      1.0000 0.39317  0.68715  0.18297  Biso   1.000  O
  O68      1.0000 0.10683  0.81285  0.68297  Biso   1.000  O
  O69      1.0000 0.10683  0.18715  0.18297  Biso   1.000  O
  O70      1.0000 0.39317  0.31285  0.68297  Biso   1.000  O
  O71      1.0000 0.60683  0.31285  0.81703  Biso   1.000  O
  O72      1.0000 0.89317  0.18715  0.31703  Biso   1.000  O
  O73      1.0000 0.00000  0.68660  0.75000  Biso   1.000  O
  O74      1.0000 0.50000  0.81340  0.25000  Biso   1.000  O
  O75      1.0000 0.00000  0.31340  0.25000  Biso   1.000  O
  O76      1.0000 0.50000  0.18660  0.75000  Biso   1.000  O
  Cu1      1.0000 0.00000  0.42097  0.75000  Biso   1.000  Cu
  Cu2      1.0000 0.50000  0.07903  0.25000  Biso   1.000  Cu
  Cu3      1.0000 0.00000  0.57903  0.25000  Biso   1.000  Cu
  Cu4      1.0000 0.50000  0.92097  0.75000  Biso   1.000  Cu
  N1       1.0000 0.95083  0.34270  0.66008  Biso   1.000  N
  N2       1.0000 0.54917  0.15730  0.16008  Biso   1.000  N
  N3       1.0000 0.45083  0.15730  0.33992  Biso   1.000  N
  N4       1.0000 0.04917  0.34270  0.83992  Biso   1.000  N
  N5       1.0000 0.04917  0.65730  0.33992  Biso   1.000  N
  N6       1.0000 0.45083  0.84270  0.83992  Biso   1.000  N
  N7       1.0000 0.54917  0.84270  0.66008  Biso   1.000  N
  N8       1.0000 0.95083  0.65730  0.16008  Biso   1.000  N
  C1       1.0000 0.99691  0.28681  0.61224  Biso   1.000  C
  C2       1.0000 0.50309  0.21319  0.11224  Biso   1.000  C
  C3       1.0000 0.49691  0.21319  0.38776  Biso   1.000  C
  C4       1.0000 0.00309  0.28681  0.88776  Biso   1.000  C
  C5       1.0000 0.00309  0.71319  0.38776  Biso   1.000  C
  C6       1.0000 0.49691  0.78681  0.88776  Biso   1.000  C
  C7       1.0000 0.50309  0.78681  0.61224  Biso   1.000  C
  C8       1.0000 0.99691  0.71319  0.11224  Biso   1.000  C
  N9       1.0000 0.86049  0.27553  0.57046  Biso   1.000  N
  N10      1.0000 0.63951  0.22447  0.07046  Biso   1.000  N
  N11      1.0000 0.36049  0.22447  0.42954  Biso   1.000  N
  N12      1.0000 0.13951  0.27553  0.92954  Biso   1.000  N
  N13      1.0000 0.13951  0.72447  0.42954  Biso   1.000  N
  N14      1.0000 0.36049  0.77553  0.92954  Biso   1.000  N
  N15      1.0000 0.63951  0.77553  0.57046  Biso   1.000  N
  N16      1.0000 0.86049  0.72447  0.07046  Biso   1.000  N
  O77      1.0000 0.13214  0.32413  0.66838  Biso   1.000  O
  O78      1.0000 0.36786  0.17587  0.16838  Biso   1.000  O
  O79      1.0000 0.63214  0.17587  0.33162  Biso   1.000  O
  O80      1.0000 0.86786  0.32413  0.83162  Biso   1.000  O
  O81      1.0000 0.86786  0.67587  0.33162  Biso   1.000  O
  O82      1.0000 0.63214  0.82413  0.83162  Biso   1.000  O
  O83      1.0000 0.36786  0.82413  0.66838  Biso   1.000  O
  O84      1.0000 0.13214  0.67587  0.16838  Biso   1.000  O
  N17      1.0000 0.09029  0.27410  0.62607  Biso   1.000  N
  N18      1.0000 0.40971  0.22590  0.12607  Biso   1.000  N
  N19      1.0000 0.59029  0.22590  0.37393  Biso   1.000  N
  N20      1.0000 0.90971  0.27410  0.87393  Biso   1.000  N
  N21      1.0000 0.90971  0.72590  0.37393  Biso   1.000  N
  N22      1.0000 0.59029  0.77410  0.87393  Biso   1.000  N
  N23      1.0000 0.40971  0.77410  0.62607  Biso   1.000  N
  N24      1.0000 0.09029  0.72590  0.12607  Biso   1.000  N
  O85      1.0000 0.12243  0.21292  0.59558  Biso   1.000  O
  O86      1.0000 0.37757  0.28708  0.09558  Biso   1.000  O
  O87      1.0000 0.62243  0.28708  0.40442  Biso   1.000  O
  O88      1.0000 0.87757  0.21292  0.90442  Biso   1.000  O
  O89      1.0000 0.87757  0.78708  0.40442  Biso   1.000  O
  O90      1.0000 0.62243  0.71292  0.90442  Biso   1.000  O
  O91      1.0000 0.37757  0.71292  0.59558  Biso   1.000  O
  O92      1.0000 0.12243  0.78708  0.09558  Biso   1.000  O
  C9       1.0000 0.71741  0.20433  0.58950  Biso   1.000  C
  C10      1.0000 0.78259  0.29567  0.08950  Biso   1.000  C
  C11      1.0000 0.21741  0.29567  0.41050  Biso   1.000  C
  C12      1.0000 0.28259  0.20433  0.91050  Biso   1.000  C
  C13      1.0000 0.28259  0.79567  0.41050  Biso   1.000  C
  C14      1.0000 0.21741  0.70433  0.91050  Biso   1.000  C
  C15      1.0000 0.78259  0.70433  0.58950  Biso   1.000  C
  C16      1.0000 0.71741  0.79567  0.08950  Biso   1.000  C
  H1       1.0000 0.70670  0.23530  0.64400  Biso   1.000  H
  H2       1.0000 0.79330  0.26470  0.14400  Biso   1.000  H
  H3       1.0000 0.20670  0.26470  0.35600  Biso   1.000  H
  H4       1.0000 0.29330  0.23530  0.85600  Biso   1.000  H
  H5       1.0000 0.29330  0.76470  0.35600  Biso   1.000  H
  H6       1.0000 0.20670  0.73530  0.85600  Biso   1.000  H
  H7       1.0000 0.79330  0.73530  0.64400  Biso   1.000  H
  H8       1.0000 0.70670  0.76470  0.14400  Biso   1.000  H
  H9       1.0000 0.66040  0.19530  0.56020  Biso   1.000  H
  H10      1.0000 0.83960  0.30470  0.06020  Biso   1.000  H
  H11      1.0000 0.16040  0.30470  0.43980  Biso   1.000  H
  H12      1.0000 0.33960  0.19530  0.93980  Biso   1.000  H
  H13      1.0000 0.33960  0.80470  0.43980  Biso   1.000  H
  H14      1.0000 0.16040  0.69530  0.93980  Biso   1.000  H
  H15      1.0000 0.83960  0.69530  0.56020  Biso   1.000  H
  H16      1.0000 0.66040  0.80470  0.06020  Biso   1.000  H
  C17      1.0000 0.94277  0.24442  0.55677  Biso   1.000  C
  C18      1.0000 0.55723  0.25558  0.05677  Biso   1.000  C
  C19      1.0000 0.44277  0.25558  0.44323  Biso   1.000  C
  C20      1.0000 0.05723  0.24442  0.94323  Biso   1.000  C
  C21      1.0000 0.05723  0.75558  0.44323  Biso   1.000  C
  C22      1.0000 0.44277  0.74442  0.94323  Biso   1.000  C
  C23      1.0000 0.55723  0.74442  0.55677  Biso   1.000  C
  C24      1.0000 0.94277  0.75558  0.05677  Biso   1.000  C
  H17      1.0000 0.95860  0.20310  0.51790  Biso   1.000  H
  H18      1.0000 0.54140  0.29690  0.01790  Biso   1.000  H
  H19      1.0000 0.45860  0.29690  0.48210  Biso   1.000  H
  H20      1.0000 0.04140  0.20310  0.98210  Biso   1.000  H
  H21      1.0000 0.04140  0.79690  0.48210  Biso   1.000  H
  H22      1.0000 0.45860  0.70310  0.98210  Biso   1.000  H
  H23      1.0000 0.54140  0.70310  0.51790  Biso   1.000  H
  H24      1.0000 0.95860  0.79690  0.01790  Biso   1.000  H
  C25      1.0000 0.77723  0.25185  0.52593  Biso   1.000  C
  C26      1.0000 0.72277  0.24815  0.02593  Biso   1.000  C
  C27      1.0000 0.27723  0.24815  0.47407  Biso   1.000  C
  C28      1.0000 0.22277  0.25185  0.97407  Biso   1.000  C
  C29      1.0000 0.22277  0.74815  0.47407  Biso   1.000  C
  C30      1.0000 0.27723  0.75185  0.97407  Biso   1.000  C
  C31      1.0000 0.72277  0.75185  0.52593  Biso   1.000  C
  C32      1.0000 0.77723  0.74815  0.02593  Biso   1.000  C
  H25      1.0000 0.79090  0.21990  0.47290  Biso   1.000  H
  H26      1.0000 0.70910  0.28010  0.97290  Biso   1.000  H
  H27      1.0000 0.29090  0.28010  0.52710  Biso   1.000  H
  H28      1.0000 0.20910  0.21990  0.02710  Biso   1.000  H
  H29      1.0000 0.20910  0.78010  0.52710  Biso   1.000  H
  H30      1.0000 0.29090  0.71990  0.02710  Biso   1.000  H
  H31      1.0000 0.70910  0.71990  0.47290  Biso   1.000  H
  H32      1.0000 0.79090  0.78010  0.97290  Biso   1.000  H
  H33      1.0000 0.74580  0.29910  0.50570  Biso   1.000  H
  H34      1.0000 0.75420  0.20090  0.00570  Biso   1.000  H
  H35      1.0000 0.24580  0.20090  0.49430  Biso   1.000  H
  H36      1.0000 0.25420  0.29910  0.99430  Biso   1.000  H
  H37      1.0000 0.25420  0.70090  0.49430  Biso   1.000  H
  H38      1.0000 0.24580  0.79910  0.99430  Biso   1.000  H
  H39      1.0000 0.75420  0.79910  0.50570  Biso   1.000  H
  H40      1.0000 0.74580  0.70090  0.00570  Biso   1.000  H
  C33      1.0000 0.75730  0.12571  0.61540  Biso   1.000  C
  C34      1.0000 0.74270  0.37429  0.11540  Biso   1.000  C
  C35      1.0000 0.25730  0.37429  0.38460  Biso   1.000  C
  C36      1.0000 0.24270  0.12571  0.88460  Biso   1.000  C
  C37      1.0000 0.24270  0.87429  0.38460  Biso   1.000  C
  C38      1.0000 0.25730  0.62571  0.88460  Biso   1.000  C
  C39      1.0000 0.74270  0.62571  0.61540  Biso   1.000  C
  C40      1.0000 0.75730  0.87429  0.11540  Biso   1.000  C
  H41      1.0000 0.76460  0.09310  0.56160  Biso   1.000  H
  H42      1.0000 0.73540  0.40690  0.06160  Biso   1.000  H
  H43      1.0000 0.26460  0.40690  0.43840  Biso   1.000  H
  H44      1.0000 0.23540  0.09310  0.93840  Biso   1.000  H
  H45      1.0000 0.23540  0.90690  0.43840  Biso   1.000  H
  H46      1.0000 0.26460  0.59310  0.93840  Biso   1.000  H
  H47      1.0000 0.73540  0.59310  0.56160  Biso   1.000  H
  H48      1.0000 0.76460  0.90690  0.06160  Biso   1.000  H
  H49      1.0000 0.81580  0.13420  0.64180  Biso   1.000  H
  H50      1.0000 0.68420  0.36580  0.14180  Biso   1.000  H
  H51      1.0000 0.31580  0.36580  0.35820  Biso   1.000  H
  H52      1.0000 0.18420  0.13420  0.85820  Biso   1.000  H
  H53      1.0000 0.18420  0.86580  0.35820  Biso   1.000  H
  H54      1.0000 0.31580  0.63420  0.85820  Biso   1.000  H
  H55      1.0000 0.68420  0.63420  0.64180  Biso   1.000  H
  H56      1.0000 0.81580  0.86580  0.14180  Biso   1.000  H
  C41      1.0000 0.86731  0.33385  0.63305  Biso   1.000  C
  C42      1.0000 0.63269  0.16615  0.13305  Biso   1.000  C
  C43      1.0000 0.36731  0.16615  0.36695  Biso   1.000  C
  C44      1.0000 0.13269  0.33385  0.86695  Biso   1.000  C
  C45      1.0000 0.13269  0.66615  0.36695  Biso   1.000  C
  C46      1.0000 0.36731  0.83385  0.86695  Biso   1.000  C
  C47      1.0000 0.63269  0.83385  0.63305  Biso   1.000  C
  C48      1.0000 0.86731  0.66615  0.13305  Biso   1.000  C
  H57      1.0000 0.81960  0.36390  0.65440  Biso   1.000  H
  H58      1.0000 0.68040  0.13610  0.15440  Biso   1.000  H
  H59      1.0000 0.31960  0.13610  0.34560  Biso   1.000  H
  H60      1.0000 0.18040  0.36390  0.84560  Biso   1.000  H
  H61      1.0000 0.18040  0.63610  0.34560  Biso   1.000  H
  H62      1.0000 0.31960  0.86390  0.84560  Biso   1.000  H
  H63      1.0000 0.68040  0.86390  0.65440  Biso   1.000  H
  H64      1.0000 0.81960  0.63610  0.15440  Biso   1.000  H
  N25      1.0000 0.69987  0.08389  0.68115  Biso   1.000  N
  N26      1.0000 0.80013  0.41611  0.18115  Biso   1.000  N
  N27      1.0000 0.19987  0.41611  0.31885  Biso   1.000  N
  N28      1.0000 0.30013  0.08389  0.81885  Biso   1.000  N
  N29      1.0000 0.30013  0.91611  0.31885  Biso   1.000  N
  N30      1.0000 0.19987  0.58389  0.81885  Biso   1.000  N
  N31      1.0000 0.80013  0.58389  0.68115  Biso   1.000  N
  N32      1.0000 0.69987  0.91611  0.18115  Biso   1.000  N
  C49      1.0000 0.63726  0.02969  0.66056  Biso   1.000  C
  C50      1.0000 0.86274  0.47031  0.16056  Biso   1.000  C
  C51      1.0000 0.13726  0.47031  0.33944  Biso   1.000  C
  C52      1.0000 0.36274  0.02969  0.83944  Biso   1.000  C
  C53      1.0000 0.36274  0.97031  0.33944  Biso   1.000  C
  C54      1.0000 0.13726  0.52969  0.83944  Biso   1.000  C
  C55      1.0000 0.86274  0.52969  0.66056  Biso   1.000  C
  C56      1.0000 0.63726  0.97031  0.16056  Biso   1.000  C
  H65      1.0000 0.62370  0.01330  0.60190  Biso   1.000  H
  H66      1.0000 0.87630  0.48670  0.10190  Biso   1.000  H
  H67      1.0000 0.12370  0.48670  0.39810  Biso   1.000  H
  H68      1.0000 0.37630  0.01330  0.89810  Biso   1.000  H
  H69      1.0000 0.37630  0.98670  0.39810  Biso   1.000  H
  H70      1.0000 0.12370  0.51330  0.89810  Biso   1.000  H
  H71      1.0000 0.87630  0.51330  0.60190  Biso   1.000  H
  H72      1.0000 0.62370  0.98670  0.10190  Biso   1.000  H
  C57      1.0000 0.70049  0.09463  0.77240  Biso   1.000  C
  C58      1.0000 0.79951  0.40537  0.27240  Biso   1.000  C
  C59      1.0000 0.20049  0.40537  0.22760  Biso   1.000  C
  C60      1.0000 0.29951  0.09463  0.72760  Biso   1.000  C
  C61      1.0000 0.29951  0.90537  0.22760  Biso   1.000  C
  C62      1.0000 0.20049  0.59463  0.72760  Biso   1.000  C
  C63      1.0000 0.79951  0.59463  0.77240  Biso   1.000  C
  C64      1.0000 0.70049  0.90537  0.27240  Biso   1.000  C
  H73      1.0000 0.73630  0.12890  0.80600  Biso   1.000  H
  H74      1.0000 0.76370  0.37110  0.30600  Biso   1.000  H
  H75      1.0000 0.23630  0.37110  0.19400  Biso   1.000  H
  H76      1.0000 0.26370  0.12890  0.69400  Biso   1.000  H
  H77      1.0000 0.26370  0.87110  0.19400  Biso   1.000  H
  H78      1.0000 0.23630  0.62890  0.69400  Biso   1.000  H
  H79      1.0000 0.76370  0.62890  0.80600  Biso   1.000  H
  H80      1.0000 0.73630  0.87110  0.30600  Biso   1.000  H
  N33      1.0000 0.59744  0.00263  0.73408  Biso   1.000  N
  N34      1.0000 0.90256  0.49737  0.23408  Biso   1.000  N
  N35      1.0000 0.09744  0.49737  0.26592  Biso   1.000  N
  N36      1.0000 0.40256  0.00263  0.76592  Biso   1.000  N
  N37      1.0000 0.40256  0.99737  0.26592  Biso   1.000  N
  N38      1.0000 0.09744  0.50263  0.76592  Biso   1.000  N
  N39      1.0000 0.90256  0.50263  0.73408  Biso   1.000  N
  N40      1.0000 0.59744  0.99737  0.23408  Biso   1.000  N
  N41      1.0000 0.61146  0.02994  0.89568  Biso   1.000  N
  N42      1.0000 0.88854  0.47006  0.39568  Biso   1.000  N
  N43      1.0000 0.11146  0.47006  0.10432  Biso   1.000  N
  N44      1.0000 0.38854  0.02994  0.60432  Biso   1.000  N
  N45      1.0000 0.38854  0.97006  0.10432  Biso   1.000  N
  N46      1.0000 0.11146  0.52994  0.60432  Biso   1.000  N
  N47      1.0000 0.88854  0.52994  0.89568  Biso   1.000  N
  N48      1.0000 0.61146  0.97006  0.39568  Biso   1.000  N
  O93      1.0000 0.64727  0.07064  0.95403  Biso   1.000  O
  O94      1.0000 0.85273  0.42936  0.45403  Biso   1.000  O
  O95      1.0000 0.14727  0.42936  0.04597  Biso   1.000  O
  O96      1.0000 0.35273  0.07064  0.54597  Biso   1.000  O
  O97      1.0000 0.35273  0.92936  0.04597  Biso   1.000  O
  O98      1.0000 0.14727  0.57064  0.54597  Biso   1.000  O
  O99      1.0000 0.85273  0.57064  0.95403  Biso   1.000  O
  O100     1.0000 0.64727  0.92936  0.45403  Biso   1.000  O
  C65      1.0000 0.63637  0.04344  0.80392  Biso   1.000  C
  C66      1.0000 0.86363  0.45656  0.30392  Biso   1.000  C
  C67      1.0000 0.13637  0.45656  0.19608  Biso   1.000  C
  C68      1.0000 0.36363  0.04344  0.69608  Biso   1.000  C
  C69      1.0000 0.36363  0.95656  0.19608  Biso   1.000  C
  C70      1.0000 0.13637  0.54344  0.69608  Biso   1.000  C
  C71      1.0000 0.86363  0.54344  0.80392  Biso   1.000  C
  C72      1.0000 0.63637  0.95656  0.30392  Biso   1.000  C
  O101     1.0000 0.55632  0.97792  0.91096  Biso   1.000  O
  O102     1.0000 0.94368  0.52208  0.41096  Biso   1.000  O
  O103     1.0000 0.05632  0.52208  0.08904  Biso   1.000  O
  O104     1.0000 0.44368  0.97792  0.58904  Biso   1.000  O
  O105     1.0000 0.44368  0.02208  0.08904  Biso   1.000  O
  O106     1.0000 0.05632  0.47792  0.58904  Biso   1.000  O
  O107     1.0000 0.94368  0.47792  0.91096  Biso   1.000  O
  O108     1.0000 0.55632  0.02208  0.41096  Biso   1.000  O
