data_image0
_cell_length_a       10.137
_cell_length_b       15.34
_cell_length_c       12.647
_cell_angle_alpha    90
_cell_angle_beta     97.615
_cell_angle_gamma    90

_symmetry_space_group_name_H-M    "P 1"
_symmetry_int_tables_number       1

loop_
  _symmetry_equiv_pos_as_xyz
  'x, y, z'

loop_
  _atom_site_label
  _atom_site_occupancy
  _atom_site_fract_x
  _atom_site_fract_y
  _atom_site_fract_z
  _atom_site_thermal_displace_type
  _atom_site_B_iso_or_equiv
  _atom_site_type_symbol
  Cu1      1.0000 0.62711  0.48933  0.20610  Biso   1.000  Cu
  Cu2      1.0000 0.37289  0.98933  0.29390  Biso   1.000  Cu
  Cu3      1.0000 0.37289  0.51067  0.79390  Biso   1.000  Cu
  Cu4      1.0000 0.62711  0.01067  0.70610  Biso   1.000  Cu
  N1       1.0000 0.55410  0.55239  0.35089  Biso   1.000  N
  N2       1.0000 0.44590  0.05239  0.14911  Biso   1.000  N
  N3       1.0000 0.44590  0.44761  0.64911  Biso   1.000  N
  N4       1.0000 0.55410  0.94761  0.85089  Biso   1.000  N
  N5       1.0000 0.41990  0.55685  0.34748  Biso   1.000  N
  N6       1.0000 0.58010  0.05685  0.15252  Biso   1.000  N
  N7       1.0000 0.58010  0.44315  0.65252  Biso   1.000  N
  N8       1.0000 0.41990  0.94315  0.84748  Biso   1.000  N
  N9       1.0000 0.48650  0.40016  0.22509  Biso   1.000  N
  N10      1.0000 0.51350  0.90016  0.27491  Biso   1.000  N
  N11      1.0000 0.51350  0.59984  0.77491  Biso   1.000  N
  N12      1.0000 0.48650  0.09984  0.72509  Biso   1.000  N
  N13      1.0000 0.36550  0.42609  0.24889  Biso   1.000  N
  N14      1.0000 0.63450  0.92609  0.25111  Biso   1.000  N
  N15      1.0000 0.63450  0.57391  0.75111  Biso   1.000  N
  N16      1.0000 0.36550  0.07391  0.74889  Biso   1.000  N
  N17      1.0000 0.47480  0.56162  0.12512  Biso   1.000  N
  N18      1.0000 0.52520  0.06162  0.37488  Biso   1.000  N
  N19      1.0000 0.52520  0.43838  0.87488  Biso   1.000  N
  N20      1.0000 0.47480  0.93838  0.62512  Biso   1.000  N
  N21      1.0000 0.35480  0.56344  0.16105  Biso   1.000  N
  N22      1.0000 0.64520  0.06344  0.33895  Biso   1.000  N
  N23      1.0000 0.64520  0.43656  0.83895  Biso   1.000  N
  N24      1.0000 0.35480  0.93656  0.66105  Biso   1.000  N
  C1       1.0000 0.60130  0.59880  0.43580  Biso   1.000  C
  C2       1.0000 0.39870  0.09880  0.06420  Biso   1.000  C
  C3       1.0000 0.39870  0.40120  0.56420  Biso   1.000  C
  C4       1.0000 0.60130  0.90120  0.93580  Biso   1.000  C
  H1       1.0000 0.69130  0.60690  0.45920  Biso   1.000  H
  H2       1.0000 0.30870  0.10690  0.04080  Biso   1.000  H
  H3       1.0000 0.30870  0.39310  0.54080  Biso   1.000  H
  H4       1.0000 0.69130  0.89310  0.95920  Biso   1.000  H
  C5       1.0000 0.49890  0.63390  0.48570  Biso   1.000  C
  C6       1.0000 0.50110  0.13390  0.01430  Biso   1.000  C
  C7       1.0000 0.50110  0.36610  0.51430  Biso   1.000  C
  C8       1.0000 0.49890  0.86610  0.98570  Biso   1.000  C
  H5       1.0000 0.50730  0.66880  0.54640  Biso   1.000  H
  H6       1.0000 0.49270  0.16880  0.95360  Biso   1.000  H
  H7       1.0000 0.49270  0.33120  0.45360  Biso   1.000  H
  H8       1.0000 0.50730  0.83120  0.04640  Biso   1.000  H
  C9       1.0000 0.38460  0.60670  0.42730  Biso   1.000  C
  C10      1.0000 0.61540  0.10670  0.07270  Biso   1.000  C
  C11      1.0000 0.61540  0.39330  0.57270  Biso   1.000  C
  C12      1.0000 0.38460  0.89330  0.92730  Biso   1.000  C
  H9       1.0000 0.29840  0.61980  0.43970  Biso   1.000  H
  H10      1.0000 0.70160  0.11980  0.06030  Biso   1.000  H
  H11      1.0000 0.70160  0.38020  0.56030  Biso   1.000  H
  H12      1.0000 0.29840  0.88020  0.93970  Biso   1.000  H
  C13      1.0000 0.33600  0.51814  0.25800  Biso   1.000  C
  C14      1.0000 0.66400  0.01814  0.24200  Biso   1.000  C
  C15      1.0000 0.66400  0.48186  0.74200  Biso   1.000  C
  C16      1.0000 0.33600  0.98186  0.75800  Biso   1.000  C
  H13      1.0000 0.24280  0.52440  0.26970  Biso   1.000  H
  H14      1.0000 0.75720  0.02440  0.23030  Biso   1.000  H
  H15      1.0000 0.75720  0.47560  0.73030  Biso   1.000  H
  H16      1.0000 0.24280  0.97560  0.76970  Biso   1.000  H
  C17      1.0000 0.48070  0.31337  0.22320  Biso   1.000  C
  C18      1.0000 0.51930  0.81337  0.27680  Biso   1.000  C
  C19      1.0000 0.51930  0.68663  0.77680  Biso   1.000  C
  C20      1.0000 0.48070  0.18663  0.72320  Biso   1.000  C
  H17      1.0000 0.55000  0.27720  0.20920  Biso   1.000  H
  H18      1.0000 0.45000  0.77720  0.29080  Biso   1.000  H
  H19      1.0000 0.45000  0.72280  0.79080  Biso   1.000  H
  H20      1.0000 0.55000  0.22280  0.70920  Biso   1.000  H
  C21      1.0000 0.35650  0.28400  0.24500  Biso   1.000  C
  C22      1.0000 0.64350  0.78400  0.25500  Biso   1.000  C
  C23      1.0000 0.64350  0.71600  0.75500  Biso   1.000  C
  C24      1.0000 0.35650  0.21600  0.74500  Biso   1.000  C
  H21      1.0000 0.32780  0.22660  0.24780  Biso   1.000  H
  H22      1.0000 0.67220  0.72660  0.25220  Biso   1.000  H
  H23      1.0000 0.67220  0.77340  0.75220  Biso   1.000  H
  H24      1.0000 0.32780  0.27340  0.74780  Biso   1.000  H
  C25      1.0000 0.28670  0.35739  0.26130  Biso   1.000  C
  C26      1.0000 0.71330  0.85739  0.23870  Biso   1.000  C
  C27      1.0000 0.71330  0.64261  0.73870  Biso   1.000  C
  C28      1.0000 0.28670  0.14261  0.76130  Biso   1.000  C
  H25      1.0000 0.20020  0.35970  0.27790  Biso   1.000  H
  H26      1.0000 0.79980  0.85970  0.22210  Biso   1.000  H
  H27      1.0000 0.79980  0.64030  0.72210  Biso   1.000  H
  H28      1.0000 0.20020  0.14030  0.77790  Biso   1.000  H
  C29      1.0000 0.46290  0.61549  0.04240  Biso   1.000  C
  C30      1.0000 0.53710  0.11549  0.45760  Biso   1.000  C
  C31      1.0000 0.53710  0.38451  0.95760  Biso   1.000  C
  C32      1.0000 0.46290  0.88451  0.54240  Biso   1.000  C
  H29      1.0000 0.53030  0.62760  0.00150  Biso   1.000  H
  H30      1.0000 0.46970  0.12760  0.49850  Biso   1.000  H
  H31      1.0000 0.46970  0.37240  0.99850  Biso   1.000  H
  H32      1.0000 0.53030  0.87240  0.50150  Biso   1.000  H
  C33      1.0000 0.33640  0.65130  0.02530  Biso   1.000  C
  C34      1.0000 0.66360  0.15130  0.47470  Biso   1.000  C
  C35      1.0000 0.66360  0.34870  0.97470  Biso   1.000  C
  C36      1.0000 0.33640  0.84870  0.52530  Biso   1.000  C
  H33      1.0000 0.30390  0.69060  0.97220  Biso   1.000  H
  H34      1.0000 0.69610  0.19060  0.52780  Biso   1.000  H
  H35      1.0000 0.69610  0.30940  0.02780  Biso   1.000  H
  H36      1.0000 0.30390  0.80940  0.47220  Biso   1.000  H
  C37      1.0000 0.26970  0.61725  0.10170  Biso   1.000  C
  C38      1.0000 0.73030  0.11725  0.39830  Biso   1.000  C
  C39      1.0000 0.73030  0.38275  0.89830  Biso   1.000  C
  C40      1.0000 0.26970  0.88275  0.60170  Biso   1.000  C
  H37      1.0000 0.18200  0.62880  0.11130  Biso   1.000  H
  H38      1.0000 0.81800  0.12880  0.38870  Biso   1.000  H
  H39      1.0000 0.81800  0.37120  0.88870  Biso   1.000  H
  H40      1.0000 0.18200  0.87120  0.61130  Biso   1.000  H
  O1       1.0000 0.75760  0.39586  0.22742  Biso   1.000  O
  O2       1.0000 0.24240  0.89586  0.27258  Biso   1.000  O
  O3       1.0000 0.24240  0.60414  0.77258  Biso   1.000  O
  O4       1.0000 0.75760  0.10414  0.72742  Biso   1.000  O
  O5       1.0000 0.83010  0.44852  0.38826  Biso   1.000  O
  O6       1.0000 0.16990  0.94852  0.11174  Biso   1.000  O
  O7       1.0000 0.16990  0.55148  0.61174  Biso   1.000  O
  O8       1.0000 0.83010  0.05148  0.88826  Biso   1.000  O
  O9       1.0000 0.24480  0.07934  0.30314  Biso   1.000  O
  O10      1.0000 0.75520  0.57934  0.19686  Biso   1.000  O
  O11      1.0000 0.75520  0.92066  0.69686  Biso   1.000  O
  O12      1.0000 0.24480  0.42066  0.80314  Biso   1.000  O
  O13      1.0000 0.22120  0.06686  0.47530  Biso   1.000  O
  O14      1.0000 0.77880  0.56686  0.02470  Biso   1.000  O
  O15      1.0000 0.77880  0.93314  0.52470  Biso   1.000  O
  O16      1.0000 0.22120  0.43314  0.97530  Biso   1.000  O
  C41      1.0000 0.83000  0.39229  0.31790  Biso   1.000  C
  C42      1.0000 0.17000  0.89229  0.18210  Biso   1.000  C
  C43      1.0000 0.17000  0.60771  0.68210  Biso   1.000  C
  C44      1.0000 0.83000  0.10771  0.81790  Biso   1.000  C
  C45      1.0000 0.92170  0.31543  0.33590  Biso   1.000  C
  C46      1.0000 0.07830  0.81543  0.16410  Biso   1.000  C
  C47      1.0000 0.07830  0.68457  0.66410  Biso   1.000  C
  C48      1.0000 0.92170  0.18457  0.83590  Biso   1.000  C
  C49      1.0000 0.98600  0.29660  0.43690  Biso   1.000  C
  C50      1.0000 0.01400  0.79660  0.06310  Biso   1.000  C
  C51      1.0000 0.01400  0.70340  0.56310  Biso   1.000  C
  C52      1.0000 0.98600  0.20340  0.93690  Biso   1.000  C
  H41      1.0000 0.97150  0.33190  0.49400  Biso   1.000  H
  H42      1.0000 0.02850  0.83190  0.00600  Biso   1.000  H
  H43      1.0000 0.02850  0.66810  0.50600  Biso   1.000  H
  H44      1.0000 0.97150  0.16810  0.99400  Biso   1.000  H
  C53      1.0000 0.07120  0.22650  0.45400  Biso   1.000  C
  C54      1.0000 0.92880  0.72650  0.04600  Biso   1.000  C
  C55      1.0000 0.92880  0.77350  0.54600  Biso   1.000  C
  C56      1.0000 0.07120  0.27350  0.95400  Biso   1.000  C
  H45      1.0000 0.11190  0.21400  0.52270  Biso   1.000  H
  H46      1.0000 0.88810  0.71400  0.97730  Biso   1.000  H
  H47      1.0000 0.88810  0.78600  0.47730  Biso   1.000  H
  H48      1.0000 0.11190  0.28600  0.02270  Biso   1.000  H
  C57      1.0000 0.09640  0.17428  0.36920  Biso   1.000  C
  C58      1.0000 0.90360  0.67428  0.13080  Biso   1.000  C
  C59      1.0000 0.90360  0.82572  0.63080  Biso   1.000  C
  C60      1.0000 0.09640  0.32572  0.86920  Biso   1.000  C
  C61      1.0000 0.03170  0.19275  0.26830  Biso   1.000  C
  C62      1.0000 0.96830  0.69275  0.23170  Biso   1.000  C
  C63      1.0000 0.96830  0.80725  0.73170  Biso   1.000  C
  C64      1.0000 0.03170  0.30725  0.76830  Biso   1.000  C
  H49      1.0000 0.04740  0.15820  0.21090  Biso   1.000  H
  H50      1.0000 0.95260  0.65820  0.28910  Biso   1.000  H
  H51      1.0000 0.95260  0.84180  0.78910  Biso   1.000  H
  H52      1.0000 0.04740  0.34180  0.71090  Biso   1.000  H
  C65      1.0000 0.94450  0.26150  0.25190  Biso   1.000  C
  C66      1.0000 0.05550  0.76150  0.24810  Biso   1.000  C
  C67      1.0000 0.05550  0.73850  0.74810  Biso   1.000  C
  C68      1.0000 0.94450  0.23850  0.75190  Biso   1.000  C
  H53      1.0000 0.90030  0.27210  0.18390  Biso   1.000  H
  H54      1.0000 0.09970  0.77210  0.31610  Biso   1.000  H
  H55      1.0000 0.09970  0.72790  0.81610  Biso   1.000  H
  H56      1.0000 0.90030  0.22790  0.68390  Biso   1.000  H
  C69      1.0000 0.19440  0.10036  0.38650  Biso   1.000  C
  C70      1.0000 0.80560  0.60036  0.11350  Biso   1.000  C
  C71      1.0000 0.80560  0.89964  0.61350  Biso   1.000  C
  C72      1.0000 0.19440  0.39964  0.88650  Biso   1.000  C
  O17      1.0000 0.05100  0.46148  0.13400  Biso   1.000  O
  O18      1.0000 0.94900  0.96148  0.36600  Biso   1.000  O
  O19      1.0000 0.94900  0.53852  0.86600  Biso   1.000  O
  O20      1.0000 0.05100  0.03852  0.63400  Biso   1.000  O
  H57      1.0000 0.98140  0.48810  0.10630  Biso   1.000  H
  H58      1.0000 0.01860  0.98810  0.39370  Biso   1.000  H
  H59      1.0000 0.01860  0.51190  0.89370  Biso   1.000  H
  H60      1.0000 0.98140  0.01190  0.60630  Biso   1.000  H
  H61      1.0000 0.09660  0.44040  0.08790  Biso   1.000  H
  H62      1.0000 0.90340  0.94040  0.41210  Biso   1.000  H
  H63      1.0000 0.90340  0.55960  0.91210  Biso   1.000  H
  H64      1.0000 0.09660  0.05960  0.58790  Biso   1.000  H
  O21      1.0000 0.89380  0.48496  0.60430  Biso   1.000  O
  O22      1.0000 0.10620  0.98496  0.89570  Biso   1.000  O
  O23      1.0000 0.10620  0.51504  0.39570  Biso   1.000  O
  O24      1.0000 0.89380  0.01504  0.10430  Biso   1.000  O
  H65      1.0000 0.88380  0.47740  0.53720  Biso   1.000  H
  H66      1.0000 0.11620  0.97740  0.96280  Biso   1.000  H
  H67      1.0000 0.11620  0.52260  0.46280  Biso   1.000  H
  H68      1.0000 0.88380  0.02260  0.03720  Biso   1.000  H
  H69      1.0000 0.97090  0.50020  0.63310  Biso   1.000  H
  H70      1.0000 0.02910  0.00020  0.86690  Biso   1.000  H
  H71      1.0000 0.02910  0.49980  0.36690  Biso   1.000  H
  H72      1.0000 0.97090  0.99980  0.13310  Biso   1.000  H
