data_image0
_cell_length_a       7.1729
_cell_length_b       9.5918
_cell_length_c       19.7996
_cell_angle_alpha    82.234
_cell_angle_beta     80.165
_cell_angle_gamma    72.547

_symmetry_space_group_name_H-M    "P 1"
_symmetry_int_tables_number       1

loop_
  _symmetry_equiv_pos_as_xyz
  'x, y, z'

loop_
  _atom_site_label
  _atom_site_occupancy
  _atom_site_fract_x
  _atom_site_fract_y
  _atom_site_fract_z
  _atom_site_thermal_displace_type
  _atom_site_B_iso_or_equiv
  _atom_site_type_symbol
  Cu1      1.0000 0.17825  0.23445  0.15162  Biso   1.000  Cu
  Cu2      1.0000 0.82175  0.76555  0.84838  Biso   1.000  Cu
  Cu3      1.0000 0.34619  0.81231  0.34192  Biso   1.000  Cu
  Cu4      1.0000 0.65381  0.18769  0.65808  Biso   1.000  Cu
  N1       1.0000 0.13000  0.44930  0.14123  Biso   1.000  N
  N2       1.0000 0.87000  0.55070  0.85877  Biso   1.000  N
  N3       1.0000 0.23090  0.25920  0.05017  Biso   1.000  N
  N4       1.0000 0.76910  0.74080  0.94983  Biso   1.000  N
  N5       1.0000 0.28510  0.78100  0.44324  Biso   1.000  N
  N6       1.0000 0.71490  0.21900  0.55676  Biso   1.000  N
  N7       1.0000 0.39370  0.59800  0.34875  Biso   1.000  N
  N8       1.0000 0.60630  0.40200  0.65125  Biso   1.000  N
  O1       1.0000 0.16600  0.21206  0.25294  Biso   1.000  O
  O2       1.0000 0.83400  0.78794  0.74706  Biso   1.000  O
  O3       1.0000 0.27340  0.01835  0.15864  Biso   1.000  O
  O4       1.0000 0.72660  0.98165  0.84136  Biso   1.000  O
  O5       1.0000 0.24860  0.02937  0.33500  Biso   1.000  O
  O6       1.0000 0.75140  0.97063  0.66500  Biso   1.000  O
  O7       1.0000 0.36580  0.83649  0.24020  Biso   1.000  O
  O8       1.0000 0.63420  0.16351  0.75980  Biso   1.000  O
  O9       1.0000 0.84600  0.24070  0.17050  Biso   1.000  O
  O10      1.0000 0.15400  0.75930  0.82950  Biso   1.000  O
  O11      1.0000 0.54940  0.26230  0.12785  Biso   1.000  O
  O12      1.0000 0.45060  0.73770  0.87215  Biso   1.000  O
  O13      1.0000 0.84620  0.10630  0.07862  Biso   1.000  O
  O14      1.0000 0.15380  0.89370  0.92138  Biso   1.000  O
  O15      1.0000 0.70970  0.05280  0.19125  Biso   1.000  O
  O16      1.0000 0.29030  0.94720  0.80875  Biso   1.000  O
  Cl1      1.0000 0.73739  0.16600  0.14054  Biso   1.000  Cl
  Cl2      1.0000 0.26261  0.83400  0.85946  Biso   1.000  Cl
  Cl3      1.0000 0.81980  0.78921  0.36484  Biso   1.000  Cl
  Cl4      1.0000 0.18020  0.21079  0.63516  Biso   1.000  Cl
  O17      1.0000 0.96680  0.85770  0.33253  Biso   1.000  O
  O18      1.0000 0.03320  0.14230  0.66747  Biso   1.000  O
  O19      1.0000 0.88330  0.63830  0.35080  Biso   1.000  O
  O20      1.0000 0.11670  0.36170  0.64920  Biso   1.000  O
  O21      1.0000 0.79110  0.79090  0.43554  Biso   1.000  O
  O22      1.0000 0.20890  0.20910  0.56446  Biso   1.000  O
  O23      1.0000 0.63320  0.88240  0.34910  Biso   1.000  O
  O24      1.0000 0.36680  0.11760  0.65090  Biso   1.000  O
  C1       1.0000 0.23160  0.07980  0.27415  Biso   1.000  C
  C2       1.0000 0.76840  0.92020  0.72585  Biso   1.000  C
  C3       1.0000 0.29680  0.96770  0.21964  Biso   1.000  C
  C4       1.0000 0.70320  0.03230  0.78036  Biso   1.000  C
  C5       1.0000 0.06840  0.53960  0.19165  Biso   1.000  C
  C6       1.0000 0.93160  0.46040  0.80835  Biso   1.000  C
  H1       1.0000 0.03400  0.50120  0.23670  Biso   1.000  H
  H2       1.0000 0.96600  0.49880  0.76330  Biso   1.000  H
  C7       1.0000 0.05390  0.68760  0.17939  Biso   1.000  C
  C8       1.0000 0.94610  0.31240  0.82061  Biso   1.000  C
  H3       1.0000 0.00790  0.74930  0.21540  Biso   1.000  H
  H4       1.0000 0.99210  0.25070  0.78460  Biso   1.000  H
  C9       1.0000 0.10800  0.74280  0.11352  Biso   1.000  C
  C10      1.0000 0.89200  0.25720  0.88648  Biso   1.000  C
  H5       1.0000 0.10200  0.84270  0.10420  Biso   1.000  H
  H6       1.0000 0.89800  0.15730  0.89580  Biso   1.000  H
  C11      1.0000 0.17130  0.65020  0.06107  Biso   1.000  C
  C12      1.0000 0.82870  0.34980  0.93893  Biso   1.000  C
  H7       1.0000 0.20790  0.68650  0.01580  Biso   1.000  H
  H8       1.0000 0.79210  0.31350  0.98420  Biso   1.000  H
  C13      1.0000 0.18000  0.50400  0.07627  Biso   1.000  C
  C14      1.0000 0.82000  0.49600  0.92373  Biso   1.000  C
  C15      1.0000 0.24150  0.39470  0.02474  Biso   1.000  C
  C16      1.0000 0.75850  0.60530  0.97526  Biso   1.000  C
  C17      1.0000 0.30500  0.42520  0.95536  Biso   1.000  C
  C18      1.0000 0.69500  0.57480  0.04464  Biso   1.000  C
  H9       1.0000 0.31200  0.52000  0.93800  Biso   1.000  H
  H10      1.0000 0.68800  0.48000  0.06200  Biso   1.000  H
  C19      1.0000 0.35800  0.31190  0.91218  Biso   1.000  C
  C20      1.0000 0.64200  0.68810  0.08782  Biso   1.000  C
  H11      1.0000 0.40390  0.32930  0.86530  Biso   1.000  H
  H12      1.0000 0.59610  0.67070  0.13470  Biso   1.000  H
  C21      1.0000 0.34300  0.17570  0.93818  Biso   1.000  C
  C22      1.0000 0.65700  0.82430  0.06182  Biso   1.000  C
  H13      1.0000 0.37600  0.09920  0.90930  Biso   1.000  H
  H14      1.0000 0.62400  0.90080  0.09070  Biso   1.000  H
  C23      1.0000 0.27850  0.15190  0.00762  Biso   1.000  C
  C24      1.0000 0.72150  0.84810  0.99238  Biso   1.000  C
  H15      1.0000 0.26770  0.05830  0.02550  Biso   1.000  H
  H16      1.0000 0.73230  0.94170  0.97450  Biso   1.000  H
  C25      1.0000 0.23770  0.88290  0.48830  Biso   1.000  C
  C26      1.0000 0.76230  0.11710  0.51170  Biso   1.000  C
  H17      1.0000 0.25380  0.97630  0.47310  Biso   1.000  H
  H18      1.0000 0.74620  0.02370  0.52690  Biso   1.000  H
  C27      1.0000 0.16590  0.85400  0.55643  Biso   1.000  C
  C28      1.0000 0.83410  0.14600  0.44357  Biso   1.000  C
  H19      1.0000 0.13370  0.92680  0.58720  Biso   1.000  H
  H20      1.0000 0.86630  0.07320  0.41280  Biso   1.000  H
  C29      1.0000 0.14230  0.71790  0.57853  Biso   1.000  C
  C30      1.0000 0.85770  0.28210  0.42147  Biso   1.000  C
  H21      1.0000 0.09060  0.69720  0.62440  Biso   1.000  H
  H22      1.0000 0.90940  0.30280  0.37560  Biso   1.000  H
  C31      1.0000 0.19520  0.61110  0.53276  Biso   1.000  C
  C32      1.0000 0.80480  0.38890  0.46724  Biso   1.000  C
  H23      1.0000 0.18180  0.51680  0.54740  Biso   1.000  H
  H24      1.0000 0.81820  0.48320  0.45260  Biso   1.000  H
  C33      1.0000 0.26810  0.64530  0.46505  Biso   1.000  C
  C34      1.0000 0.73190  0.35470  0.53495  Biso   1.000  C
  C35      1.0000 0.33200  0.54050  0.41182  Biso   1.000  C
  C36      1.0000 0.66800  0.45950  0.58818  Biso   1.000  C
  C37      1.0000 0.33630  0.39370  0.42298  Biso   1.000  C
  C38      1.0000 0.66370  0.60630  0.57702  Biso   1.000  C
  H25      1.0000 0.29200  0.35480  0.46680  Biso   1.000  H
  H26      1.0000 0.70800  0.64520  0.53320  Biso   1.000  H
  C39      1.0000 0.40550  0.30590  0.36985  Biso   1.000  C
  C40      1.0000 0.59450  0.69410  0.63015  Biso   1.000  C
  H27      1.0000 0.40870  0.20640  0.37680  Biso   1.000  H
  H28      1.0000 0.59130  0.79360  0.62320  Biso   1.000  H
  C41      1.0000 0.47020  0.36480  0.30615  Biso   1.000  C
  C42      1.0000 0.52980  0.63520  0.69385  Biso   1.000  C
  H29      1.0000 0.52010  0.30600  0.26910  Biso   1.000  H
  H30      1.0000 0.47990  0.69400  0.73090  Biso   1.000  H
  C43      1.0000 0.46050  0.51150  0.29762  Biso   1.000  C
  C44      1.0000 0.53950  0.48850  0.70238  Biso   1.000  C
  H31      1.0000 0.50280  0.55210  0.25390  Biso   1.000  H
  H32      1.0000 0.49720  0.44790  0.74610  Biso   1.000  H
  O25      1.0000 0.83300  0.27200  0.15470  Biso   1.000  O
  O26      1.0000 0.16700  0.72800  0.84530  Biso   1.000  O
  O27      1.0000 0.67470  0.81240  0.32150  Biso   1.000  O
  O28      1.0000 0.32530  0.18760  0.67850  Biso   1.000  O
