data_image0
_cell_length_a       10.6191
_cell_length_b       19.6384
_cell_length_c       21.9416
_cell_angle_alpha    107.112
_cell_angle_beta     95.1078
_cell_angle_gamma    94.208

_symmetry_space_group_name_H-M    "P 1"
_symmetry_int_tables_number       1

loop_
  _symmetry_equiv_pos_as_xyz
  'x, y, z'

loop_
  _atom_site_label
  _atom_site_occupancy
  _atom_site_fract_x
  _atom_site_fract_y
  _atom_site_fract_z
  _atom_site_thermal_displace_type
  _atom_site_B_iso_or_equiv
  _atom_site_type_symbol
  Cu1      1.0000 0.05380  0.08810  0.89057  Biso   1.000  Cu
  Cu2      1.0000 0.94620  0.91190  0.10943  Biso   1.000  Cu
  F1       1.0000 0.18030  0.93930  0.00620  Biso   1.000  F
  F2       1.0000 0.81970  0.06070  0.99380  Biso   1.000  F
  F3       1.0000 0.36810  0.93720  0.97500  Biso   1.000  F
  F4       1.0000 0.63190  0.06280  0.02500  Biso   1.000  F
  F5       1.0000 0.20390  0.88430  0.90910  Biso   1.000  F
  F6       1.0000 0.79610  0.11570  0.09090  Biso   1.000  F
  F7       1.0000 0.47000  0.19000  0.90130  Biso   1.000  F
  F8       1.0000 0.53000  0.81000  0.09870  Biso   1.000  F
  F9       1.0000 0.39860  0.24690  0.98630  Biso   1.000  F
  F10      1.0000 0.60140  0.75310  0.01370  Biso   1.000  F
  F11      1.0000 0.52530  0.16930  0.98760  Biso   1.000  F
  F12      1.0000 0.47470  0.83070  0.01240  Biso   1.000  F
  F13      1.0000 0.71900  0.26720  0.89320  Biso   1.000  F
  F14      1.0000 0.28100  0.73280  0.10680  Biso   1.000  F
  F15      1.0000 0.85840  0.27210  0.83240  Biso   1.000  F
  F16      1.0000 0.14160  0.72790  0.16760  Biso   1.000  F
  F17      1.0000 0.91050  0.30250  0.93410  Biso   1.000  F
  F18      1.0000 0.08950  0.69750  0.06590  Biso   1.000  F
  O1       1.0000 0.11610  0.01120  0.91530  Biso   1.000  O
  O2       1.0000 0.88390  0.98880  0.08470  Biso   1.000  O
  O3       1.0000 0.21480  0.14690  0.91900  Biso   1.000  O
  O4       1.0000 0.78520  0.85310  0.08100  Biso   1.000  O
  O5       1.0000 0.89070  0.03000  0.86150  Biso   1.000  O
  O6       1.0000 0.10930  0.97000  0.13850  Biso   1.000  O
  O7       1.0000 0.98230  0.17300  0.88810  Biso   1.000  O
  O8       1.0000 0.01770  0.82700  0.11190  Biso   1.000  O
  C1       1.0000 0.22600  0.01120  0.93940  Biso   1.000  C
  C2       1.0000 0.77400  0.98880  0.06060  Biso   1.000  C
  C3       1.0000 0.31280  0.12650  0.93880  Biso   1.000  C
  C4       1.0000 0.68720  0.87350  0.06120  Biso   1.000  C
  C5       1.0000 0.24670  0.94050  0.95700  Biso   1.000  C
  C6       1.0000 0.75330  0.05950  0.04300  Biso   1.000  C
  C7       1.0000 0.42800  0.18360  0.95440  Biso   1.000  C
  C8       1.0000 0.57200  0.81640  0.04560  Biso   1.000  C
  C9       1.0000 0.78740  0.05520  0.85570  Biso   1.000  C
  C10      1.0000 0.21260  0.94480  0.14430  Biso   1.000  C
  C11      1.0000 0.86970  0.18010  0.88280  Biso   1.000  C
  C12      1.0000 0.13030  0.81990  0.11720  Biso   1.000  C
  C13      1.0000 0.67130  0.99790  0.83440  Biso   1.000  C
  C14      1.0000 0.32870  0.00210  0.16560  Biso   1.000  C
  C15      1.0000 0.83600  0.25610  0.88570  Biso   1.000  C
  C16      1.0000 0.16400  0.74390  0.11430  Biso   1.000  C
  C17      1.0000 0.32780  0.06250  0.95130  Biso   1.000  C
  C18      1.0000 0.67220  0.93750  0.04870  Biso   1.000  C
  C19      1.0000 0.76720  0.12520  0.86780  Biso   1.000  C
  C20      1.0000 0.23280  0.87480  0.13220  Biso   1.000  C
  H1       1.0000 0.40880  0.05380  0.96780  Biso   1.000  H
  H2       1.0000 0.59120  0.94620  0.03220  Biso   1.000  H
  H3       1.0000 0.68280  0.13770  0.86380  Biso   1.000  H
  H4       1.0000 0.31720  0.86230  0.13620  Biso   1.000  H
  F19      1.0000 0.66500  0.97250  0.76900  Biso   1.000  F
  F20      1.0000 0.33500  0.02750  0.23100  Biso   1.000  F
  F21      1.0000 0.68750  0.94240  0.85080  Biso   1.000  F
  F22      1.0000 0.31250  0.05760  0.14920  Biso   1.000  F
  F23      1.0000 0.56510  0.02660  0.85360  Biso   1.000  F
  F24      1.0000 0.43490  0.97340  0.14640  Biso   1.000  F
  Cu3      1.0000 0.94876  0.32506  0.21372  Biso   1.000  Cu
  Cu4      1.0000 0.05124  0.67494  0.78628  Biso   1.000  Cu
  F25      1.0000 0.16200  0.24340  0.36480  Biso   1.000  F
  F26      1.0000 0.83800  0.75660  0.63520  Biso   1.000  F
  F27      1.0000 0.30690  0.30750  0.33940  Biso   1.000  F
  F28      1.0000 0.69310  0.69250  0.66060  Biso   1.000  F
  F29      1.0000 0.29650  0.19260  0.30430  Biso   1.000  F
  F30      1.0000 0.70350  0.80740  0.69570  Biso   1.000  F
  F31      1.0000 0.23120  0.19440  0.06950  Biso   1.000  F
  F32      1.0000 0.76880  0.80560  0.93050  Biso   1.000  F
  F33      1.0000 0.12040  0.10110  0.07510  Biso   1.000  F
  F34      1.0000 0.87960  0.89890  0.92490  Biso   1.000  F
  F35      1.0000 0.03890  0.17050  0.03010  Biso   1.000  F
  F36      1.0000 0.96110  0.82950  0.96990  Biso   1.000  F
  F37      1.0000 0.81510  0.40160  0.04640  Biso   1.000  F
  F38      1.0000 0.18490  0.59840  0.95360  Biso   1.000  F
  F39      1.0000 0.68520  0.45150  0.11020  Biso   1.000  F
  F40      1.0000 0.31480  0.54850  0.88980  Biso   1.000  F
  F41      1.0000 0.62220  0.35680  0.03230  Biso   1.000  F
  F42      1.0000 0.37780  0.64320  0.96770  Biso   1.000  F
  O9       1.0000 0.05740  0.29380  0.27510  Biso   1.000  O
  O10      1.0000 0.94260  0.70620  0.72490  Biso   1.000  O
  O11      1.0000 0.99470  0.24950  0.14050  Biso   1.000  O
  O12      1.0000 0.00530  0.75050  0.85950  Biso   1.000  O
  O13      1.0000 0.86300  0.36750  0.15390  Biso   1.000  O
  O14      1.0000 0.13700  0.63250  0.84610  Biso   1.000  O
  O15      1.0000 0.77000  0.26050  0.21380  Biso   1.000  O
  O16      1.0000 0.23000  0.73950  0.78620  Biso   1.000  O
  C21      1.0000 0.13890  0.25050  0.25890  Biso   1.000  C
  C22      1.0000 0.86110  0.74950  0.74110  Biso   1.000  C
  C23      1.0000 0.08330  0.21290  0.14340  Biso   1.000  C
  C24      1.0000 0.91670  0.78710  0.85660  Biso   1.000  C
  C25      1.0000 0.22630  0.24760  0.31720  Biso   1.000  C
  C26      1.0000 0.77370  0.75240  0.68280  Biso   1.000  C
  C27      1.0000 0.11850  0.16880  0.07930  Biso   1.000  C
  C28      1.0000 0.88150  0.83120  0.92070  Biso   1.000  C
  C29      1.0000 0.75290  0.34480  0.12240  Biso   1.000  C
  C30      1.0000 0.24710  0.65520  0.87760  Biso   1.000  C
  C31      1.0000 0.67840  0.25650  0.17310  Biso   1.000  C
  C32      1.0000 0.32160  0.74350  0.82690  Biso   1.000  C
  C33      1.0000 0.71760  0.38920  0.07770  Biso   1.000  C
  C34      1.0000 0.28240  0.61080  0.92230  Biso   1.000  C
  C35      1.0000 0.56300  0.20630  0.17720  Biso   1.000  C
  C36      1.0000 0.43700  0.79370  0.82280  Biso   1.000  C
  C37      1.0000 0.15930  0.20930  0.19840  Biso   1.000  C
  C38      1.0000 0.84070  0.79070  0.80160  Biso   1.000  C
  C39      1.0000 0.66520  0.29260  0.12700  Biso   1.000  C
  C40      1.0000 0.33480  0.70740  0.87300  Biso   1.000  C
  H5       1.0000 0.22330  0.17740  0.19390  Biso   1.000  H
  H6       1.0000 0.77670  0.82260  0.80610  Biso   1.000  H
  H7       1.0000 0.59050  0.28030  0.09720  Biso   1.000  H
  H8       1.0000 0.40950  0.71970  0.90280  Biso   1.000  H
  F43      1.0000 0.58000  0.14030  0.15450  Biso   1.000  F
  F44      1.0000 0.42000  0.85970  0.84550  Biso   1.000  F
  F45      1.0000 0.45530  0.22090  0.15330  Biso   1.000  F
  F46      1.0000 0.54470  0.77910  0.84670  Biso   1.000  F
  F47      1.0000 0.54490  0.21590  0.23870  Biso   1.000  F
  F48      1.0000 0.45510  0.78410  0.76130  Biso   1.000  F
  Cu5      1.0000 0.52667  0.63217  0.28298  Biso   1.000  Cu
  Cu6      1.0000 0.47333  0.36783  0.71702  Biso   1.000  Cu
  F49      1.0000 0.47950  0.69820  0.49760  Biso   1.000  F
  F50      1.0000 0.52050  0.30180  0.50240  Biso   1.000  F
  F51      1.0000 0.66750  0.67770  0.50100  Biso   1.000  F
  F52      1.0000 0.33250  0.32230  0.49900  Biso   1.000  F
  F53      1.0000 0.52540  0.60170  0.51150  Biso   1.000  F
  F54      1.0000 0.47460  0.39830  0.48850  Biso   1.000  F
  F55      1.0000 0.43900  0.39120  0.25660  Biso   1.000  F
  F56      1.0000 0.56100  0.60880  0.74340  Biso   1.000  F
  F57      1.0000 0.55230  0.39430  0.34380  Biso   1.000  F
  F58      1.0000 0.44770  0.60570  0.65620  Biso   1.000  F
  F59      1.0000 0.64110  0.40760  0.26310  Biso   1.000  F
  F60      1.0000 0.35890  0.59240  0.73690  Biso   1.000  F
  F61      1.0000 0.38370  0.83720  0.24990  Biso   1.000  F
  F62      1.0000 0.61630  0.16280  0.75010  Biso   1.000  F
  F63      1.0000 0.57160  0.88160  0.24520  Biso   1.000  F
  F64      1.0000 0.42840  0.11840  0.75480  Biso   1.000  F
  F65      1.0000 0.51630  0.87270  0.33470  Biso   1.000  F
  F66      1.0000 0.48370  0.12730  0.66530  Biso   1.000  F
  F67      1.0000 0.66210  0.60750  0.07880  Biso   1.000  F
  F68      1.0000 0.33790  0.39250  0.92120  Biso   1.000  F
  F69      1.0000 0.82540  0.61220  0.14330  Biso   1.000  F
  F70      1.0000 0.17460  0.38780  0.85670  Biso   1.000  F
  F71      1.0000 0.78480  0.70500  0.11590  Biso   1.000  F
  F72      1.0000 0.21520  0.29500  0.88410  Biso   1.000  F
  O17      1.0000 0.53340  0.65600  0.37640  Biso   1.000  O
  O18      1.0000 0.46660  0.34400  0.62360  Biso   1.000  O
  O19      1.0000 0.53200  0.53130  0.27350  Biso   1.000  O
  O20      1.0000 0.46800  0.46870  0.72650  Biso   1.000  O
  O21      1.0000 0.50690  0.73060  0.29280  Biso   1.000  O
  O22      1.0000 0.49310  0.26940  0.70720  Biso   1.000  O
  O23      1.0000 0.62430  0.62100  0.20920  Biso   1.000  O
  O24      1.0000 0.37570  0.37900  0.79080  Biso   1.000  O
  C41      1.0000 0.53940  0.61270  0.40780  Biso   1.000  C
  C42      1.0000 0.46060  0.38730  0.59220  Biso   1.000  C
  C43      1.0000 0.53940  0.50480  0.31870  Biso   1.000  C
  C44      1.0000 0.46060  0.49520  0.68130  Biso   1.000  C
  C45      1.0000 0.55280  0.64770  0.48090  Biso   1.000  C
  C46      1.0000 0.44720  0.35230  0.51910  Biso   1.000  C
  C47      1.0000 0.54200  0.42420  0.29680  Biso   1.000  C
  C48      1.0000 0.45800  0.57580  0.70320  Biso   1.000  C
  C49      1.0000 0.54730  0.76370  0.25570  Biso   1.000  C
  C50      1.0000 0.45270  0.23630  0.74430  Biso   1.000  C
  C51      1.0000 0.65170  0.67090  0.18670  Biso   1.000  C
  C52      1.0000 0.34830  0.32910  0.81330  Biso   1.000  C
  C53      1.0000 0.50560  0.84070  0.27250  Biso   1.000  C
  C54      1.0000 0.49440  0.15930  0.72750  Biso   1.000  C
  C55      1.0000 0.73300  0.64960  0.13000  Biso   1.000  C
  C56      1.0000 0.26700  0.35040  0.87000  Biso   1.000  C
  C57      1.0000 0.54370  0.53830  0.38440  Biso   1.000  C
  C58      1.0000 0.45630  0.46170  0.61560  Biso   1.000  C
  C59      1.0000 0.61900  0.74080  0.20590  Biso   1.000  C
  C60      1.0000 0.38100  0.25920  0.79410  Biso   1.000  C
  H9       1.0000 0.54870  0.51100  0.41360  Biso   1.000  H
  H10      1.0000 0.45130  0.48900  0.58640  Biso   1.000  H
  H11      1.0000 0.64830  0.77330  0.18430  Biso   1.000  H
  H12      1.0000 0.35170  0.22670  0.81570  Biso   1.000  H
  Cu7      1.0000 0.00000  0.00000  0.50000  Biso   1.000  Cu
  F73      1.0000 0.28730  0.13100  0.42060  Biso   1.000  F
  F74      1.0000 0.71270  0.86900  0.57940  Biso   1.000  F
  F75      1.0000 0.37320  0.13230  0.50820  Biso   1.000  F
  F76      1.0000 0.62680  0.86770  0.49180  Biso   1.000  F
  F77      1.0000 0.43070  0.06550  0.42640  Biso   1.000  F
  F78      1.0000 0.56930  0.93450  0.57360  Biso   1.000  F
  F79      1.0000 0.12790  0.78100  0.42640  Biso   1.000  F
  F80      1.0000 0.87210  0.21900  0.57360  Biso   1.000  F
  F81      1.0000 0.22740  0.80740  0.35720  Biso   1.000  F
  F82      1.0000 0.77260  0.19260  0.64280  Biso   1.000  F
  F83      1.0000 0.31930  0.82620  0.45160  Biso   1.000  F
  F84      1.0000 0.68070  0.17380  0.54840  Biso   1.000  F
  O25      1.0000 0.13150  0.05460  0.47230  Biso   1.000  O
  O26      1.0000 0.86850  0.94540  0.52770  Biso   1.000  O
  O27      1.0000 0.06250  0.90940  0.45610  Biso   1.000  O
  O28      1.0000 0.93750  0.09060  0.54390  Biso   1.000  O
  C61      1.0000 0.23140  0.02930  0.45160  Biso   1.000  C
  C62      1.0000 0.76860  0.97070  0.54840  Biso   1.000  C
  C63      1.0000 0.17160  0.90430  0.43780  Biso   1.000  C
  C64      1.0000 0.82840  0.09570  0.56220  Biso   1.000  C
  C65      1.0000 0.33140  0.08950  0.44970  Biso   1.000  C
  C66      1.0000 0.66860  0.91050  0.55030  Biso   1.000  C
  C67      1.0000 0.21300  0.82870  0.41790  Biso   1.000  C
  C68      1.0000 0.78700  0.17130  0.58210  Biso   1.000  C
  C69      1.0000 0.25760  0.95880  0.43440  Biso   1.000  C
  C70      1.0000 0.74240  0.04120  0.56560  Biso   1.000  C
  H13      1.0000 0.33750  0.94780  0.41980  Biso   1.000  H
  H14      1.0000 0.66250  0.05220  0.58020  Biso   1.000  H
  O29      1.0000 0.15290  0.38070  0.19330  Biso   1.000  O
  O30      1.0000 0.84710  0.61930  0.80670  Biso   1.000  O
  O31      1.0000 0.33650  0.60990  0.22250  Biso   1.000  O
  O32      1.0000 0.66350  0.39010  0.77750  Biso   1.000  O
  N1       1.0000 0.20020  0.43680  0.18260  Biso   1.000  N
  N2       1.0000 0.79980  0.56320  0.81740  Biso   1.000  N
  N3       1.0000 0.28370  0.54480  0.19570  Biso   1.000  N
  N4       1.0000 0.71630  0.45520  0.80430  Biso   1.000  N
  C71      1.0000 0.15540  0.55960  0.54350  Biso   1.000  C
  C72      1.0000 0.84460  0.44040  0.45650  Biso   1.000  C
  C73      1.0000 0.17630  0.56010  0.49090  Biso   1.000  C
  C74      1.0000 0.82370  0.43990  0.50910  Biso   1.000  C
  C75      1.0000 0.19750  0.54880  0.42580  Biso   1.000  C
  C76      1.0000 0.80250  0.45120  0.57420  Biso   1.000  C
  C77      1.0000 0.22730  0.51830  0.29550  Biso   1.000  C
  C78      1.0000 0.77270  0.48170  0.70450  Biso   1.000  C
  C79      1.0000 0.23740  0.50060  0.22710  Biso   1.000  C
  C80      1.0000 0.76260  0.49940  0.77290  Biso   1.000  C
  C81      1.0000 0.23870  0.43430  0.11750  Biso   1.000  C
  C82      1.0000 0.76130  0.56570  0.88250  Biso   1.000  C
  C83      1.0000 0.25450  0.51460  0.12490  Biso   1.000  C
  C84      1.0000 0.74550  0.48540  0.87510  Biso   1.000  C
  C85      1.0000 0.20540  0.60340  0.39700  Biso   1.000  C
  C86      1.0000 0.79460  0.39660  0.60300  Biso   1.000  C
  C87      1.0000 0.22140  0.58970  0.33350  Biso   1.000  C
  C88      1.0000 0.77860  0.41030  0.66650  Biso   1.000  C
  C89      1.0000 0.22260  0.46370  0.32520  Biso   1.000  C
  C90      1.0000 0.77740  0.53630  0.67480  Biso   1.000  C
  C91      1.0000 0.20780  0.47960  0.38830  Biso   1.000  C
  C92      1.0000 0.79220  0.52040  0.61170  Biso   1.000  C
  H15      1.0000 0.19930  0.65130  0.42220  Biso   1.000  H
  H16      1.0000 0.80070  0.34870  0.57780  Biso   1.000  H
  H17      1.0000 0.22860  0.62730  0.31460  Biso   1.000  H
  H18      1.0000 0.77140  0.37270  0.68540  Biso   1.000  H
  H19      1.0000 0.23110  0.41580  0.30070  Biso   1.000  H
  H20      1.0000 0.76890  0.58420  0.69930  Biso   1.000  H
  H21      1.0000 0.20260  0.44210  0.40750  Biso   1.000  H
  H22      1.0000 0.79740  0.55790  0.59250  Biso   1.000  H
  C93      1.0000 0.36510  0.40040  0.11300  Biso   1.000  C
  C94      1.0000 0.63490  0.59960  0.88700  Biso   1.000  C
  H23      1.0000 0.39480  0.39800  0.07290  Biso   1.000  H
  H24      1.0000 0.60520  0.60200  0.92710  Biso   1.000  H
  H25      1.0000 0.42690  0.42830  0.14690  Biso   1.000  H
  H26      1.0000 0.57310  0.57170  0.85310  Biso   1.000  H
  H27      1.0000 0.35100  0.35350  0.11650  Biso   1.000  H
  H28      1.0000 0.64900  0.64650  0.88350  Biso   1.000  H
  C95      1.0000 0.14020  0.38820  0.06540  Biso   1.000  C
  C96      1.0000 0.85980  0.61180  0.93460  Biso   1.000  C
  H29      1.0000 0.16320  0.38680  0.02420  Biso   1.000  H
  H30      1.0000 0.83680  0.61320  0.97580  Biso   1.000  H
  H31      1.0000 0.13310  0.34110  0.06900  Biso   1.000  H
  H32      1.0000 0.86690  0.65890  0.93100  Biso   1.000  H
  H33      1.0000 0.06100  0.40740  0.07090  Biso   1.000  H
  H34      1.0000 0.93900  0.59260  0.92910  Biso   1.000  H
  C97      1.0000 0.12800  0.54180  0.10760  Biso   1.000  C
  C98      1.0000 0.87200  0.45820  0.89240  Biso   1.000  C
  H35      1.0000 0.10410  0.52420  0.06260  Biso   1.000  H
  H36      1.0000 0.89590  0.47580  0.93740  Biso   1.000  H
  H37      1.0000 0.13820  0.59270  0.12080  Biso   1.000  H
  H38      1.0000 0.86180  0.40730  0.87920  Biso   1.000  H
  H39      1.0000 0.06380  0.52560  0.12920  Biso   1.000  H
  H40      1.0000 0.93620  0.47440  0.87080  Biso   1.000  H
  C99      1.0000 0.36170  0.54070  0.09190  Biso   1.000  C
  C100     1.0000 0.63830  0.45930  0.90810  Biso   1.000  C
  H41      1.0000 0.34280  0.52160  0.04660  Biso   1.000  H
  H42      1.0000 0.65720  0.47840  0.95340  Biso   1.000  H
  H43      1.0000 0.36990  0.59150  0.10380  Biso   1.000  H
  H44      1.0000 0.63010  0.40850  0.89620  Biso   1.000  H
  H45      1.0000 0.43900  0.52500  0.10520  Biso   1.000  H
  H46      1.0000 0.56100  0.47500  0.89480  Biso   1.000  H
  O33      1.0000 0.11830  0.07250  0.79790  Biso   1.000  O
  O34      1.0000 0.88170  0.92750  0.20210  Biso   1.000  O
  O35      1.0000 0.16700  0.99690  0.57730  Biso   1.000  O
  O36      1.0000 0.83300  0.00310  0.42270  Biso   1.000  O
  N5       1.0000 0.12760  0.02920  0.73590  Biso   1.000  N
  N6       1.0000 0.87240  0.97080  0.26410  Biso   1.000  N
  N7       1.0000 0.15400  0.99690  0.63520  Biso   1.000  N
  N8       1.0000 0.84600  0.00310  0.36480  Biso   1.000  N
  N9       1.0000 0.08360  0.59250  0.71260  Biso   1.000  N
  N10      1.0000 0.91640  0.40750  0.28740  Biso   1.000  N
  C101     1.0000 0.11040  0.46790  0.66770  Biso   1.000  C
  C102     1.0000 0.88960  0.53210  0.33230  Biso   1.000  C
  C103     1.0000 0.11360  0.39920  0.67420  Biso   1.000  C
  C104     1.0000 0.88640  0.60080  0.32580  Biso   1.000  C
  C105     1.0000 0.11930  0.33950  0.67640  Biso   1.000  C
  C106     1.0000 0.88070  0.66050  0.32360  Biso   1.000  C
  C107     1.0000 0.12420  0.26750  0.67910  Biso   1.000  C
  C108     1.0000 0.87580  0.73250  0.32090  Biso   1.000  C
  C109     1.0000 0.13400  0.12690  0.68270  Biso   1.000  C
  C110     1.0000 0.86600  0.87310  0.31730  Biso   1.000  C
  C111     1.0000 0.13900  0.05380  0.68480  Biso   1.000  C
  C112     1.0000 0.86100  0.94620  0.31520  Biso   1.000  C
  C113     1.0000 0.17450  0.93100  0.65390  Biso   1.000  C
  C114     1.0000 0.82550  0.06900  0.34610  Biso   1.000  C
  C115     1.0000 0.11500  0.95110  0.71730  Biso   1.000  C
  C116     1.0000 0.88500  0.04890  0.28270  Biso   1.000  C
  C117     1.0000 0.13070  0.54730  0.60310  Biso   1.000  C
  C118     1.0000 0.86930  0.45270  0.39690  Biso   1.000  C
  C119     1.0000 0.06030  0.24350  0.72380  Biso   1.000  C
  C120     1.0000 0.93970  0.75650  0.27620  Biso   1.000  C
  C121     1.0000 0.06710  0.17480  0.72610  Biso   1.000  C
  C122     1.0000 0.93290  0.82520  0.27390  Biso   1.000  C
  C123     1.0000 0.19430  0.15000  0.63870  Biso   1.000  C
  C124     1.0000 0.80570  0.85000  0.36130  Biso   1.000  C
  C125     1.0000 0.19050  0.21970  0.63650  Biso   1.000  C
  C126     1.0000 0.80950  0.78030  0.36350  Biso   1.000  C
  C127     1.0000 0.13300  0.47940  0.60890  Biso   1.000  C
  C128     1.0000 0.86700  0.52060  0.39110  Biso   1.000  C
  C129     1.0000 0.10660  0.60390  0.65600  Biso   1.000  C
  C130     1.0000 0.89340  0.39610  0.34400  Biso   1.000  C
  C131     1.0000 0.08770  0.52640  0.71720  Biso   1.000  C
  C132     1.0000 0.91230  0.47360  0.28280  Biso   1.000  C
  H47      1.0000 0.01280  0.27510  0.75220  Biso   1.000  H
  H48      1.0000 0.98720  0.72490  0.24780  Biso   1.000  H
  H49      1.0000 0.02540  0.15930  0.75700  Biso   1.000  H
  H50      1.0000 0.97460  0.84070  0.24300  Biso   1.000  H
  H51      1.0000 0.23940  0.11830  0.60910  Biso   1.000  H
  H52      1.0000 0.76060  0.88170  0.39090  Biso   1.000  H
  H53      1.0000 0.23360  0.23520  0.60600  Biso   1.000  H
  H54      1.0000 0.76640  0.76480  0.39400  Biso   1.000  H
  H55      1.0000 0.14980  0.44070  0.57380  Biso   1.000  H
  H56      1.0000 0.85020  0.55930  0.42620  Biso   1.000  H
  H57      1.0000 0.10590  0.65110  0.65280  Biso   1.000  H
  H58      1.0000 0.89410  0.34890  0.34720  Biso   1.000  H
  H59      1.0000 0.07430  0.51890  0.75710  Biso   1.000  H
  H60      1.0000 0.92570  0.48110  0.24290  Biso   1.000  H
  C133     1.0000 0.10270  0.86520  0.60330  Biso   1.000  C
  C134     1.0000 0.89730  0.13480  0.39670  Biso   1.000  C
  H61      1.0000 0.11440  0.82360  0.61610  Biso   1.000  H
  H62      1.0000 0.88560  0.17640  0.38390  Biso   1.000  H
  H63      1.0000 0.01470  0.87100  0.59890  Biso   1.000  H
  H64      1.0000 0.98530  0.12900  0.40110  Biso   1.000  H
  H65      1.0000 0.13520  0.86020  0.56340  Biso   1.000  H
  H66      1.0000 0.86480  0.13980  0.43660  Biso   1.000  H
  C135     1.0000 0.31070  0.92480  0.66250  Biso   1.000  C
  C136     1.0000 0.68930  0.07520  0.33750  Biso   1.000  C
  H67      1.0000 0.32760  0.88350  0.67460  Biso   1.000  H
  H68      1.0000 0.67240  0.11650  0.32540  Biso   1.000  H
  H69      1.0000 0.34300  0.92200  0.62290  Biso   1.000  H
  H70      1.0000 0.65700  0.07800  0.37710  Biso   1.000  H
  H71      1.0000 0.35060  0.96640  0.69470  Biso   1.000  H
  H72      1.0000 0.64940  0.03360  0.30530  Biso   1.000  H
  C137     1.0000 0.96340  0.93050  0.70590  Biso   1.000  C
  C138     1.0000 0.03660  0.06950  0.29410  Biso   1.000  C
  H73      1.0000 0.94570  0.87990  0.69310  Biso   1.000  H
  H74      1.0000 0.05430  0.12010  0.30690  Biso   1.000  H
  H75      1.0000 0.92720  0.95100  0.74430  Biso   1.000  H
  H76      1.0000 0.07280  0.04900  0.25570  Biso   1.000  H
  H77      1.0000 0.92800  0.94830  0.67300  Biso   1.000  H
  H78      1.0000 0.07200  0.05170  0.32700  Biso   1.000  H
  C139     1.0000 0.16070  0.92220  0.76860  Biso   1.000  C
  C140     1.0000 0.83930  0.07780  0.23140  Biso   1.000  C
  H79      1.0000 0.14780  0.87130  0.75450  Biso   1.000  H
  H80      1.0000 0.85220  0.12870  0.24550  Biso   1.000  H
  H81      1.0000 0.11890  0.94000  0.80580  Biso   1.000  H
  H82      1.0000 0.88110  0.06000  0.19420  Biso   1.000  H
  H83      1.0000 0.24910  0.93730  0.77870  Biso   1.000  H
  H84      1.0000 0.75090  0.06270  0.22130  Biso   1.000  H
  F85      1.0000 0.33900  0.03440  0.11580  Biso   1.000  F
  F86      1.0000 0.66100  0.96560  0.88420  Biso   1.000  F
  F87      1.0000 0.31000  0.05870  0.20900  Biso   1.000  F
  F88      1.0000 0.69000  0.94130  0.79100  Biso   1.000  F
  F89      1.0000 0.43520  0.97810  0.17600  Biso   1.000  F
  F90      1.0000 0.56480  0.02190  0.82400  Biso   1.000  F
  F91      1.0000 0.59220  0.15060  0.19430  Biso   1.000  F
  F92      1.0000 0.40780  0.84940  0.80570  Biso   1.000  F
  F93      1.0000 0.48650  0.17980  0.12300  Biso   1.000  F
  F94      1.0000 0.51350  0.82020  0.87700  Biso   1.000  F
  F95      1.0000 0.49530  0.24010  0.22300  Biso   1.000  F
  F96      1.0000 0.50470  0.75990  0.77700  Biso   1.000  F
