data_image0
_cell_length_a       15.249
_cell_length_b       20.201
_cell_length_c       13.488
_cell_angle_alpha    90
_cell_angle_beta     99.509
_cell_angle_gamma    90

_symmetry_space_group_name_H-M    "P 1"
_symmetry_int_tables_number       1

loop_
  _symmetry_equiv_pos_as_xyz
  'x, y, z'

loop_
  _atom_site_label
  _atom_site_occupancy
  _atom_site_fract_x
  _atom_site_fract_y
  _atom_site_fract_z
  _atom_site_thermal_displace_type
  _atom_site_B_iso_or_equiv
  _atom_site_type_symbol
  Cu1      1.0000 0.25105  0.72270  0.89547  Biso   1.000  Cu
  Cu2      1.0000 0.74895  0.22270  0.60453  Biso   1.000  Cu
  Cu3      1.0000 0.74895  0.27730  0.10453  Biso   1.000  Cu
  Cu4      1.0000 0.25105  0.77730  0.39547  Biso   1.000  Cu
  Fe1      1.0000 0.01511  0.79267  0.61145  Biso   1.000  Fe
  Fe2      1.0000 0.98489  0.29267  0.88855  Biso   1.000  Fe
  Fe3      1.0000 0.98489  0.20733  0.38855  Biso   1.000  Fe
  Fe4      1.0000 0.01511  0.70733  0.11145  Biso   1.000  Fe
  Fe5      1.0000 0.46341  0.66170  0.20715  Biso   1.000  Fe
  Fe6      1.0000 0.53659  0.16170  0.29285  Biso   1.000  Fe
  Fe7      1.0000 0.53659  0.33830  0.79285  Biso   1.000  Fe
  Fe8      1.0000 0.46341  0.83830  0.70715  Biso   1.000  Fe
  B1       1.0000 0.81810  0.75290  0.55070  Biso   1.000  B
  B2       1.0000 0.18190  0.25290  0.94930  Biso   1.000  B
  B3       1.0000 0.18190  0.24710  0.44930  Biso   1.000  B
  B4       1.0000 0.81810  0.74710  0.05070  Biso   1.000  B
  H1       1.0000 0.74390  0.74830  0.52730  Biso   1.000  H
  H2       1.0000 0.25610  0.24830  0.97270  Biso   1.000  H
  H3       1.0000 0.25610  0.25170  0.47270  Biso   1.000  H
  H4       1.0000 0.74390  0.75170  0.02730  Biso   1.000  H
  B5       1.0000 0.53270  0.52120  0.26700  Biso   1.000  B
  B6       1.0000 0.46730  0.02120  0.23300  Biso   1.000  B
  B7       1.0000 0.46730  0.47880  0.73300  Biso   1.000  B
  B8       1.0000 0.53270  0.97880  0.76700  Biso   1.000  B
  H5       1.0000 0.55330  0.46740  0.29130  Biso   1.000  H
  H6       1.0000 0.44670  0.96740  0.20870  Biso   1.000  H
  H7       1.0000 0.44670  0.53260  0.70870  Biso   1.000  H
  H8       1.0000 0.55330  0.03260  0.79130  Biso   1.000  H
  C1       1.0000 0.91320  0.84230  0.77460  Biso   1.000  C
  C2       1.0000 0.08680  0.34230  0.72540  Biso   1.000  C
  C3       1.0000 0.08680  0.15770  0.22540  Biso   1.000  C
  C4       1.0000 0.91320  0.65770  0.27460  Biso   1.000  C
  H9       1.0000 0.96170  0.85970  0.81750  Biso   1.000  H
  H10      1.0000 0.03830  0.35970  0.68250  Biso   1.000  H
  H11      1.0000 0.03830  0.14030  0.18250  Biso   1.000  H
  H12      1.0000 0.96170  0.64030  0.31750  Biso   1.000  H
  C5       1.0000 0.82740  0.84620  0.79060  Biso   1.000  C
  C6       1.0000 0.17260  0.34620  0.70940  Biso   1.000  C
  C7       1.0000 0.17260  0.15380  0.20940  Biso   1.000  C
  C8       1.0000 0.82740  0.65380  0.29060  Biso   1.000  C
  H13      1.0000 0.80660  0.86660  0.84410  Biso   1.000  H
  H14      1.0000 0.19340  0.36660  0.65590  Biso   1.000  H
  H15      1.0000 0.19340  0.13340  0.15590  Biso   1.000  H
  H16      1.0000 0.80660  0.63340  0.34410  Biso   1.000  H
  C9       1.0000 0.77910  0.81420  0.71160  Biso   1.000  C
  C10      1.0000 0.22090  0.31420  0.78840  Biso   1.000  C
  C11      1.0000 0.22090  0.18580  0.28840  Biso   1.000  C
  C12      1.0000 0.77910  0.68580  0.21160  Biso   1.000  C
  H17      1.0000 0.71780  0.80820  0.70170  Biso   1.000  H
  H18      1.0000 0.28220  0.30820  0.79830  Biso   1.000  H
  H19      1.0000 0.28220  0.19180  0.29830  Biso   1.000  H
  H20      1.0000 0.71780  0.69180  0.20170  Biso   1.000  H
  C13      1.0000 0.00740  0.64340  0.59120  Biso   1.000  C
  C14      1.0000 0.99260  0.14340  0.90880  Biso   1.000  C
  C15      1.0000 0.99260  0.35660  0.40880  Biso   1.000  C
  C16      1.0000 0.00740  0.85660  0.09120  Biso   1.000  C
  H21      1.0000 0.06840  0.63610  0.60510  Biso   1.000  H
  H22      1.0000 0.93160  0.13610  0.89490  Biso   1.000  H
  H23      1.0000 0.93160  0.36390  0.39490  Biso   1.000  H
  H24      1.0000 0.06840  0.86390  0.10510  Biso   1.000  H
  C17      1.0000 0.94280  0.59390  0.56880  Biso   1.000  C
  C18      1.0000 0.05720  0.09390  0.93120  Biso   1.000  C
  C19      1.0000 0.05720  0.40610  0.43120  Biso   1.000  C
  C20      1.0000 0.94280  0.90610  0.06880  Biso   1.000  C
  H25      1.0000 0.95140  0.54840  0.56580  Biso   1.000  H
  H26      1.0000 0.04860  0.04840  0.93420  Biso   1.000  H
  H27      1.0000 0.04860  0.45160  0.43420  Biso   1.000  H
  H28      1.0000 0.95140  0.95160  0.06580  Biso   1.000  H
  C21      1.0000 0.86410  0.62810  0.55230  Biso   1.000  C
  C22      1.0000 0.13590  0.12810  0.94770  Biso   1.000  C
  C23      1.0000 0.13590  0.37190  0.44770  Biso   1.000  C
  C24      1.0000 0.86410  0.87190  0.05230  Biso   1.000  C
  H29      1.0000 0.80820  0.60900  0.53480  Biso   1.000  H
  H30      1.0000 0.19180  0.10900  0.96520  Biso   1.000  H
  H31      1.0000 0.19180  0.39100  0.46520  Biso   1.000  H
  H32      1.0000 0.80820  0.89100  0.03480  Biso   1.000  H
  C25      1.0000 0.94760  0.85210  0.40450  Biso   1.000  C
  C26      1.0000 0.05240  0.35210  0.09550  Biso   1.000  C
  C27      1.0000 0.05240  0.14790  0.59550  Biso   1.000  C
  C28      1.0000 0.94760  0.64790  0.90450  Biso   1.000  C
  H33      1.0000 0.00040  0.87250  0.39560  Biso   1.000  H
  H34      1.0000 0.99960  0.37250  0.10440  Biso   1.000  H
  H35      1.0000 0.99960  0.12750  0.60440  Biso   1.000  H
  H36      1.0000 0.00040  0.62750  0.89560  Biso   1.000  H
  C29      1.0000 0.86960  0.85120  0.33490  Biso   1.000  C
  C30      1.0000 0.13040  0.35120  0.16510  Biso   1.000  C
  C31      1.0000 0.13040  0.14880  0.66510  Biso   1.000  C
  C32      1.0000 0.86960  0.64880  0.83490  Biso   1.000  C
  H37      1.0000 0.86040  0.86970  0.27090  Biso   1.000  H
  H38      1.0000 0.13960  0.36970  0.22910  Biso   1.000  H
  H39      1.0000 0.13960  0.13030  0.72910  Biso   1.000  H
  H40      1.0000 0.86040  0.63030  0.77090  Biso   1.000  H
  C33      1.0000 0.80960  0.81770  0.37970  Biso   1.000  C
  C34      1.0000 0.19040  0.31770  0.12030  Biso   1.000  C
  C35      1.0000 0.19040  0.18230  0.62030  Biso   1.000  C
  C36      1.0000 0.80960  0.68230  0.87970  Biso   1.000  C
  H41      1.0000 0.75050  0.81020  0.35160  Biso   1.000  H
  H42      1.0000 0.24950  0.31020  0.14840  Biso   1.000  H
  H43      1.0000 0.24950  0.18980  0.64840  Biso   1.000  H
  H44      1.0000 0.75050  0.68980  0.85160  Biso   1.000  H
  C37      1.0000 0.10040  0.76630  0.72630  Biso   1.000  C
  C38      1.0000 0.89960  0.26630  0.77370  Biso   1.000  C
  C39      1.0000 0.89960  0.23370  0.27370  Biso   1.000  C
  C40      1.0000 0.10040  0.73370  0.22630  Biso   1.000  C
  C41      1.0000 0.05910  0.88010  0.63610  Biso   1.000  C
  C42      1.0000 0.94090  0.38010  0.86390  Biso   1.000  C
  C43      1.0000 0.94090  0.11990  0.36390  Biso   1.000  C
  C44      1.0000 0.05910  0.61990  0.13610  Biso   1.000  C
  C45      1.0000 0.11000  0.72070  0.03730  Biso   1.000  C
  C46      1.0000 0.89000  0.22070  0.46270  Biso   1.000  C
  C47      1.0000 0.89000  0.27930  0.96270  Biso   1.000  C
  C48      1.0000 0.11000  0.77930  0.53730  Biso   1.000  C
  C49      1.0000 0.30190  0.56960  0.20310  Biso   1.000  C
  C50      1.0000 0.69810  0.06960  0.29690  Biso   1.000  C
  C51      1.0000 0.69810  0.43040  0.79690  Biso   1.000  C
  C52      1.0000 0.30190  0.93040  0.70310  Biso   1.000  C
  H45      1.0000 0.25750  0.60080  0.18370  Biso   1.000  H
  H46      1.0000 0.74250  0.10080  0.31630  Biso   1.000  H
  H47      1.0000 0.74250  0.39920  0.81630  Biso   1.000  H
  H48      1.0000 0.25750  0.89920  0.68370  Biso   1.000  H
  C53      1.0000 0.28780  0.50440  0.22170  Biso   1.000  C
  C54      1.0000 0.71220  0.00440  0.27830  Biso   1.000  C
  C55      1.0000 0.71220  0.49560  0.77830  Biso   1.000  C
  C56      1.0000 0.28780  0.99560  0.72170  Biso   1.000  C
  H49      1.0000 0.23320  0.48310  0.21770  Biso   1.000  H
  H50      1.0000 0.76680  0.98310  0.28230  Biso   1.000  H
  H51      1.0000 0.76680  0.51690  0.78230  Biso   1.000  H
  H52      1.0000 0.23320  0.01690  0.71770  Biso   1.000  H
  C57      1.0000 0.36860  0.47730  0.24680  Biso   1.000  C
  C58      1.0000 0.63140  0.97730  0.25320  Biso   1.000  C
  C59      1.0000 0.63140  0.52270  0.75320  Biso   1.000  C
  C60      1.0000 0.36860  0.02270  0.74680  Biso   1.000  C
  H53      1.0000 0.37930  0.43310  0.26400  Biso   1.000  H
  H54      1.0000 0.62070  0.93310  0.23600  Biso   1.000  H
  H55      1.0000 0.62070  0.56690  0.73600  Biso   1.000  H
  H56      1.0000 0.37930  0.06690  0.76400  Biso   1.000  H
  C61      1.0000 0.56020  0.66760  0.42270  Biso   1.000  C
  C62      1.0000 0.43980  0.16760  0.07730  Biso   1.000  C
  C63      1.0000 0.43980  0.33240  0.57730  Biso   1.000  C
  C64      1.0000 0.56020  0.83240  0.92270  Biso   1.000  C
  H57      1.0000 0.55170  0.71240  0.43370  Biso   1.000  H
  H58      1.0000 0.44830  0.21240  0.06630  Biso   1.000  H
  H59      1.0000 0.44830  0.28760  0.56630  Biso   1.000  H
  H60      1.0000 0.55170  0.78760  0.93370  Biso   1.000  H
  C65      1.0000 0.60110  0.62260  0.49380  Biso   1.000  C
  C66      1.0000 0.39890  0.12260  0.00620  Biso   1.000  C
  C67      1.0000 0.39890  0.37740  0.50620  Biso   1.000  C
  C68      1.0000 0.60110  0.87740  0.99380  Biso   1.000  C
  H61      1.0000 0.62330  0.63140  0.56090  Biso   1.000  H
  H62      1.0000 0.37670  0.13140  0.93910  Biso   1.000  H
  H63      1.0000 0.37670  0.36860  0.43910  Biso   1.000  H
  H64      1.0000 0.62330  0.86860  0.06090  Biso   1.000  H
  C69      1.0000 0.60240  0.56440  0.44680  Biso   1.000  C
  C70      1.0000 0.39760  0.06440  0.05320  Biso   1.000  C
  C71      1.0000 0.39760  0.43560  0.55320  Biso   1.000  C
  C72      1.0000 0.60240  0.93560  0.94680  Biso   1.000  C
  H65      1.0000 0.62750  0.52540  0.47530  Biso   1.000  H
  H66      1.0000 0.37250  0.02540  0.02470  Biso   1.000  H
  H67      1.0000 0.37250  0.47460  0.52470  Biso   1.000  H
  H68      1.0000 0.62750  0.97460  0.97530  Biso   1.000  H
  C73      1.0000 0.57170  0.61470  0.05080  Biso   1.000  C
  C74      1.0000 0.42830  0.11470  0.44920  Biso   1.000  C
  C75      1.0000 0.42830  0.38530  0.94920  Biso   1.000  C
  C76      1.0000 0.57170  0.88530  0.55080  Biso   1.000  C
  H69      1.0000 0.56420  0.65210  0.01020  Biso   1.000  H
  H70      1.0000 0.43580  0.15210  0.48980  Biso   1.000  H
  H71      1.0000 0.43580  0.34790  0.98980  Biso   1.000  H
  H72      1.0000 0.56420  0.84790  0.51020  Biso   1.000  H
  C77      1.0000 0.61620  0.55800  0.03050  Biso   1.000  C
  C78      1.0000 0.38380  0.05800  0.46950  Biso   1.000  C
  C79      1.0000 0.38380  0.44200  0.96950  Biso   1.000  C
  C80      1.0000 0.61620  0.94200  0.53050  Biso   1.000  C
  H73      1.0000 0.64390  0.55000  0.97520  Biso   1.000  H
  H74      1.0000 0.35610  0.05000  0.52480  Biso   1.000  H
  H75      1.0000 0.35610  0.45000  0.02480  Biso   1.000  H
  H76      1.0000 0.64390  0.95000  0.47520  Biso   1.000  H
  C81      1.0000 0.61080  0.51630  0.10880  Biso   1.000  C
  C82      1.0000 0.38920  0.01630  0.39120  Biso   1.000  C
  C83      1.0000 0.38920  0.48370  0.89120  Biso   1.000  C
  C84      1.0000 0.61080  0.98370  0.60880  Biso   1.000  C
  H77      1.0000 0.63420  0.47370  0.11610  Biso   1.000  H
  H78      1.0000 0.36580  0.97370  0.38390  Biso   1.000  H
  H79      1.0000 0.36580  0.52630  0.88390  Biso   1.000  H
  H80      1.0000 0.63420  0.02630  0.61610  Biso   1.000  H
  C85      1.0000 0.39110  0.68580  0.08260  Biso   1.000  C
  C86      1.0000 0.60890  0.18580  0.41740  Biso   1.000  C
  C87      1.0000 0.60890  0.31420  0.91740  Biso   1.000  C
  C88      1.0000 0.39110  0.81420  0.58260  Biso   1.000  C
  C89      1.0000 0.53500  0.74120  0.20300  Biso   1.000  C
  C90      1.0000 0.46500  0.24120  0.29700  Biso   1.000  C
  C91      1.0000 0.46500  0.25880  0.79700  Biso   1.000  C
  C92      1.0000 0.53500  0.75880  0.70300  Biso   1.000  C
  C93      1.0000 0.38640  0.78630  0.77560  Biso   1.000  C
  C94      1.0000 0.61360  0.28630  0.72440  Biso   1.000  C
  C95      1.0000 0.61360  0.21370  0.22440  Biso   1.000  C
  C96      1.0000 0.38640  0.71370  0.27560  Biso   1.000  C
  C97      1.0000 0.10410  0.51870  0.78520  Biso   1.000  C
  C98      1.0000 0.89590  0.01870  0.71480  Biso   1.000  C
  C99      1.0000 0.89590  0.48130  0.21480  Biso   1.000  C
  C100     1.0000 0.10410  0.98130  0.28520  Biso   1.000  C
  H81      1.0000 0.10030  0.56070  0.75150  Biso   1.000  H
  H82      1.0000 0.89970  0.06070  0.74850  Biso   1.000  H
  H83      1.0000 0.89970  0.43930  0.24850  Biso   1.000  H
  H84      1.0000 0.10030  0.93930  0.25150  Biso   1.000  H
  H85      1.0000 0.04530  0.50280  0.78850  Biso   1.000  H
  H86      1.0000 0.95470  0.00280  0.71150  Biso   1.000  H
  H87      1.0000 0.95470  0.49720  0.21150  Biso   1.000  H
  H88      1.0000 0.04530  0.99720  0.28850  Biso   1.000  H
  H89      1.0000 0.13420  0.48760  0.74890  Biso   1.000  H
  H90      1.0000 0.86580  0.98760  0.75110  Biso   1.000  H
  H91      1.0000 0.86580  0.51240  0.25110  Biso   1.000  H
  H92      1.0000 0.13420  0.01240  0.24890  Biso   1.000  H
  C101     1.0000 0.13920  0.47500  0.95690  Biso   1.000  C
  C102     1.0000 0.86080  0.97500  0.54310  Biso   1.000  C
  C103     1.0000 0.86080  0.52500  0.04310  Biso   1.000  C
  C104     1.0000 0.13920  0.02500  0.45690  Biso   1.000  C
  H93      1.0000 0.15300  0.49210  0.02410  Biso   1.000  H
  H94      1.0000 0.84700  0.99210  0.47590  Biso   1.000  H
  H95      1.0000 0.84700  0.50790  0.97590  Biso   1.000  H
  H96      1.0000 0.15300  0.00790  0.52410  Biso   1.000  H
  H97      1.0000 0.17710  0.43800  0.94960  Biso   1.000  H
  H98      1.0000 0.82290  0.93800  0.55040  Biso   1.000  H
  H99      1.0000 0.82290  0.56200  0.05040  Biso   1.000  H
  H100     1.0000 0.17710  0.06200  0.44960  Biso   1.000  H
  H101     1.0000 0.07820  0.46100  0.94380  Biso   1.000  H
  H102     1.0000 0.92180  0.96100  0.55620  Biso   1.000  H
  H103     1.0000 0.92180  0.53900  0.05620  Biso   1.000  H
  H104     1.0000 0.07820  0.03900  0.44380  Biso   1.000  H
  C105     1.0000 0.20380  0.57710  0.91060  Biso   1.000  C
  C106     1.0000 0.79620  0.07710  0.58940  Biso   1.000  C
  C107     1.0000 0.79620  0.42290  0.08940  Biso   1.000  C
  C108     1.0000 0.20380  0.92290  0.41060  Biso   1.000  C
  H105     1.0000 0.22790  0.58200  0.97820  Biso   1.000  H
  H106     1.0000 0.77210  0.08200  0.52180  Biso   1.000  H
  H107     1.0000 0.77210  0.41800  0.02180  Biso   1.000  H
  H108     1.0000 0.22790  0.91800  0.47820  Biso   1.000  H
  C109     1.0000 0.68390  0.35740  0.37630  Biso   1.000  C
  C110     1.0000 0.31610  0.85740  0.12370  Biso   1.000  C
  C111     1.0000 0.31610  0.64260  0.62370  Biso   1.000  C
  C112     1.0000 0.68390  0.14260  0.87630  Biso   1.000  C
  H109     1.0000 0.72510  0.32170  0.37420  Biso   1.000  H
  H110     1.0000 0.27490  0.82170  0.12580  Biso   1.000  H
  H111     1.0000 0.27490  0.67830  0.62580  Biso   1.000  H
  H112     1.0000 0.72510  0.17830  0.87420  Biso   1.000  H
  H113     1.0000 0.67170  0.37830  0.31150  Biso   1.000  H
  H114     1.0000 0.32830  0.87830  0.18850  Biso   1.000  H
  H115     1.0000 0.32830  0.62170  0.68850  Biso   1.000  H
  H116     1.0000 0.67170  0.12170  0.81150  Biso   1.000  H
  H117     1.0000 0.62950  0.34040  0.39350  Biso   1.000  H
  H118     1.0000 0.37050  0.84040  0.10650  Biso   1.000  H
  H119     1.0000 0.37050  0.65960  0.60650  Biso   1.000  H
  H120     1.0000 0.62950  0.15960  0.89350  Biso   1.000  H
  C113     1.0000 0.73700  0.40370  0.54300  Biso   1.000  C
  C114     1.0000 0.26300  0.90370  0.95700  Biso   1.000  C
  C115     1.0000 0.26300  0.59630  0.45700  Biso   1.000  C
  C116     1.0000 0.73700  0.09630  0.04300  Biso   1.000  C
  H121     1.0000 0.69260  0.42890  0.56920  Biso   1.000  H
  H122     1.0000 0.30740  0.92890  0.93080  Biso   1.000  H
  H123     1.0000 0.30740  0.57110  0.43080  Biso   1.000  H
  H124     1.0000 0.69260  0.07110  0.06920  Biso   1.000  H
  H125     1.0000 0.79460  0.42240  0.56640  Biso   1.000  H
  H126     1.0000 0.20540  0.92240  0.93360  Biso   1.000  H
  H127     1.0000 0.20540  0.57760  0.43360  Biso   1.000  H
  H128     1.0000 0.79460  0.07760  0.06640  Biso   1.000  H
  H129     1.0000 0.73580  0.35870  0.56560  Biso   1.000  H
  H130     1.0000 0.26420  0.85870  0.93440  Biso   1.000  H
  H131     1.0000 0.26420  0.64130  0.43440  Biso   1.000  H
  H132     1.0000 0.73580  0.14130  0.06560  Biso   1.000  H
  C117     1.0000 0.76870  0.45370  0.39860  Biso   1.000  C
  C118     1.0000 0.23130  0.95370  0.10140  Biso   1.000  C
  C119     1.0000 0.23130  0.54630  0.60140  Biso   1.000  C
  C120     1.0000 0.76870  0.04630  0.89860  Biso   1.000  C
  H133     1.0000 0.75790  0.46010  0.32940  Biso   1.000  H
  H134     1.0000 0.24210  0.96010  0.17060  Biso   1.000  H
  H135     1.0000 0.24210  0.53990  0.67060  Biso   1.000  H
  H136     1.0000 0.75790  0.03990  0.82940  Biso   1.000  H
  N1       1.0000 0.91860  0.81003  0.68930  Biso   1.000  N
  N2       1.0000 0.08140  0.31003  0.81070  Biso   1.000  N
  N3       1.0000 0.08140  0.18997  0.31070  Biso   1.000  N
  N4       1.0000 0.91860  0.68997  0.18930  Biso   1.000  N
  N5       1.0000 0.83339  0.79250  0.65020  Biso   1.000  N
  N6       1.0000 0.16661  0.29250  0.84980  Biso   1.000  N
  N7       1.0000 0.16661  0.20750  0.34980  Biso   1.000  N
  N8       1.0000 0.83339  0.70750  0.15020  Biso   1.000  N
  N9       1.0000 0.96890  0.70234  0.58970  Biso   1.000  N
  N10      1.0000 0.03110  0.20234  0.91030  Biso   1.000  N
  N11      1.0000 0.03110  0.29766  0.41030  Biso   1.000  N
  N12      1.0000 0.96890  0.79766  0.08970  Biso   1.000  N
  N13      1.0000 0.87950  0.69242  0.56520  Biso   1.000  N
  N14      1.0000 0.12050  0.19242  0.93480  Biso   1.000  N
  N15      1.0000 0.12050  0.30758  0.43480  Biso   1.000  N
  N16      1.0000 0.87950  0.80758  0.06520  Biso   1.000  N
  N17      1.0000 0.93429  0.81863  0.48660  Biso   1.000  N
  N18      1.0000 0.06571  0.31863  0.01340  Biso   1.000  N
  N19      1.0000 0.06571  0.18137  0.51340  Biso   1.000  N
  N20      1.0000 0.93429  0.68137  0.98660  Biso   1.000  N
  N21      1.0000 0.84930  0.79707  0.47170  Biso   1.000  N
  N22      1.0000 0.15070  0.29707  0.02830  Biso   1.000  N
  N23      1.0000 0.15070  0.20293  0.52830  Biso   1.000  N
  N24      1.0000 0.84930  0.70293  0.97170  Biso   1.000  N
  N25      1.0000 0.15570  0.75227  0.79090  Biso   1.000  N
  N26      1.0000 0.84430  0.25227  0.70910  Biso   1.000  N
  N27      1.0000 0.84430  0.24773  0.20910  Biso   1.000  N
  N28      1.0000 0.15570  0.74773  0.29090  Biso   1.000  N
  N29      1.0000 0.08610  0.93311  0.65160  Biso   1.000  N
  N30      1.0000 0.91390  0.43311  0.84840  Biso   1.000  N
  N31      1.0000 0.91390  0.06689  0.34840  Biso   1.000  N
  N32      1.0000 0.08610  0.56689  0.15160  Biso   1.000  N
  N33      1.0000 0.16620  0.72653  0.99270  Biso   1.000  N
  N34      1.0000 0.83380  0.22653  0.50730  Biso   1.000  N
  N35      1.0000 0.83380  0.27347  0.00730  Biso   1.000  N
  N36      1.0000 0.16620  0.77347  0.49270  Biso   1.000  N
  N37      1.0000 0.38990  0.58177  0.21710  Biso   1.000  N
  N38      1.0000 0.61010  0.08177  0.28290  Biso   1.000  N
  N39      1.0000 0.61010  0.41823  0.78290  Biso   1.000  N
  N40      1.0000 0.38990  0.91823  0.71710  Biso   1.000  N
  N41      1.0000 0.43140  0.52278  0.24360  Biso   1.000  N
  N42      1.0000 0.56860  0.02278  0.25640  Biso   1.000  N
  N43      1.0000 0.56860  0.47722  0.75640  Biso   1.000  N
  N44      1.0000 0.43140  0.97722  0.74360  Biso   1.000  N
  N45      1.0000 0.53510  0.63537  0.33590  Biso   1.000  N
  N46      1.0000 0.46490  0.13537  0.16410  Biso   1.000  N
  N47      1.0000 0.46490  0.36463  0.66410  Biso   1.000  N
  N48      1.0000 0.53510  0.86463  0.83590  Biso   1.000  N
  N49      1.0000 0.56100  0.57184  0.35060  Biso   1.000  N
  N50      1.0000 0.43900  0.07184  0.14940  Biso   1.000  N
  N51      1.0000 0.43900  0.42816  0.64940  Biso   1.000  N
  N52      1.0000 0.56100  0.92816  0.85060  Biso   1.000  N
  N53      1.0000 0.54120  0.60770  0.13680  Biso   1.000  N
  N54      1.0000 0.45880  0.10770  0.36320  Biso   1.000  N
  N55      1.0000 0.45880  0.39230  0.86320  Biso   1.000  N
  N56      1.0000 0.54120  0.89230  0.63680  Biso   1.000  N
  N57      1.0000 0.56620  0.54670  0.17310  Biso   1.000  N
  N58      1.0000 0.43380  0.04670  0.32690  Biso   1.000  N
  N59      1.0000 0.43380  0.45330  0.82690  Biso   1.000  N
  N60      1.0000 0.56620  0.95330  0.67310  Biso   1.000  N
  N61      1.0000 0.34570  0.69921  0.00860  Biso   1.000  N
  N62      1.0000 0.65430  0.19921  0.49140  Biso   1.000  N
  N63      1.0000 0.65430  0.30079  0.99140  Biso   1.000  N
  N64      1.0000 0.34570  0.80079  0.50860  Biso   1.000  N
  N65      1.0000 0.57920  0.78580  0.20630  Biso   1.000  N
  N66      1.0000 0.42080  0.28580  0.29370  Biso   1.000  N
  N67      1.0000 0.42080  0.21420  0.79370  Biso   1.000  N
  N68      1.0000 0.57920  0.71420  0.70630  Biso   1.000  N
  N69      1.0000 0.33990  0.75776  0.81720  Biso   1.000  N
  N70      1.0000 0.66010  0.25776  0.68280  Biso   1.000  N
  N71      1.0000 0.66010  0.24224  0.18280  Biso   1.000  N
  N72      1.0000 0.33990  0.74224  0.31720  Biso   1.000  N
  N73      1.0000 0.15310  0.52632  0.88610  Biso   1.000  N
  N74      1.0000 0.84690  0.02632  0.61390  Biso   1.000  N
  N75      1.0000 0.84690  0.47368  0.11390  Biso   1.000  N
  N76      1.0000 0.15310  0.97368  0.38610  Biso   1.000  N
  N77      1.0000 0.72180  0.40520  0.45070  Biso   1.000  N
  N78      1.0000 0.27820  0.90520  0.04930  Biso   1.000  N
  N79      1.0000 0.27820  0.59480  0.54930  Biso   1.000  N
  N80      1.0000 0.72180  0.09480  0.95070  Biso   1.000  N
  O1       1.0000 0.22320  0.61984  0.85210  Biso   1.000  O
  O2       1.0000 0.77680  0.11984  0.64790  Biso   1.000  O
  O3       1.0000 0.77680  0.38016  0.14790  Biso   1.000  O
  O4       1.0000 0.22320  0.88016  0.35210  Biso   1.000  O
  O5       1.0000 0.81940  0.48234  0.45170  Biso   1.000  O
  O6       1.0000 0.18060  0.98234  0.04830  Biso   1.000  O
  O7       1.0000 0.18060  0.51766  0.54830  Biso   1.000  O
  O8       1.0000 0.81940  0.01766  0.95170  Biso   1.000  O
