data_image0
_cell_length_a       18.491
_cell_length_b       16.066
_cell_length_c       13.519
_cell_angle_alpha    90
_cell_angle_beta     132.418
_cell_angle_gamma    90

_symmetry_space_group_name_H-M    "P 1"
_symmetry_int_tables_number       1

loop_
  _symmetry_equiv_pos_as_xyz
  'x, y, z'

loop_
  _atom_site_label
  _atom_site_occupancy
  _atom_site_fract_x
  _atom_site_fract_y
  _atom_site_fract_z
  _atom_site_thermal_displace_type
  _atom_site_B_iso_or_equiv
  _atom_site_type_symbol
  Cu1      1.0000 0.00000  0.45093  0.25000  Biso   1.000  Cu
  Cu2      1.0000 0.50000  0.95093  0.25000  Biso   1.000  Cu
  Cu3      1.0000 0.00000  0.54907  0.75000  Biso   1.000  Cu
  Cu4      1.0000 0.50000  0.04907  0.75000  Biso   1.000  Cu
  Cu5      1.0000 0.00000  0.50000  0.50000  Biso   1.000  Cu
  Cu6      1.0000 0.50000  0.00000  0.50000  Biso   1.000  Cu
  Cu7      1.0000 0.00000  0.50000  0.00000  Biso   1.000  Cu
  Cu8      1.0000 0.50000  0.00000  0.00000  Biso   1.000  Cu
  S1       1.0000 0.17560  0.67734  0.38490  Biso   1.000  S
  S2       1.0000 0.67560  0.17734  0.38490  Biso   1.000  S
  S3       1.0000 0.82440  0.67734  0.11510  Biso   1.000  S
  S4       1.0000 0.32440  0.17734  0.11510  Biso   1.000  S
  S5       1.0000 0.82440  0.32266  0.61510  Biso   1.000  S
  S6       1.0000 0.32440  0.82266  0.61510  Biso   1.000  S
  S7       1.0000 0.17560  0.32266  0.88490  Biso   1.000  S
  S8       1.0000 0.67560  0.82266  0.88490  Biso   1.000  S
  N1       1.0000 0.12580  0.45530  0.44260  Biso   1.000  N
  N2       1.0000 0.62580  0.95530  0.44260  Biso   1.000  N
  N3       1.0000 0.87420  0.45530  0.05740  Biso   1.000  N
  N4       1.0000 0.37420  0.95530  0.05740  Biso   1.000  N
  N5       1.0000 0.87420  0.54470  0.55740  Biso   1.000  N
  N6       1.0000 0.37420  0.04470  0.55740  Biso   1.000  N
  N7       1.0000 0.12580  0.54470  0.94260  Biso   1.000  N
  N8       1.0000 0.62580  0.04470  0.94260  Biso   1.000  N
  N9       1.0000 0.12690  0.47610  0.54220  Biso   1.000  N
  N10      1.0000 0.62690  0.97610  0.54220  Biso   1.000  N
  N11      1.0000 0.87310  0.47610  0.95780  Biso   1.000  N
  N12      1.0000 0.37310  0.97610  0.95780  Biso   1.000  N
  N13      1.0000 0.87310  0.52390  0.45780  Biso   1.000  N
  N14      1.0000 0.37310  0.02390  0.45780  Biso   1.000  N
  N15      1.0000 0.12690  0.52390  0.04220  Biso   1.000  N
  N16      1.0000 0.62690  0.02390  0.04220  Biso   1.000  N
  N17      1.0000 0.27620  0.46870  0.62810  Biso   1.000  N
  N18      1.0000 0.77620  0.96870  0.62810  Biso   1.000  N
  N19      1.0000 0.72380  0.46870  0.87190  Biso   1.000  N
  N20      1.0000 0.22380  0.96870  0.87190  Biso   1.000  N
  N21      1.0000 0.72380  0.53130  0.37190  Biso   1.000  N
  N22      1.0000 0.22380  0.03130  0.37190  Biso   1.000  N
  N23      1.0000 0.27620  0.53130  0.12810  Biso   1.000  N
  N24      1.0000 0.77620  0.03130  0.12810  Biso   1.000  N
  N25      1.0000 0.37970  0.47330  0.72170  Biso   1.000  N
  N26      1.0000 0.87970  0.97330  0.72170  Biso   1.000  N
  N27      1.0000 0.62030  0.47330  0.77830  Biso   1.000  N
  N28      1.0000 0.12030  0.97330  0.77830  Biso   1.000  N
  N29      1.0000 0.62030  0.52670  0.27830  Biso   1.000  N
  N30      1.0000 0.12030  0.02670  0.27830  Biso   1.000  N
  N31      1.0000 0.37970  0.52670  0.22170  Biso   1.000  N
  N32      1.0000 0.87970  0.02670  0.22170  Biso   1.000  N
  H1       1.0000 0.40490  0.43160  0.77300  Biso   1.000  H
  H2       1.0000 0.90490  0.93160  0.77300  Biso   1.000  H
  H3       1.0000 0.59510  0.43160  0.72700  Biso   1.000  H
  H4       1.0000 0.09510  0.93160  0.72700  Biso   1.000  H
  H5       1.0000 0.59510  0.56840  0.22700  Biso   1.000  H
  H6       1.0000 0.09510  0.06840  0.22700  Biso   1.000  H
  H7       1.0000 0.40490  0.56840  0.27300  Biso   1.000  H
  H8       1.0000 0.90490  0.06840  0.27300  Biso   1.000  H
  H9       1.0000 0.38670  0.47500  0.66550  Biso   1.000  H
  H10      1.0000 0.88670  0.97500  0.66550  Biso   1.000  H
  H11      1.0000 0.61330  0.47500  0.83450  Biso   1.000  H
  H12      1.0000 0.11330  0.97500  0.83450  Biso   1.000  H
  H13      1.0000 0.61330  0.52500  0.33450  Biso   1.000  H
  H14      1.0000 0.11330  0.02500  0.33450  Biso   1.000  H
  H15      1.0000 0.38670  0.52500  0.16550  Biso   1.000  H
  H16      1.0000 0.88670  0.02500  0.16550  Biso   1.000  H
  N33      1.0000 0.94300  0.36530  0.30520  Biso   1.000  N
  N34      1.0000 0.44300  0.86530  0.30520  Biso   1.000  N
  N35      1.0000 0.05700  0.36530  0.19480  Biso   1.000  N
  N36      1.0000 0.55700  0.86530  0.19480  Biso   1.000  N
  N37      1.0000 0.05700  0.63470  0.69480  Biso   1.000  N
  N38      1.0000 0.55700  0.13470  0.69480  Biso   1.000  N
  N39      1.0000 0.94300  0.63470  0.80520  Biso   1.000  N
  N40      1.0000 0.44300  0.13470  0.80520  Biso   1.000  N
  N41      1.0000 0.94670  0.38890  0.40720  Biso   1.000  N
  N42      1.0000 0.44670  0.88890  0.40720  Biso   1.000  N
  N43      1.0000 0.05330  0.38890  0.09280  Biso   1.000  N
  N44      1.0000 0.55330  0.88890  0.09280  Biso   1.000  N
  N45      1.0000 0.05330  0.61110  0.59280  Biso   1.000  N
  N46      1.0000 0.55330  0.11110  0.59280  Biso   1.000  N
  N47      1.0000 0.94670  0.61110  0.90720  Biso   1.000  N
  N48      1.0000 0.44670  0.11110  0.90720  Biso   1.000  N
  N49      1.0000 0.88460  0.26520  0.34210  Biso   1.000  N
  N50      1.0000 0.38460  0.76520  0.34210  Biso   1.000  N
  N51      1.0000 0.11540  0.26520  0.15790  Biso   1.000  N
  N52      1.0000 0.61540  0.76520  0.15790  Biso   1.000  N
  N53      1.0000 0.11540  0.73480  0.65790  Biso   1.000  N
  N54      1.0000 0.61540  0.23480  0.65790  Biso   1.000  N
  N55      1.0000 0.88460  0.73480  0.84210  Biso   1.000  N
  N56      1.0000 0.38460  0.23480  0.84210  Biso   1.000  N
  N57      1.0000 0.84170  0.18820  0.32680  Biso   1.000  N
  N58      1.0000 0.34170  0.68820  0.32680  Biso   1.000  N
  N59      1.0000 0.15830  0.18820  0.17320  Biso   1.000  N
  N60      1.0000 0.65830  0.68820  0.17320  Biso   1.000  N
  N61      1.0000 0.15830  0.81180  0.67320  Biso   1.000  N
  N62      1.0000 0.65830  0.31180  0.67320  Biso   1.000  N
  N63      1.0000 0.84170  0.81180  0.82680  Biso   1.000  N
  N64      1.0000 0.34170  0.31180  0.82680  Biso   1.000  N
  H17      1.0000 0.77250  0.20020  0.28650  Biso   1.000  H
  H18      1.0000 0.27250  0.70020  0.28650  Biso   1.000  H
  H19      1.0000 0.22750  0.20020  0.21350  Biso   1.000  H
  H20      1.0000 0.72750  0.70020  0.21350  Biso   1.000  H
  H21      1.0000 0.22750  0.79980  0.71350  Biso   1.000  H
  H22      1.0000 0.72750  0.29980  0.71350  Biso   1.000  H
  H23      1.0000 0.77250  0.79980  0.78650  Biso   1.000  H
  H24      1.0000 0.27250  0.29980  0.78650  Biso   1.000  H
  H25      1.0000 0.87080  0.17370  0.39480  Biso   1.000  H
  H26      1.0000 0.37080  0.67370  0.39480  Biso   1.000  H
  H27      1.0000 0.12920  0.17370  0.10520  Biso   1.000  H
  H28      1.0000 0.62920  0.67370  0.10520  Biso   1.000  H
  H29      1.0000 0.12920  0.82630  0.60520  Biso   1.000  H
  H30      1.0000 0.62920  0.32630  0.60520  Biso   1.000  H
  H31      1.0000 0.87080  0.82630  0.89480  Biso   1.000  H
  H32      1.0000 0.37080  0.32630  0.89480  Biso   1.000  H
  N65      1.0000 0.05880  0.55310  0.20200  Biso   1.000  N
  N66      1.0000 0.55880  0.05310  0.20200  Biso   1.000  N
  N67      1.0000 0.94120  0.55310  0.29800  Biso   1.000  N
  N68      1.0000 0.44120  0.05310  0.29800  Biso   1.000  N
  N69      1.0000 0.94120  0.44690  0.79800  Biso   1.000  N
  N70      1.0000 0.44120  0.94690  0.79800  Biso   1.000  N
  N71      1.0000 0.05880  0.44690  0.70200  Biso   1.000  N
  N72      1.0000 0.55880  0.94690  0.70200  Biso   1.000  N
  C1       1.0000 0.21670  0.45140  0.49700  Biso   1.000  C
  C2       1.0000 0.71670  0.95140  0.49700  Biso   1.000  C
  C3       1.0000 0.78330  0.45140  0.00300  Biso   1.000  C
  C4       1.0000 0.28330  0.95140  0.00300  Biso   1.000  C
  C5       1.0000 0.78330  0.54860  0.50300  Biso   1.000  C
  C6       1.0000 0.28330  0.04860  0.50300  Biso   1.000  C
  C7       1.0000 0.21670  0.54860  0.99700  Biso   1.000  C
  C8       1.0000 0.71670  0.04860  0.99700  Biso   1.000  C
  H33      1.0000 0.23700  0.43870  0.45190  Biso   1.000  H
  H34      1.0000 0.73700  0.93870  0.45190  Biso   1.000  H
  H35      1.0000 0.76300  0.43870  0.04810  Biso   1.000  H
  H36      1.0000 0.26300  0.93870  0.04810  Biso   1.000  H
  H37      1.0000 0.76300  0.56130  0.54810  Biso   1.000  H
  H38      1.0000 0.26300  0.06130  0.54810  Biso   1.000  H
  H39      1.0000 0.23700  0.56130  0.95190  Biso   1.000  H
  H40      1.0000 0.73700  0.06130  0.95190  Biso   1.000  H
  C9       1.0000 0.21820  0.48330  0.65250  Biso   1.000  C
  C10      1.0000 0.71820  0.98330  0.65250  Biso   1.000  C
  C11      1.0000 0.78180  0.48330  0.84750  Biso   1.000  C
  C12      1.0000 0.28180  0.98330  0.84750  Biso   1.000  C
  C13      1.0000 0.78180  0.51670  0.34750  Biso   1.000  C
  C14      1.0000 0.28180  0.01670  0.34750  Biso   1.000  C
  C15      1.0000 0.21820  0.51670  0.15250  Biso   1.000  C
  C16      1.0000 0.71820  0.01670  0.15250  Biso   1.000  C
  H41      1.0000 0.24000  0.49670  0.73580  Biso   1.000  H
  H42      1.0000 0.74000  0.99670  0.73580  Biso   1.000  H
  H43      1.0000 0.76000  0.49670  0.76420  Biso   1.000  H
  H44      1.0000 0.26000  0.99670  0.76420  Biso   1.000  H
  H45      1.0000 0.76000  0.50330  0.26420  Biso   1.000  H
  H46      1.0000 0.26000  0.00330  0.26420  Biso   1.000  H
  H47      1.0000 0.24000  0.50330  0.23580  Biso   1.000  H
  H48      1.0000 0.74000  0.00330  0.23580  Biso   1.000  H
  C17      1.0000 0.90540  0.29020  0.26910  Biso   1.000  C
  C18      1.0000 0.40540  0.79020  0.26910  Biso   1.000  C
  C19      1.0000 0.09460  0.29020  0.23090  Biso   1.000  C
  C20      1.0000 0.59460  0.79020  0.23090  Biso   1.000  C
  C21      1.0000 0.09460  0.70980  0.73090  Biso   1.000  C
  C22      1.0000 0.59460  0.20980  0.73090  Biso   1.000  C
  C23      1.0000 0.90540  0.70980  0.76910  Biso   1.000  C
  C24      1.0000 0.40540  0.20980  0.76910  Biso   1.000  C
  H49      1.0000 0.89470  0.25880  0.20250  Biso   1.000  H
  H50      1.0000 0.39470  0.75880  0.20250  Biso   1.000  H
  H51      1.0000 0.10530  0.25880  0.29750  Biso   1.000  H
  H52      1.0000 0.60530  0.75880  0.29750  Biso   1.000  H
  H53      1.0000 0.10530  0.74120  0.79750  Biso   1.000  H
  H54      1.0000 0.60530  0.24120  0.79750  Biso   1.000  H
  H55      1.0000 0.89470  0.74120  0.70250  Biso   1.000  H
  H56      1.0000 0.39470  0.24120  0.70250  Biso   1.000  H
  C25      1.0000 0.91120  0.32760  0.42710  Biso   1.000  C
  C26      1.0000 0.41120  0.82760  0.42710  Biso   1.000  C
  C27      1.0000 0.08880  0.32760  0.07290  Biso   1.000  C
  C28      1.0000 0.58880  0.82760  0.07290  Biso   1.000  C
  C29      1.0000 0.08880  0.67240  0.57290  Biso   1.000  C
  C30      1.0000 0.58880  0.17240  0.57290  Biso   1.000  C
  C31      1.0000 0.91120  0.67240  0.92710  Biso   1.000  C
  C32      1.0000 0.41120  0.17240  0.92710  Biso   1.000  C
  H57      1.0000 0.90530  0.32730  0.49020  Biso   1.000  H
  H58      1.0000 0.40530  0.82730  0.49020  Biso   1.000  H
  H59      1.0000 0.09470  0.32730  0.00980  Biso   1.000  H
  H60      1.0000 0.59470  0.82730  0.00980  Biso   1.000  H
  H61      1.0000 0.09470  0.67270  0.50980  Biso   1.000  H
  H62      1.0000 0.59470  0.17270  0.50980  Biso   1.000  H
  H63      1.0000 0.90530  0.67270  0.99020  Biso   1.000  H
  H64      1.0000 0.40530  0.17270  0.99020  Biso   1.000  H
  C33      1.0000 0.10610  0.60540  0.27510  Biso   1.000  C
  C34      1.0000 0.60610  0.10540  0.27510  Biso   1.000  C
  C35      1.0000 0.89390  0.60540  0.22490  Biso   1.000  C
  C36      1.0000 0.39390  0.10540  0.22490  Biso   1.000  C
  C37      1.0000 0.89390  0.39460  0.72490  Biso   1.000  C
  C38      1.0000 0.39390  0.89460  0.72490  Biso   1.000  C
  C39      1.0000 0.10610  0.39460  0.77510  Biso   1.000  C
  C40      1.0000 0.60610  0.89460  0.77510  Biso   1.000  C
  Cl1      1.0000 0.12524  0.82830  0.04581  Biso   1.000  Cl
  Cl2      1.0000 0.62524  0.32830  0.04581  Biso   1.000  Cl
  Cl3      1.0000 0.87476  0.82830  0.45419  Biso   1.000  Cl
  Cl4      1.0000 0.37476  0.32830  0.45419  Biso   1.000  Cl
  Cl5      1.0000 0.87476  0.17170  0.95419  Biso   1.000  Cl
  Cl6      1.0000 0.37476  0.67170  0.95419  Biso   1.000  Cl
  Cl7      1.0000 0.12524  0.17170  0.54581  Biso   1.000  Cl
  Cl8      1.0000 0.62524  0.67170  0.54581  Biso   1.000  Cl
  O1       1.0000 0.13600  0.73990  0.06990  Biso   1.000  O
  O2       1.0000 0.63600  0.23990  0.06990  Biso   1.000  O
  O3       1.0000 0.86400  0.73990  0.43010  Biso   1.000  O
  O4       1.0000 0.36400  0.23990  0.43010  Biso   1.000  O
  O5       1.0000 0.86400  0.26010  0.93010  Biso   1.000  O
  O6       1.0000 0.36400  0.76010  0.93010  Biso   1.000  O
  O7       1.0000 0.13600  0.26010  0.56990  Biso   1.000  O
  O8       1.0000 0.63600  0.76010  0.56990  Biso   1.000  O
  O9       1.0000 0.07620  0.84350  0.91190  Biso   1.000  O
  O10      1.0000 0.57620  0.34350  0.91190  Biso   1.000  O
  O11      1.0000 0.92380  0.84350  0.58810  Biso   1.000  O
  O12      1.0000 0.42380  0.34350  0.58810  Biso   1.000  O
  O13      1.0000 0.92380  0.15650  0.08810  Biso   1.000  O
  O14      1.0000 0.42380  0.65650  0.08810  Biso   1.000  O
  O15      1.0000 0.07620  0.15650  0.41190  Biso   1.000  O
  O16      1.0000 0.57620  0.65650  0.41190  Biso   1.000  O
  O17      1.0000 0.05370  0.85310  0.05820  Biso   1.000  O
  O18      1.0000 0.55370  0.35310  0.05820  Biso   1.000  O
  O19      1.0000 0.94630  0.85310  0.44180  Biso   1.000  O
  O20      1.0000 0.44630  0.35310  0.44180  Biso   1.000  O
  O21      1.0000 0.94630  0.14690  0.94180  Biso   1.000  O
  O22      1.0000 0.44630  0.64690  0.94180  Biso   1.000  O
  O23      1.0000 0.05370  0.14690  0.55820  Biso   1.000  O
  O24      1.0000 0.55370  0.64690  0.55820  Biso   1.000  O
  O25      1.0000 0.20760  0.87620  0.14360  Biso   1.000  O
  O26      1.0000 0.70760  0.37620  0.14360  Biso   1.000  O
  O27      1.0000 0.79240  0.87620  0.35640  Biso   1.000  O
  O28      1.0000 0.29240  0.37620  0.35640  Biso   1.000  O
  O29      1.0000 0.79240  0.12380  0.85640  Biso   1.000  O
  O30      1.0000 0.29240  0.62380  0.85640  Biso   1.000  O
  O31      1.0000 0.20760  0.12380  0.64360  Biso   1.000  O
  O32      1.0000 0.70760  0.62380  0.64360  Biso   1.000  O
  O33      1.0000 0.90060  0.04950  0.51700  Biso   1.000  O
  O34      1.0000 0.40060  0.54950  0.51700  Biso   1.000  O
  O35      1.0000 0.09940  0.04950  0.98300  Biso   1.000  O
  O36      1.0000 0.59940  0.54950  0.98300  Biso   1.000  O
  O37      1.0000 0.09940  0.95050  0.48300  Biso   1.000  O
  O38      1.0000 0.59940  0.45050  0.48300  Biso   1.000  O
  O39      1.0000 0.90060  0.95050  0.01700  Biso   1.000  O
  O40      1.0000 0.40060  0.45050  0.01700  Biso   1.000  O
  O41      1.0000 0.17340  0.78240  0.00480  Biso   1.000  O
  O42      1.0000 0.67340  0.28240  0.00480  Biso   1.000  O
  O43      1.0000 0.82660  0.78240  0.49520  Biso   1.000  O
  O44      1.0000 0.32660  0.28240  0.49520  Biso   1.000  O
  O45      1.0000 0.82660  0.21760  0.99520  Biso   1.000  O
  O46      1.0000 0.32660  0.71760  0.99520  Biso   1.000  O
  O47      1.0000 0.17340  0.21760  0.50480  Biso   1.000  O
  O48      1.0000 0.67340  0.71760  0.50480  Biso   1.000  O
  O49      1.0000 0.04610  0.86800  0.93100  Biso   1.000  O
  O50      1.0000 0.54610  0.36800  0.93100  Biso   1.000  O
  O51      1.0000 0.95390  0.86800  0.56900  Biso   1.000  O
  O52      1.0000 0.45390  0.36800  0.56900  Biso   1.000  O
  O53      1.0000 0.95390  0.13200  0.06900  Biso   1.000  O
  O54      1.0000 0.45390  0.63200  0.06900  Biso   1.000  O
  O55      1.0000 0.04610  0.13200  0.43100  Biso   1.000  O
  O56      1.0000 0.54610  0.63200  0.43100  Biso   1.000  O
  O57      1.0000 0.10910  0.76250  0.09790  Biso   1.000  O
  O58      1.0000 0.60910  0.26250  0.09790  Biso   1.000  O
  O59      1.0000 0.89090  0.76250  0.40210  Biso   1.000  O
  O60      1.0000 0.39090  0.26250  0.40210  Biso   1.000  O
  O61      1.0000 0.89090  0.23750  0.90210  Biso   1.000  O
  O62      1.0000 0.39090  0.73750  0.90210  Biso   1.000  O
  O63      1.0000 0.10910  0.23750  0.59790  Biso   1.000  O
  O64      1.0000 0.60910  0.73750  0.59790  Biso   1.000  O
