data_image0
_cell_length_a       10.8317
_cell_length_b       10.8317
_cell_length_c       9.6109
_cell_angle_alpha    90
_cell_angle_beta     90
_cell_angle_gamma    90

_symmetry_space_group_name_H-M    "P 1"
_symmetry_int_tables_number       1

loop_
  _symmetry_equiv_pos_as_xyz
  'x, y, z'

loop_
  _atom_site_label
  _atom_site_occupancy
  _atom_site_fract_x
  _atom_site_fract_y
  _atom_site_fract_z
  _atom_site_thermal_displace_type
  _atom_site_B_iso_or_equiv
  _atom_site_type_symbol
  Cu1      1.0000 0.00000  0.00000  0.13070  Biso   1.000  Cu
  Cu2      1.0000 0.00000  0.00000  0.86930  Biso   1.000  Cu
  C1       1.0000 0.00000  0.23300  0.00000  Biso   1.000  C
  C2       1.0000 0.00000  0.76700  0.00000  Biso   1.000  C
  C3       1.0000 0.76700  0.00000  0.00000  Biso   1.000  C
  C4       1.0000 0.23300  0.00000  0.00000  Biso   1.000  C
  C5       1.0000 0.00000  0.37800  0.00000  Biso   1.000  C
  C6       1.0000 0.00000  0.62200  0.00000  Biso   1.000  C
  C7       1.0000 0.62200  0.00000  0.00000  Biso   1.000  C
  C8       1.0000 0.37800  0.00000  0.00000  Biso   1.000  C
  C9       1.0000 0.06600  0.43700  0.10100  Biso   1.000  C
  C10      1.0000 0.93400  0.56300  0.10100  Biso   1.000  C
  C11      1.0000 0.56300  0.06600  0.10100  Biso   1.000  C
  C12      1.0000 0.43700  0.93400  0.10100  Biso   1.000  C
  C13      1.0000 0.93400  0.43700  0.89900  Biso   1.000  C
  C14      1.0000 0.06600  0.56300  0.89900  Biso   1.000  C
  C15      1.0000 0.43700  0.06600  0.89900  Biso   1.000  C
  C16      1.0000 0.56300  0.93400  0.89900  Biso   1.000  C
  C17      1.0000 0.93400  0.56300  0.89900  Biso   1.000  C
  C18      1.0000 0.06600  0.43700  0.89900  Biso   1.000  C
  C19      1.0000 0.43700  0.93400  0.89900  Biso   1.000  C
  C20      1.0000 0.56300  0.06600  0.89900  Biso   1.000  C
  C21      1.0000 0.06600  0.56300  0.10100  Biso   1.000  C
  C22      1.0000 0.93400  0.43700  0.10100  Biso   1.000  C
  C23      1.0000 0.56300  0.93400  0.10100  Biso   1.000  C
  C24      1.0000 0.43700  0.06600  0.10100  Biso   1.000  C
  N1       1.0000 0.00000  0.00000  0.33500  Biso   1.000  N
  N2       1.0000 0.00000  0.00000  0.66500  Biso   1.000  N
  O1       1.0000 0.00000  0.17640  0.12200  Biso   1.000  O
  O2       1.0000 0.00000  0.82360  0.12200  Biso   1.000  O
  O3       1.0000 0.82360  0.00000  0.12200  Biso   1.000  O
  O4       1.0000 0.17640  0.00000  0.12200  Biso   1.000  O
  O5       1.0000 0.00000  0.17640  0.87800  Biso   1.000  O
  O6       1.0000 0.00000  0.82360  0.87800  Biso   1.000  O
  O7       1.0000 0.17640  0.00000  0.87800  Biso   1.000  O
  O8       1.0000 0.82360  0.00000  0.87800  Biso   1.000  O
  O9       1.0000 0.13600  0.38400  0.19000  Biso   1.000  O
  O10      1.0000 0.86400  0.61600  0.19000  Biso   1.000  O
  O11      1.0000 0.61600  0.13600  0.19000  Biso   1.000  O
  O12      1.0000 0.38400  0.86400  0.19000  Biso   1.000  O
  O13      1.0000 0.86400  0.38400  0.81000  Biso   1.000  O
  O14      1.0000 0.13600  0.61600  0.81000  Biso   1.000  O
  O15      1.0000 0.38400  0.13600  0.81000  Biso   1.000  O
  O16      1.0000 0.61600  0.86400  0.81000  Biso   1.000  O
  O17      1.0000 0.86400  0.61600  0.81000  Biso   1.000  O
  O18      1.0000 0.13600  0.38400  0.81000  Biso   1.000  O
  O19      1.0000 0.38400  0.86400  0.81000  Biso   1.000  O
  O20      1.0000 0.61600  0.13600  0.81000  Biso   1.000  O
  O21      1.0000 0.13600  0.61600  0.19000  Biso   1.000  O
  O22      1.0000 0.86400  0.38400  0.19000  Biso   1.000  O
  O23      1.0000 0.61600  0.86400  0.19000  Biso   1.000  O
  O24      1.0000 0.38400  0.13600  0.19000  Biso   1.000  O
  C25      1.0000 0.08100  0.39400  0.33000  Biso   1.000  C
  C26      1.0000 0.91900  0.60600  0.33000  Biso   1.000  C
  C27      1.0000 0.60600  0.08100  0.33000  Biso   1.000  C
  C28      1.0000 0.39400  0.91900  0.33000  Biso   1.000  C
  C29      1.0000 0.91900  0.39400  0.67000  Biso   1.000  C
  C30      1.0000 0.08100  0.60600  0.67000  Biso   1.000  C
  C31      1.0000 0.39400  0.08100  0.67000  Biso   1.000  C
  C32      1.0000 0.60600  0.91900  0.67000  Biso   1.000  C
  C33      1.0000 0.91900  0.60600  0.67000  Biso   1.000  C
  C34      1.0000 0.08100  0.39400  0.67000  Biso   1.000  C
  C35      1.0000 0.39400  0.91900  0.67000  Biso   1.000  C
  C36      1.0000 0.60600  0.08100  0.67000  Biso   1.000  C
  C37      1.0000 0.08100  0.60600  0.33000  Biso   1.000  C
  C38      1.0000 0.91900  0.39400  0.33000  Biso   1.000  C
  C39      1.0000 0.60600  0.91900  0.33000  Biso   1.000  C
  C40      1.0000 0.39400  0.08100  0.33000  Biso   1.000  C
  C41      1.0000 0.25500  0.38000  0.12200  Biso   1.000  C
  C42      1.0000 0.74500  0.62000  0.12200  Biso   1.000  C
  C43      1.0000 0.62000  0.25500  0.12200  Biso   1.000  C
  C44      1.0000 0.38000  0.74500  0.12200  Biso   1.000  C
  C45      1.0000 0.74500  0.38000  0.87800  Biso   1.000  C
  C46      1.0000 0.25500  0.62000  0.87800  Biso   1.000  C
  C47      1.0000 0.38000  0.25500  0.87800  Biso   1.000  C
  C48      1.0000 0.62000  0.74500  0.87800  Biso   1.000  C
  C49      1.0000 0.74500  0.62000  0.87800  Biso   1.000  C
  C50      1.0000 0.25500  0.38000  0.87800  Biso   1.000  C
  C51      1.0000 0.38000  0.74500  0.87800  Biso   1.000  C
  C52      1.0000 0.62000  0.25500  0.87800  Biso   1.000  C
  C53      1.0000 0.25500  0.62000  0.12200  Biso   1.000  C
  C54      1.0000 0.74500  0.38000  0.12200  Biso   1.000  C
  C55      1.0000 0.62000  0.74500  0.12200  Biso   1.000  C
  C56      1.0000 0.38000  0.25500  0.12200  Biso   1.000  C
  H1       1.0000 0.09110  0.47980  0.35500  Biso   1.000  H
  H2       1.0000 0.90890  0.52020  0.35500  Biso   1.000  H
  H3       1.0000 0.52020  0.09110  0.35500  Biso   1.000  H
  H4       1.0000 0.47980  0.90890  0.35500  Biso   1.000  H
  H5       1.0000 0.90890  0.47980  0.64500  Biso   1.000  H
  H6       1.0000 0.09110  0.52020  0.64500  Biso   1.000  H
  H7       1.0000 0.47980  0.09110  0.64500  Biso   1.000  H
  H8       1.0000 0.52020  0.90890  0.64500  Biso   1.000  H
  H9       1.0000 0.90890  0.52020  0.64500  Biso   1.000  H
  H10      1.0000 0.09110  0.47980  0.64500  Biso   1.000  H
  H11      1.0000 0.47980  0.90890  0.64500  Biso   1.000  H
  H12      1.0000 0.52020  0.09110  0.64500  Biso   1.000  H
  H13      1.0000 0.09110  0.52020  0.35500  Biso   1.000  H
  H14      1.0000 0.90890  0.47980  0.35500  Biso   1.000  H
  H15      1.0000 0.52020  0.90890  0.35500  Biso   1.000  H
  H16      1.0000 0.47980  0.09110  0.35500  Biso   1.000  H
  H17      1.0000 0.01540  0.35910  0.33900  Biso   1.000  H
  H18      1.0000 0.98460  0.64090  0.33900  Biso   1.000  H
  H19      1.0000 0.64090  0.01540  0.33900  Biso   1.000  H
  H20      1.0000 0.35910  0.98460  0.33900  Biso   1.000  H
  H21      1.0000 0.98460  0.35910  0.66100  Biso   1.000  H
  H22      1.0000 0.01540  0.64090  0.66100  Biso   1.000  H
  H23      1.0000 0.35910  0.01540  0.66100  Biso   1.000  H
  H24      1.0000 0.64090  0.98460  0.66100  Biso   1.000  H
  H25      1.0000 0.98460  0.64090  0.66100  Biso   1.000  H
  H26      1.0000 0.01540  0.35910  0.66100  Biso   1.000  H
  H27      1.0000 0.35910  0.98460  0.66100  Biso   1.000  H
  H28      1.0000 0.64090  0.01540  0.66100  Biso   1.000  H
  H29      1.0000 0.01540  0.64090  0.33900  Biso   1.000  H
  H30      1.0000 0.98460  0.35910  0.33900  Biso   1.000  H
  H31      1.0000 0.64090  0.98460  0.33900  Biso   1.000  H
  H32      1.0000 0.35910  0.01540  0.33900  Biso   1.000  H
  H33      1.0000 0.15110  0.35350  0.39000  Biso   1.000  H
  H34      1.0000 0.84890  0.64650  0.39000  Biso   1.000  H
  H35      1.0000 0.64650  0.15110  0.39000  Biso   1.000  H
  H36      1.0000 0.35350  0.84890  0.39000  Biso   1.000  H
  H37      1.0000 0.84890  0.35350  0.61000  Biso   1.000  H
  H38      1.0000 0.15110  0.64650  0.61000  Biso   1.000  H
  H39      1.0000 0.35350  0.15110  0.61000  Biso   1.000  H
  H40      1.0000 0.64650  0.84890  0.61000  Biso   1.000  H
  H41      1.0000 0.84890  0.64650  0.61000  Biso   1.000  H
  H42      1.0000 0.15110  0.35350  0.61000  Biso   1.000  H
  H43      1.0000 0.35350  0.84890  0.61000  Biso   1.000  H
  H44      1.0000 0.64650  0.15110  0.61000  Biso   1.000  H
  H45      1.0000 0.15110  0.64650  0.39000  Biso   1.000  H
  H46      1.0000 0.84890  0.35350  0.39000  Biso   1.000  H
  H47      1.0000 0.64650  0.84890  0.39000  Biso   1.000  H
  H48      1.0000 0.35350  0.15110  0.39000  Biso   1.000  H
  H49      1.0000 0.31130  0.33710  0.18400  Biso   1.000  H
  H50      1.0000 0.68870  0.66290  0.18400  Biso   1.000  H
  H51      1.0000 0.66290  0.31130  0.18400  Biso   1.000  H
  H52      1.0000 0.33710  0.68870  0.18400  Biso   1.000  H
  H53      1.0000 0.68870  0.33710  0.81600  Biso   1.000  H
  H54      1.0000 0.31130  0.66290  0.81600  Biso   1.000  H
  H55      1.0000 0.33710  0.31130  0.81600  Biso   1.000  H
  H56      1.0000 0.66290  0.68870  0.81600  Biso   1.000  H
  H57      1.0000 0.68870  0.66290  0.81600  Biso   1.000  H
  H58      1.0000 0.31130  0.33710  0.81600  Biso   1.000  H
  H59      1.0000 0.33710  0.68870  0.81600  Biso   1.000  H
  H60      1.0000 0.66290  0.31130  0.81600  Biso   1.000  H
  H61      1.0000 0.31130  0.66290  0.18400  Biso   1.000  H
  H62      1.0000 0.68870  0.33710  0.18400  Biso   1.000  H
  H63      1.0000 0.66290  0.68870  0.18400  Biso   1.000  H
  H64      1.0000 0.33710  0.31130  0.18400  Biso   1.000  H
  H65      1.0000 0.24650  0.32900  0.04000  Biso   1.000  H
  H66      1.0000 0.75350  0.67100  0.04000  Biso   1.000  H
  H67      1.0000 0.67100  0.24650  0.04000  Biso   1.000  H
  H68      1.0000 0.32900  0.75350  0.04000  Biso   1.000  H
  H69      1.0000 0.75350  0.32900  0.96000  Biso   1.000  H
  H70      1.0000 0.24650  0.67100  0.96000  Biso   1.000  H
  H71      1.0000 0.32900  0.24650  0.96000  Biso   1.000  H
  H72      1.0000 0.67100  0.75350  0.96000  Biso   1.000  H
  H73      1.0000 0.75350  0.67100  0.96000  Biso   1.000  H
  H74      1.0000 0.24650  0.32900  0.96000  Biso   1.000  H
  H75      1.0000 0.32900  0.75350  0.96000  Biso   1.000  H
  H76      1.0000 0.67100  0.24650  0.96000  Biso   1.000  H
  H77      1.0000 0.24650  0.67100  0.04000  Biso   1.000  H
  H78      1.0000 0.75350  0.32900  0.04000  Biso   1.000  H
  H79      1.0000 0.67100  0.75350  0.04000  Biso   1.000  H
  H80      1.0000 0.32900  0.24650  0.04000  Biso   1.000  H
  H81      1.0000 0.28240  0.45660  0.10100  Biso   1.000  H
  H82      1.0000 0.71760  0.54340  0.10100  Biso   1.000  H
  H83      1.0000 0.54340  0.28240  0.10100  Biso   1.000  H
  H84      1.0000 0.45660  0.71760  0.10100  Biso   1.000  H
  H85      1.0000 0.71760  0.45660  0.89900  Biso   1.000  H
  H86      1.0000 0.28240  0.54340  0.89900  Biso   1.000  H
  H87      1.0000 0.45660  0.28240  0.89900  Biso   1.000  H
  H88      1.0000 0.54340  0.71760  0.89900  Biso   1.000  H
  H89      1.0000 0.71760  0.54340  0.89900  Biso   1.000  H
  H90      1.0000 0.28240  0.45660  0.89900  Biso   1.000  H
  H91      1.0000 0.45660  0.71760  0.89900  Biso   1.000  H
  H92      1.0000 0.54340  0.28240  0.89900  Biso   1.000  H
  H93      1.0000 0.28240  0.54340  0.10100  Biso   1.000  H
  H94      1.0000 0.71760  0.45660  0.10100  Biso   1.000  H
  H95      1.0000 0.54340  0.71760  0.10100  Biso   1.000  H
  H96      1.0000 0.45660  0.28240  0.10100  Biso   1.000  H
  C57      1.0000 0.00000  0.11236  0.42500  Biso   1.000  C
  C58      1.0000 0.00000  0.88764  0.42500  Biso   1.000  C
  C59      1.0000 0.88764  0.00000  0.42500  Biso   1.000  C
  C60      1.0000 0.11236  0.00000  0.42500  Biso   1.000  C
  C61      1.0000 0.00000  0.11236  0.57500  Biso   1.000  C
  C62      1.0000 0.00000  0.88764  0.57500  Biso   1.000  C
  C63      1.0000 0.11236  0.00000  0.57500  Biso   1.000  C
  C64      1.0000 0.88764  0.00000  0.57500  Biso   1.000  C
  C65      1.0000 0.05618  0.09730  0.42500  Biso   1.000  C
  C66      1.0000 0.94382  0.90270  0.42500  Biso   1.000  C
  C67      1.0000 0.90270  0.05618  0.42500  Biso   1.000  C
  C68      1.0000 0.09730  0.94382  0.42500  Biso   1.000  C
  C69      1.0000 0.94382  0.09730  0.57500  Biso   1.000  C
  C70      1.0000 0.05618  0.90270  0.57500  Biso   1.000  C
  C71      1.0000 0.09730  0.05618  0.57500  Biso   1.000  C
  C72      1.0000 0.90270  0.94382  0.57500  Biso   1.000  C
  C73      1.0000 0.94382  0.90270  0.57500  Biso   1.000  C
  C74      1.0000 0.05618  0.09730  0.57500  Biso   1.000  C
  C75      1.0000 0.09730  0.94382  0.57500  Biso   1.000  C
  C76      1.0000 0.90270  0.05618  0.57500  Biso   1.000  C
  C77      1.0000 0.05618  0.90270  0.42500  Biso   1.000  C
  C78      1.0000 0.94382  0.09730  0.42500  Biso   1.000  C
  C79      1.0000 0.90270  0.94382  0.42500  Biso   1.000  C
  C80      1.0000 0.09730  0.05618  0.42500  Biso   1.000  C
  H97      1.0000 0.07160  0.15780  0.39612  Biso   1.000  H
  H98      1.0000 0.92840  0.84220  0.39612  Biso   1.000  H
  H99      1.0000 0.84220  0.07160  0.39612  Biso   1.000  H
  H100     1.0000 0.15780  0.92840  0.39612  Biso   1.000  H
  H101     1.0000 0.92840  0.15780  0.60388  Biso   1.000  H
  H102     1.0000 0.07160  0.84220  0.60388  Biso   1.000  H
  H103     1.0000 0.15780  0.07160  0.60388  Biso   1.000  H
  H104     1.0000 0.84220  0.92840  0.60388  Biso   1.000  H
  H105     1.0000 0.92840  0.84220  0.60388  Biso   1.000  H
  H106     1.0000 0.07160  0.15780  0.60388  Biso   1.000  H
  H107     1.0000 0.15780  0.92840  0.60388  Biso   1.000  H
  H108     1.0000 0.84220  0.07160  0.60388  Biso   1.000  H
  H109     1.0000 0.07160  0.84220  0.39612  Biso   1.000  H
  H110     1.0000 0.92840  0.15780  0.39612  Biso   1.000  H
  H111     1.0000 0.84220  0.92840  0.39612  Biso   1.000  H
  H112     1.0000 0.15780  0.07160  0.39612  Biso   1.000  H
  H113     1.0000 0.14100  0.10080  0.39612  Biso   1.000  H
  H114     1.0000 0.85900  0.89920  0.39612  Biso   1.000  H
  H115     1.0000 0.89920  0.14100  0.39612  Biso   1.000  H
  H116     1.0000 0.10080  0.85900  0.39612  Biso   1.000  H
  H117     1.0000 0.85900  0.10080  0.60388  Biso   1.000  H
  H118     1.0000 0.14100  0.89920  0.60388  Biso   1.000  H
  H119     1.0000 0.10080  0.14100  0.60388  Biso   1.000  H
  H120     1.0000 0.89920  0.85900  0.60388  Biso   1.000  H
  H121     1.0000 0.85900  0.89920  0.60388  Biso   1.000  H
  H122     1.0000 0.14100  0.10080  0.60388  Biso   1.000  H
  H123     1.0000 0.10080  0.85900  0.60388  Biso   1.000  H
  H124     1.0000 0.89920  0.14100  0.60388  Biso   1.000  H
  H125     1.0000 0.14100  0.89920  0.39612  Biso   1.000  H
  H126     1.0000 0.85900  0.10080  0.39612  Biso   1.000  H
  H127     1.0000 0.89920  0.85900  0.39612  Biso   1.000  H
  H128     1.0000 0.10080  0.14100  0.39612  Biso   1.000  H
  H129     1.0000 0.01690  0.17250  0.39612  Biso   1.000  H
  H130     1.0000 0.98310  0.82750  0.39612  Biso   1.000  H
  H131     1.0000 0.82750  0.01690  0.39612  Biso   1.000  H
  H132     1.0000 0.17250  0.98310  0.39612  Biso   1.000  H
  H133     1.0000 0.98310  0.17250  0.60388  Biso   1.000  H
  H134     1.0000 0.01690  0.82750  0.60388  Biso   1.000  H
  H135     1.0000 0.17250  0.01690  0.60388  Biso   1.000  H
  H136     1.0000 0.82750  0.98310  0.60388  Biso   1.000  H
  H137     1.0000 0.98310  0.82750  0.60388  Biso   1.000  H
  H138     1.0000 0.01690  0.17250  0.60388  Biso   1.000  H
  H139     1.0000 0.17250  0.98310  0.60388  Biso   1.000  H
  H140     1.0000 0.82750  0.01690  0.60388  Biso   1.000  H
  H141     1.0000 0.01690  0.82750  0.39612  Biso   1.000  H
  H142     1.0000 0.98310  0.17250  0.39612  Biso   1.000  H
  H143     1.0000 0.82750  0.98310  0.39612  Biso   1.000  H
  H144     1.0000 0.17250  0.01690  0.39612  Biso   1.000  H
  H145     1.0000 0.11060  0.39180  0.16900  Biso   1.000  H
  H146     1.0000 0.88940  0.60820  0.16900  Biso   1.000  H
  H147     1.0000 0.60820  0.11060  0.16900  Biso   1.000  H
  H148     1.0000 0.39180  0.88940  0.16900  Biso   1.000  H
  H149     1.0000 0.88940  0.39180  0.83100  Biso   1.000  H
  H150     1.0000 0.11060  0.60820  0.83100  Biso   1.000  H
  H151     1.0000 0.39180  0.11060  0.83100  Biso   1.000  H
  H152     1.0000 0.60820  0.88940  0.83100  Biso   1.000  H
  H153     1.0000 0.88940  0.60820  0.83100  Biso   1.000  H
  H154     1.0000 0.11060  0.39180  0.83100  Biso   1.000  H
  H155     1.0000 0.39180  0.88940  0.83100  Biso   1.000  H
  H156     1.0000 0.60820  0.11060  0.83100  Biso   1.000  H
  H157     1.0000 0.11060  0.60820  0.16900  Biso   1.000  H
  H158     1.0000 0.88940  0.39180  0.16900  Biso   1.000  H
  H159     1.0000 0.60820  0.88940  0.16900  Biso   1.000  H
  H160     1.0000 0.39180  0.11060  0.16900  Biso   1.000  H
