data_image0
_cell_length_a       10.8236
_cell_length_b       10.8236
_cell_length_c       9.6413
_cell_angle_alpha    90
_cell_angle_beta     90
_cell_angle_gamma    90

_symmetry_space_group_name_H-M    "P 1"
_symmetry_int_tables_number       1

loop_
  _symmetry_equiv_pos_as_xyz
  'x, y, z'

loop_
  _atom_site_label
  _atom_site_occupancy
  _atom_site_fract_x
  _atom_site_fract_y
  _atom_site_fract_z
  _atom_site_thermal_displace_type
  _atom_site_B_iso_or_equiv
  _atom_site_type_symbol
  Cu1      1.0000 0.00000  0.00000  0.13090  Biso   1.000  Cu
  Cu2      1.0000 0.00000  0.00000  0.86910  Biso   1.000  Cu
  C1       1.0000 0.00000  0.23500  0.00000  Biso   1.000  C
  C2       1.0000 0.00000  0.76500  0.00000  Biso   1.000  C
  C3       1.0000 0.76500  0.00000  0.00000  Biso   1.000  C
  C4       1.0000 0.23500  0.00000  0.00000  Biso   1.000  C
  C5       1.0000 0.00000  0.38000  0.00000  Biso   1.000  C
  C6       1.0000 0.00000  0.62000  0.00000  Biso   1.000  C
  C7       1.0000 0.62000  0.00000  0.00000  Biso   1.000  C
  C8       1.0000 0.38000  0.00000  0.00000  Biso   1.000  C
  C9       1.0000 0.00000  0.43800  0.12400  Biso   1.000  C
  C10      1.0000 0.00000  0.56200  0.12400  Biso   1.000  C
  C11      1.0000 0.56200  0.00000  0.12400  Biso   1.000  C
  C12      1.0000 0.43800  0.00000  0.12400  Biso   1.000  C
  C13      1.0000 0.00000  0.43800  0.87600  Biso   1.000  C
  C14      1.0000 0.00000  0.56200  0.87600  Biso   1.000  C
  C15      1.0000 0.43800  0.00000  0.87600  Biso   1.000  C
  C16      1.0000 0.56200  0.00000  0.87600  Biso   1.000  C
  N1       1.0000 0.00000  0.00000  0.33900  Biso   1.000  N
  N2       1.0000 0.00000  0.00000  0.66100  Biso   1.000  N
  O1       1.0000 0.00000  0.17930  0.12100  Biso   1.000  O
  O2       1.0000 0.00000  0.82070  0.12100  Biso   1.000  O
  O3       1.0000 0.82070  0.00000  0.12100  Biso   1.000  O
  O4       1.0000 0.17930  0.00000  0.12100  Biso   1.000  O
  O5       1.0000 0.00000  0.17930  0.87900  Biso   1.000  O
  O6       1.0000 0.00000  0.82070  0.87900  Biso   1.000  O
  O7       1.0000 0.17930  0.00000  0.87900  Biso   1.000  O
  O8       1.0000 0.82070  0.00000  0.87900  Biso   1.000  O
  H1       1.0000 0.00000  0.39000  0.20700  Biso   1.000  H
  H2       1.0000 0.00000  0.61000  0.20700  Biso   1.000  H
  H3       1.0000 0.61000  0.00000  0.20700  Biso   1.000  H
  H4       1.0000 0.39000  0.00000  0.20700  Biso   1.000  H
  H5       1.0000 0.00000  0.39000  0.79300  Biso   1.000  H
  H6       1.0000 0.00000  0.61000  0.79300  Biso   1.000  H
  H7       1.0000 0.39000  0.00000  0.79300  Biso   1.000  H
  H8       1.0000 0.61000  0.00000  0.79300  Biso   1.000  H
  C17      1.0000 0.00000  0.11236  0.44300  Biso   1.000  C
  C18      1.0000 0.00000  0.88764  0.44300  Biso   1.000  C
  C19      1.0000 0.88764  0.00000  0.44300  Biso   1.000  C
  C20      1.0000 0.11236  0.00000  0.44300  Biso   1.000  C
  C21      1.0000 0.00000  0.11236  0.55700  Biso   1.000  C
  C22      1.0000 0.00000  0.88764  0.55700  Biso   1.000  C
  C23      1.0000 0.11236  0.00000  0.55700  Biso   1.000  C
  C24      1.0000 0.88764  0.00000  0.55700  Biso   1.000  C
  C25      1.0000 0.05618  0.09730  0.44300  Biso   1.000  C
  C26      1.0000 0.94382  0.90270  0.44300  Biso   1.000  C
  C27      1.0000 0.90270  0.05618  0.44300  Biso   1.000  C
  C28      1.0000 0.09730  0.94382  0.44300  Biso   1.000  C
  C29      1.0000 0.94382  0.09730  0.55700  Biso   1.000  C
  C30      1.0000 0.05618  0.90270  0.55700  Biso   1.000  C
  C31      1.0000 0.09730  0.05618  0.55700  Biso   1.000  C
  C32      1.0000 0.90270  0.94382  0.55700  Biso   1.000  C
  C33      1.0000 0.94382  0.90270  0.55700  Biso   1.000  C
  C34      1.0000 0.05618  0.09730  0.55700  Biso   1.000  C
  C35      1.0000 0.09730  0.94382  0.55700  Biso   1.000  C
  C36      1.0000 0.90270  0.05618  0.55700  Biso   1.000  C
  C37      1.0000 0.05618  0.90270  0.44300  Biso   1.000  C
  C38      1.0000 0.94382  0.09730  0.44300  Biso   1.000  C
  C39      1.0000 0.90270  0.94382  0.44300  Biso   1.000  C
  C40      1.0000 0.09730  0.05618  0.44300  Biso   1.000  C
  H9       1.0000 0.07160  0.15780  0.39612  Biso   1.000  H
  H10      1.0000 0.92840  0.84220  0.39612  Biso   1.000  H
  H11      1.0000 0.84220  0.07160  0.39612  Biso   1.000  H
  H12      1.0000 0.15780  0.92840  0.39612  Biso   1.000  H
  H13      1.0000 0.92840  0.15780  0.60388  Biso   1.000  H
  H14      1.0000 0.07160  0.84220  0.60388  Biso   1.000  H
  H15      1.0000 0.15780  0.07160  0.60388  Biso   1.000  H
  H16      1.0000 0.84220  0.92840  0.60388  Biso   1.000  H
  H17      1.0000 0.92840  0.84220  0.60388  Biso   1.000  H
  H18      1.0000 0.07160  0.15780  0.60388  Biso   1.000  H
  H19      1.0000 0.15780  0.92840  0.60388  Biso   1.000  H
  H20      1.0000 0.84220  0.07160  0.60388  Biso   1.000  H
  H21      1.0000 0.07160  0.84220  0.39612  Biso   1.000  H
  H22      1.0000 0.92840  0.15780  0.39612  Biso   1.000  H
  H23      1.0000 0.84220  0.92840  0.39612  Biso   1.000  H
  H24      1.0000 0.15780  0.07160  0.39612  Biso   1.000  H
  H25      1.0000 0.14100  0.10080  0.39612  Biso   1.000  H
  H26      1.0000 0.85900  0.89920  0.39612  Biso   1.000  H
  H27      1.0000 0.89920  0.14100  0.39612  Biso   1.000  H
  H28      1.0000 0.10080  0.85900  0.39612  Biso   1.000  H
  H29      1.0000 0.85900  0.10080  0.60388  Biso   1.000  H
  H30      1.0000 0.14100  0.89920  0.60388  Biso   1.000  H
  H31      1.0000 0.10080  0.14100  0.60388  Biso   1.000  H
  H32      1.0000 0.89920  0.85900  0.60388  Biso   1.000  H
  H33      1.0000 0.85900  0.89920  0.60388  Biso   1.000  H
  H34      1.0000 0.14100  0.10080  0.60388  Biso   1.000  H
  H35      1.0000 0.10080  0.85900  0.60388  Biso   1.000  H
  H36      1.0000 0.89920  0.14100  0.60388  Biso   1.000  H
  H37      1.0000 0.14100  0.89920  0.39612  Biso   1.000  H
  H38      1.0000 0.85900  0.10080  0.39612  Biso   1.000  H
  H39      1.0000 0.89920  0.85900  0.39612  Biso   1.000  H
  H40      1.0000 0.10080  0.14100  0.39612  Biso   1.000  H
  H41      1.0000 0.01690  0.17250  0.39612  Biso   1.000  H
  H42      1.0000 0.98310  0.82750  0.39612  Biso   1.000  H
  H43      1.0000 0.82750  0.01690  0.39612  Biso   1.000  H
  H44      1.0000 0.17250  0.98310  0.39612  Biso   1.000  H
  H45      1.0000 0.98310  0.17250  0.60388  Biso   1.000  H
  H46      1.0000 0.01690  0.82750  0.60388  Biso   1.000  H
  H47      1.0000 0.17250  0.01690  0.60388  Biso   1.000  H
  H48      1.0000 0.82750  0.98310  0.60388  Biso   1.000  H
  H49      1.0000 0.98310  0.82750  0.60388  Biso   1.000  H
  H50      1.0000 0.01690  0.17250  0.60388  Biso   1.000  H
  H51      1.0000 0.17250  0.98310  0.60388  Biso   1.000  H
  H52      1.0000 0.82750  0.01690  0.60388  Biso   1.000  H
  H53      1.0000 0.01690  0.82750  0.39612  Biso   1.000  H
  H54      1.0000 0.98310  0.17250  0.39612  Biso   1.000  H
  H55      1.0000 0.82750  0.98310  0.39612  Biso   1.000  H
  H56      1.0000 0.17250  0.01690  0.39612  Biso   1.000  H
