data_image0
_cell_length_a       7.89
_cell_length_b       15.945
_cell_length_c       13.063
_cell_angle_alpha    90
_cell_angle_beta     94.588
_cell_angle_gamma    90

_symmetry_space_group_name_H-M    "P 1"
_symmetry_int_tables_number       1

loop_
  _symmetry_equiv_pos_as_xyz
  'x, y, z'

loop_
  _atom_site_label
  _atom_site_occupancy
  _atom_site_fract_x
  _atom_site_fract_y
  _atom_site_fract_z
  _atom_site_thermal_displace_type
  _atom_site_B_iso_or_equiv
  _atom_site_type_symbol
  Cu1      1.0000 0.75761  0.31304  0.61299  Biso   1.000  Cu
  Cu2      1.0000 0.24239  0.81304  0.38701  Biso   1.000  Cu
  S1       1.0000 0.44733  0.16014  0.63239  Biso   1.000  S
  S2       1.0000 0.55267  0.66014  0.36761  Biso   1.000  S
  S3       1.0000 0.07176  0.46228  0.66212  Biso   1.000  S
  S4       1.0000 0.92824  0.96228  0.33788  Biso   1.000  S
  O1       1.0000 0.38830  0.08050  0.58560  Biso   1.000  O
  O2       1.0000 0.61170  0.58050  0.41440  Biso   1.000  O
  O3       1.0000 0.33420  0.22970  0.60460  Biso   1.000  O
  O4       1.0000 0.66580  0.72970  0.39540  Biso   1.000  O
  N1       1.0000 0.76790  0.30830  0.45920  Biso   1.000  N
  N2       1.0000 0.23210  0.80830  0.54080  Biso   1.000  N
  O5       1.0000 0.62590  0.17830  0.61270  Biso   1.000  O
  O6       1.0000 0.37410  0.67830  0.38730  Biso   1.000  O
  O7       1.0000 0.18620  0.39120  0.66170  Biso   1.000  O
  O8       1.0000 0.81380  0.89120  0.33830  Biso   1.000  O
  N3       1.0000 0.74290  0.32190  0.76640  Biso   1.000  N
  N4       1.0000 0.25710  0.82190  0.23360  Biso   1.000  N
  O9       1.0000 0.13730  0.53870  0.61650  Biso   1.000  O
  O10      1.0000 0.86270  0.03870  0.38350  Biso   1.000  O
  O11      1.0000 0.89890  0.44350  0.61880  Biso   1.000  O
  O12      1.0000 0.10110  0.94350  0.38120  Biso   1.000  O
  N5       1.0000 0.72660  0.35040  0.08670  Biso   1.000  N
  N6       1.0000 0.27340  0.85040  0.91330  Biso   1.000  N
  C1       1.0000 0.67690  0.39120  0.80830  Biso   1.000  C
  C2       1.0000 0.32310  0.89120  0.19170  Biso   1.000  C
  H1       1.0000 0.63320  0.43370  0.76520  Biso   1.000  H
  H2       1.0000 0.36680  0.93370  0.23480  Biso   1.000  H
  C3       1.0000 0.96860  0.55960  0.82120  Biso   1.000  C
  C4       1.0000 0.03140  0.05960  0.17880  Biso   1.000  C
  H3       1.0000 0.92190  0.59540  0.77030  Biso   1.000  H
  H4       1.0000 0.07810  0.09540  0.22970  Biso   1.000  H
  C5       1.0000 0.44670  0.14660  0.76730  Biso   1.000  C
  C6       1.0000 0.55330  0.64660  0.23270  Biso   1.000  C
  C7       1.0000 0.80060  0.25920  0.82890  Biso   1.000  C
  C8       1.0000 0.19940  0.75920  0.17110  Biso   1.000  C
  H5       1.0000 0.84160  0.21090  0.79960  Biso   1.000  H
  H6       1.0000 0.15840  0.71090  0.20040  Biso   1.000  H
  C9       1.0000 0.05440  0.48740  0.79500  Biso   1.000  C
  C10      1.0000 0.94560  0.98740  0.20500  Biso   1.000  C
  C11      1.0000 0.67250  0.40070  0.91450  Biso   1.000  C
  C12      1.0000 0.32750  0.90070  0.08550  Biso   1.000  C
  H7       1.0000 0.62830  0.44910  0.94190  Biso   1.000  H
  H8       1.0000 0.37170  0.94910  0.05810  Biso   1.000  H
  C13      1.0000 0.74720  0.37880  0.40290  Biso   1.000  C
  C14      1.0000 0.25280  0.87880  0.59710  Biso   1.000  C
  H9       1.0000 0.73230  0.42970  0.43580  Biso   1.000  H
  H10      1.0000 0.26770  0.92970  0.56420  Biso   1.000  H
  N7       1.0000 0.78500  0.28960  0.13780  Biso   1.000  N
  N8       1.0000 0.21500  0.78960  0.86220  Biso   1.000  N
  C15      1.0000 0.37310  0.20920  0.82650  Biso   1.000  C
  C16      1.0000 0.62690  0.70920  0.17350  Biso   1.000  C
  H11      1.0000 0.31520  0.25430  0.79500  Biso   1.000  H
  H12      1.0000 0.68480  0.75430  0.20500  Biso   1.000  H
  C17      1.0000 0.73610  0.33600  0.97850  Biso   1.000  C
  C18      1.0000 0.26390  0.83600  0.02150  Biso   1.000  C
  C19      1.0000 0.12220  0.43250  0.87150  Biso   1.000  C
  C20      1.0000 0.87780  0.93250  0.12850  Biso   1.000  C
  H13      1.0000 0.18160  0.38490  0.85410  Biso   1.000  H
  H14      1.0000 0.81840  0.88490  0.14590  Biso   1.000  H
  C21      1.0000 0.79510  0.23500  0.41300  Biso   1.000  C
  C22      1.0000 0.20490  0.73500  0.58700  Biso   1.000  C
  H15      1.0000 0.81090  0.18690  0.45290  Biso   1.000  H
  H16      1.0000 0.18910  0.68690  0.54710  Biso   1.000  H
  C23      1.0000 0.80200  0.26330  0.93490  Biso   1.000  C
  C24      1.0000 0.19800  0.76330  0.06510  Biso   1.000  C
  H17      1.0000 0.84510  0.21940  0.97600  Biso   1.000  H
  H18      1.0000 0.15490  0.71940  0.02400  Biso   1.000  H
  C25      1.0000 0.53610  0.06850  0.91930  Biso   1.000  C
  C26      1.0000 0.46390  0.56850  0.08070  Biso   1.000  C
  H19      1.0000 0.58700  0.02120  0.95010  Biso   1.000  H
  H20      1.0000 0.41300  0.52120  0.04990  Biso   1.000  H
  C27      1.0000 0.95360  0.57770  0.92420  Biso   1.000  C
  C28      1.0000 0.04640  0.07770  0.07580  Biso   1.000  C
  H21      1.0000 0.90210  0.62760  0.94180  Biso   1.000  H
  H22      1.0000 0.09790  0.12760  0.05820  Biso   1.000  H
  C29      1.0000 0.01420  0.52260  0.00200  Biso   1.000  C
  C30      1.0000 0.98580  0.02260  0.99800  Biso   1.000  C
  C31      1.0000 0.77600  0.30050  0.24830  Biso   1.000  C
  C32      1.0000 0.22400  0.80050  0.75170  Biso   1.000  C
  C33      1.0000 0.47260  0.13230  0.98120  Biso   1.000  C
  C34      1.0000 0.52740  0.63230  0.01880  Biso   1.000  C
  C35      1.0000 0.52300  0.07590  0.81430  Biso   1.000  C
  C36      1.0000 0.47700  0.57590  0.18570  Biso   1.000  C
  H23      1.0000 0.56520  0.03370  0.77430  Biso   1.000  H
  H24      1.0000 0.43480  0.53370  0.22570  Biso   1.000  H
  C37      1.0000 0.74760  0.37720  0.29620  Biso   1.000  C
  C38      1.0000 0.25240  0.87720  0.70380  Biso   1.000  C
  H25      1.0000 0.72950  0.42590  0.25770  Biso   1.000  H
  H26      1.0000 0.27050  0.92590  0.74230  Biso   1.000  H
  C39      1.0000 0.49710  0.12730  0.09780  Biso   1.000  C
  C40      1.0000 0.50290  0.62730  0.90220  Biso   1.000  C
  H27      1.0000 0.55650  0.07650  0.11750  Biso   1.000  H
  H28      1.0000 0.44350  0.57650  0.88250  Biso   1.000  H
  H29      1.0000 0.38810  0.12740  0.12570  Biso   1.000  H
  H30      1.0000 0.61190  0.62740  0.87430  Biso   1.000  H
  H31      1.0000 0.56210  0.17470  0.12380  Biso   1.000  H
  H32      1.0000 0.43790  0.67470  0.87620  Biso   1.000  H
  C41      1.0000 0.80040  0.22880  0.30810  Biso   1.000  C
  C42      1.0000 0.19960  0.72880  0.69190  Biso   1.000  C
  H33      1.0000 0.81990  0.17730  0.27780  Biso   1.000  H
  H34      1.0000 0.18010  0.67730  0.72220  Biso   1.000  H
  C43      1.0000 0.69060  0.75200  0.65860  Biso   1.000  C
  C44      1.0000 0.30940  0.25200  0.34140  Biso   1.000  C
  H35      1.0000 0.67570  0.71250  0.71260  Biso   1.000  H
  H36      1.0000 0.32430  0.21250  0.28740  Biso   1.000  H
  H37      1.0000 0.77660  0.73180  0.61670  Biso   1.000  H
  H38      1.0000 0.22340  0.23180  0.38330  Biso   1.000  H
  H39      1.0000 0.58530  0.75840  0.61710  Biso   1.000  H
  H40      1.0000 0.41470  0.25840  0.38290  Biso   1.000  H
  O13      1.0000 0.75690  0.84460  0.79740  Biso   1.000  O
  O14      1.0000 0.24310  0.34460  0.20260  Biso   1.000  O
  C45      1.0000 0.38960  0.20140  0.93430  Biso   1.000  C
  C46      1.0000 0.61040  0.70140  0.06570  Biso   1.000  C
  H41      1.0000 0.34480  0.24270  0.97460  Biso   1.000  H
  H42      1.0000 0.65520  0.74270  0.02540  Biso   1.000  H
  C47      1.0000 0.09930  0.45030  0.97520  Biso   1.000  C
  C48      1.0000 0.90070  0.95030  0.02480  Biso   1.000  C
  H43      1.0000 0.14140  0.41340  0.02620  Biso   1.000  H
  H44      1.0000 0.85860  0.91340  0.97380  Biso   1.000  H
  C49      1.0000 0.74460  0.83590  0.70470  Biso   1.000  C
  C50      1.0000 0.25540  0.33590  0.29530  Biso   1.000  C
  C51      1.0000 0.98810  0.54230  0.11220  Biso   1.000  C
  C52      1.0000 0.01190  0.04230  0.88780  Biso   1.000  C
  H45      1.0000 0.92740  0.59430  0.11570  Biso   1.000  H
  H46      1.0000 0.07260  0.09430  0.88430  Biso   1.000  H
  H47      1.0000 0.09650  0.54710  0.15060  Biso   1.000  H
  H48      1.0000 0.90350  0.04710  0.84940  Biso   1.000  H
  H49      1.0000 0.92370  0.49820  0.14060  Biso   1.000  H
  H50      1.0000 0.07630  0.99820  0.85940  Biso   1.000  H
  C53      1.0000 0.77220  0.90570  0.63480  Biso   1.000  C
  C54      1.0000 0.22780  0.40570  0.36520  Biso   1.000  C
  H51      1.0000 0.80450  0.95490  0.67410  Biso   1.000  H
  H52      1.0000 0.19550  0.45490  0.32590  Biso   1.000  H
  H53      1.0000 0.66920  0.91670  0.59270  Biso   1.000  H
  H54      1.0000 0.33080  0.41670  0.40730  Biso   1.000  H
  H55      1.0000 0.86100  0.89130  0.59190  Biso   1.000  H
  H56      1.0000 0.13900  0.39130  0.40810  Biso   1.000  H
  O15      1.0000 0.53400  0.36980  0.58380  Biso   1.000  O
  O16      1.0000 0.46600  0.86980  0.41620  Biso   1.000  O
  O17      1.0000 0.97330  0.24760  0.63690  Biso   1.000  O
  O18      1.0000 0.02670  0.74760  0.36310  Biso   1.000  O
  O19      1.0000 0.49600  0.53500  0.61080  Biso   1.000  O
  O20      1.0000 0.50400  0.03500  0.38920  Biso   1.000  O
  O21      1.0000 0.02770  0.08900  0.57980  Biso   1.000  O
  O22      1.0000 0.97230  0.58900  0.42020  Biso   1.000  O
  H57      1.0000 0.50200  0.31700  0.61300  Biso   1.000  H
  H58      1.0000 0.49800  0.81700  0.38700  Biso   1.000  H
  H59      1.0000 0.02700  0.31400  0.61200  Biso   1.000  H
  H60      1.0000 0.97300  0.81400  0.38800  Biso   1.000  H
  H61      1.0000 0.14400  0.07800  0.57500  Biso   1.000  H
  H62      1.0000 0.85600  0.57800  0.42500  Biso   1.000  H
  H63      1.0000 0.52000  0.41500  0.63000  Biso   1.000  H
  H64      1.0000 0.48000  0.91500  0.37000  Biso   1.000  H
  H65      1.0000 0.08000  0.22100  0.62700  Biso   1.000  H
  H66      1.0000 0.92000  0.72100  0.37300  Biso   1.000  H
  H67      1.0000 0.96000  0.06700  0.52300  Biso   1.000  H
  H68      1.0000 0.04000  0.56700  0.47700  Biso   1.000  H
  H69      1.0000 0.37800  0.54800  0.60900  Biso   1.000  H
  H70      1.0000 0.62200  0.04800  0.39100  Biso   1.000  H
  H71      1.0000 0.53000  0.47700  0.61100  Biso   1.000  H
  H72      1.0000 0.47000  0.97700  0.38900  Biso   1.000  H
