data_image0
_cell_length_a       24.3572
_cell_length_b       7.9688
_cell_length_c       17.4501
_cell_angle_alpha    90
_cell_angle_beta     105.172
_cell_angle_gamma    90

_symmetry_space_group_name_H-M    "P 1"
_symmetry_int_tables_number       1

loop_
  _symmetry_equiv_pos_as_xyz
  'x, y, z'

loop_
  _atom_site_label
  _atom_site_occupancy
  _atom_site_fract_x
  _atom_site_fract_y
  _atom_site_fract_z
  _atom_site_thermal_displace_type
  _atom_site_B_iso_or_equiv
  _atom_site_type_symbol
  Cu1      1.0000 0.50000  0.00000  0.50000  Biso   1.000  Cu
  Cu2      1.0000 0.50000  0.50000  0.00000  Biso   1.000  Cu
  S1       1.0000 0.55246  0.31162  0.40486  Biso   1.000  S
  S2       1.0000 0.44754  0.81162  0.09514  Biso   1.000  S
  S3       1.0000 0.44754  0.68838  0.59514  Biso   1.000  S
  S4       1.0000 0.55246  0.18838  0.90486  Biso   1.000  S
  Cu3      1.0000 0.00000  0.00000  0.00000  Biso   1.000  Cu
  Cu4      1.0000 0.00000  0.50000  0.50000  Biso   1.000  Cu
  S5       1.0000 0.13131  0.07055  0.47254  Biso   1.000  S
  S6       1.0000 0.86869  0.57055  0.02746  Biso   1.000  S
  S7       1.0000 0.86869  0.92945  0.52746  Biso   1.000  S
  S8       1.0000 0.13131  0.42945  0.97254  Biso   1.000  S
  N1       1.0000 0.42449  0.01120  0.41843  Biso   1.000  N
  N2       1.0000 0.57551  0.51120  0.08157  Biso   1.000  N
  N3       1.0000 0.57551  0.98880  0.58157  Biso   1.000  N
  N4       1.0000 0.42449  0.48880  0.91843  Biso   1.000  N
  C1       1.0000 0.37614  0.03610  0.44011  Biso   1.000  C
  C2       1.0000 0.62386  0.53610  0.05989  Biso   1.000  C
  C3       1.0000 0.62386  0.96390  0.55989  Biso   1.000  C
  C4       1.0000 0.37614  0.46390  0.94011  Biso   1.000  C
  H1       1.0000 0.37840  0.05570  0.49340  Biso   1.000  H
  H2       1.0000 0.62160  0.55570  0.00660  Biso   1.000  H
  H3       1.0000 0.62160  0.94430  0.50660  Biso   1.000  H
  H4       1.0000 0.37840  0.44430  0.99340  Biso   1.000  H
  C5       1.0000 0.42052  0.98250  0.34156  Biso   1.000  C
  C6       1.0000 0.57948  0.48250  0.15844  Biso   1.000  C
  C7       1.0000 0.57948  0.01750  0.65844  Biso   1.000  C
  C8       1.0000 0.42052  0.51750  0.84156  Biso   1.000  C
  H5       1.0000 0.45380  0.96840  0.32570  Biso   1.000  H
  H6       1.0000 0.54620  0.46840  0.17430  Biso   1.000  H
  H7       1.0000 0.54620  0.03160  0.67430  Biso   1.000  H
  H8       1.0000 0.45380  0.53160  0.82570  Biso   1.000  H
  C9       1.0000 0.36950  0.97310  0.28516  Biso   1.000  C
  C10      1.0000 0.63050  0.47310  0.21484  Biso   1.000  C
  C11      1.0000 0.63050  0.02690  0.71484  Biso   1.000  C
  C12      1.0000 0.36950  0.52690  0.78516  Biso   1.000  C
  H9       1.0000 0.36820  0.94860  0.23260  Biso   1.000  H
  H10      1.0000 0.63180  0.44860  0.26740  Biso   1.000  H
  H11      1.0000 0.63180  0.05140  0.76740  Biso   1.000  H
  H12      1.0000 0.36820  0.55140  0.73260  Biso   1.000  H
  C13      1.0000 0.32347  0.03400  0.38694  Biso   1.000  C
  C14      1.0000 0.67653  0.53400  0.11306  Biso   1.000  C
  C15      1.0000 0.67653  0.96600  0.61306  Biso   1.000  C
  C16      1.0000 0.32347  0.46600  0.88694  Biso   1.000  C
  H13      1.0000 0.29080  0.05430  0.40360  Biso   1.000  H
  H14      1.0000 0.70920  0.55430  0.09640  Biso   1.000  H
  H15      1.0000 0.70920  0.94570  0.59640  Biso   1.000  H
  H16      1.0000 0.29080  0.44570  0.90360  Biso   1.000  H
  C17      1.0000 0.32015  0.00080  0.30806  Biso   1.000  C
  C18      1.0000 0.67985  0.50080  0.19194  Biso   1.000  C
  C19      1.0000 0.67985  0.99920  0.69194  Biso   1.000  C
  C20      1.0000 0.32015  0.49920  0.80806  Biso   1.000  C
  N5       1.0000 0.22883  0.06960  0.25874  Biso   1.000  N
  N6       1.0000 0.77117  0.56960  0.24126  Biso   1.000  N
  N7       1.0000 0.77117  0.93040  0.74126  Biso   1.000  N
  N8       1.0000 0.22883  0.43040  0.75874  Biso   1.000  N
  N9       1.0000 0.07507  0.02500  0.08240  Biso   1.000  N
  N10      1.0000 0.92493  0.52500  0.41760  Biso   1.000  N
  N11      1.0000 0.92493  0.97500  0.91760  Biso   1.000  N
  N12      1.0000 0.07507  0.47500  0.58240  Biso   1.000  N
  N13      1.0000 0.26844  0.98710  0.24729  Biso   1.000  N
  N14      1.0000 0.73156  0.48710  0.25271  Biso   1.000  N
  N15      1.0000 0.73156  0.01290  0.75271  Biso   1.000  N
  N16      1.0000 0.26844  0.51290  0.74729  Biso   1.000  N
  C21      1.0000 0.12940  0.12690  0.20840  Biso   1.000  C
  C22      1.0000 0.87060  0.62690  0.29160  Biso   1.000  C
  C23      1.0000 0.87060  0.87310  0.79160  Biso   1.000  C
  C24      1.0000 0.12940  0.37310  0.70840  Biso   1.000  C
  H17      1.0000 0.13060  0.18580  0.25480  Biso   1.000  H
  H18      1.0000 0.86940  0.68580  0.24520  Biso   1.000  H
  H19      1.0000 0.86940  0.81420  0.74520  Biso   1.000  H
  H20      1.0000 0.13060  0.31420  0.75480  Biso   1.000  H
  C25      1.0000 0.17764  0.05200  0.19655  Biso   1.000  C
  C26      1.0000 0.82236  0.55200  0.30345  Biso   1.000  C
  C27      1.0000 0.82236  0.94800  0.80345  Biso   1.000  C
  C28      1.0000 0.17764  0.44800  0.69655  Biso   1.000  C
  C29      1.0000 0.12238  0.95270  0.07230  Biso   1.000  C
  C30      1.0000 0.87762  0.45270  0.42770  Biso   1.000  C
  C31      1.0000 0.87762  0.04730  0.92770  Biso   1.000  C
  C32      1.0000 0.12238  0.54730  0.57230  Biso   1.000  C
  H21      1.0000 0.12000  0.89200  0.02600  Biso   1.000  H
  H22      1.0000 0.88000  0.39200  0.47400  Biso   1.000  H
  H23      1.0000 0.88000  0.10800  0.97400  Biso   1.000  H
  H24      1.0000 0.12000  0.60800  0.52600  Biso   1.000  H
  C33      1.0000 0.07918  0.11160  0.14920  Biso   1.000  C
  C34      1.0000 0.92082  0.61160  0.35080  Biso   1.000  C
  C35      1.0000 0.92082  0.88840  0.85080  Biso   1.000  C
  C36      1.0000 0.07918  0.38840  0.64920  Biso   1.000  C
  H25      1.0000 0.04680  0.16420  0.15620  Biso   1.000  H
  H26      1.0000 0.95320  0.66420  0.34380  Biso   1.000  H
  H27      1.0000 0.95320  0.83580  0.84380  Biso   1.000  H
  H28      1.0000 0.04680  0.33580  0.65620  Biso   1.000  H
  C37      1.0000 0.17391  0.96410  0.12670  Biso   1.000  C
  C38      1.0000 0.82609  0.46410  0.37330  Biso   1.000  C
  C39      1.0000 0.82609  0.03590  0.87330  Biso   1.000  C
  C40      1.0000 0.17391  0.53590  0.62670  Biso   1.000  C
  H29      1.0000 0.20590  0.91400  0.11710  Biso   1.000  H
  H30      1.0000 0.79410  0.41400  0.38290  Biso   1.000  H
  H31      1.0000 0.79410  0.08600  0.88290  Biso   1.000  H
  H32      1.0000 0.20590  0.58600  0.61710  Biso   1.000  H
  O1       1.0000 0.51132  0.40900  0.43281  Biso   1.000  O
  O2       1.0000 0.48868  0.90900  0.06719  Biso   1.000  O
  O3       1.0000 0.48868  0.59100  0.56719  Biso   1.000  O
  O4       1.0000 0.51132  0.09100  0.93281  Biso   1.000  O
  O5       1.0000 0.54417  0.13060  0.40971  Biso   1.000  O
  O6       1.0000 0.45583  0.63060  0.09029  Biso   1.000  O
  O7       1.0000 0.45583  0.86940  0.59029  Biso   1.000  O
  O8       1.0000 0.54417  0.36940  0.90971  Biso   1.000  O
  O9       1.0000 0.55540  0.36180  0.32585  Biso   1.000  O
  O10      1.0000 0.44460  0.86180  0.17415  Biso   1.000  O
  O11      1.0000 0.44460  0.63820  0.67415  Biso   1.000  O
  O12      1.0000 0.55540  0.13820  0.82585  Biso   1.000  O
  O13      1.0000 0.52081  0.78520  0.45597  Biso   1.000  O
  O14      1.0000 0.47919  0.28520  0.04403  Biso   1.000  O
  O15      1.0000 0.47919  0.21480  0.54403  Biso   1.000  O
  O16      1.0000 0.52081  0.71480  0.95597  Biso   1.000  O
  C41      1.0000 0.62000  0.35530  0.46951  Biso   1.000  C
  C42      1.0000 0.38000  0.85530  0.03049  Biso   1.000  C
  C43      1.0000 0.38000  0.64470  0.53049  Biso   1.000  C
  C44      1.0000 0.62000  0.14470  0.96951  Biso   1.000  C
  C45      1.0000 0.66835  0.29000  0.45300  Biso   1.000  C
  C46      1.0000 0.33165  0.79000  0.04700  Biso   1.000  C
  C47      1.0000 0.33165  0.71000  0.54700  Biso   1.000  C
  C48      1.0000 0.66835  0.21000  0.95300  Biso   1.000  C
  H33      1.0000 0.66530  0.22910  0.40670  Biso   1.000  H
  H34      1.0000 0.33470  0.72910  0.09330  Biso   1.000  H
  H35      1.0000 0.33470  0.77090  0.59330  Biso   1.000  H
  H36      1.0000 0.66530  0.27090  0.90670  Biso   1.000  H
  C49      1.0000 0.72092  0.31480  0.50500  Biso   1.000  C
  C50      1.0000 0.27908  0.81480  0.99500  Biso   1.000  C
  C51      1.0000 0.27908  0.68520  0.49500  Biso   1.000  C
  C52      1.0000 0.72092  0.18520  0.00500  Biso   1.000  C
  H37      1.0000 0.75290  0.26910  0.49340  Biso   1.000  H
  H38      1.0000 0.24710  0.76910  0.00660  Biso   1.000  H
  H39      1.0000 0.24710  0.73090  0.50660  Biso   1.000  H
  H40      1.0000 0.75290  0.23090  0.99340  Biso   1.000  H
  C53      1.0000 0.62509  0.44760  0.53800  Biso   1.000  C
  C54      1.0000 0.37491  0.94760  0.96200  Biso   1.000  C
  C55      1.0000 0.37491  0.55240  0.46200  Biso   1.000  C
  C56      1.0000 0.62509  0.05240  0.03800  Biso   1.000  C
  H41      1.0000 0.59290  0.49200  0.54970  Biso   1.000  H
  H42      1.0000 0.40710  0.99200  0.95030  Biso   1.000  H
  H43      1.0000 0.40710  0.50800  0.45030  Biso   1.000  H
  H44      1.0000 0.59290  0.00800  0.04970  Biso   1.000  H
  C57      1.0000 0.72718  0.40650  0.57420  Biso   1.000  C
  C58      1.0000 0.27282  0.90650  0.92580  Biso   1.000  C
  C59      1.0000 0.27282  0.59350  0.42580  Biso   1.000  C
  C60      1.0000 0.72718  0.09350  0.07420  Biso   1.000  C
  C61      1.0000 0.67810  0.47340  0.58880  Biso   1.000  C
  C62      1.0000 0.32190  0.97340  0.91120  Biso   1.000  C
  C63      1.0000 0.32190  0.52660  0.41120  Biso   1.000  C
  C64      1.0000 0.67810  0.02660  0.08880  Biso   1.000  C
  H45      1.0000 0.68120  0.53750  0.63430  Biso   1.000  H
  H46      1.0000 0.31880  0.03750  0.86570  Biso   1.000  H
  H47      1.0000 0.31880  0.46250  0.36570  Biso   1.000  H
  H48      1.0000 0.68120  0.96250  0.13430  Biso   1.000  H
  C65      1.0000 0.78490  0.43160  0.63120  Biso   1.000  C
  C66      1.0000 0.21510  0.93160  0.86880  Biso   1.000  C
  C67      1.0000 0.21510  0.56840  0.36880  Biso   1.000  C
  C68      1.0000 0.78490  0.06840  0.13120  Biso   1.000  C
  H49      1.0000 0.79470  0.33460  0.66460  Biso   1.000  H
  H50      1.0000 0.20530  0.83460  0.83540  Biso   1.000  H
  H51      1.0000 0.20530  0.66540  0.33540  Biso   1.000  H
  H52      1.0000 0.79470  0.16540  0.16460  Biso   1.000  H
  H53      1.0000 0.78400  0.52870  0.66350  Biso   1.000  H
  H54      1.0000 0.21600  0.02870  0.83650  Biso   1.000  H
  H55      1.0000 0.21600  0.47130  0.33650  Biso   1.000  H
  H56      1.0000 0.78400  0.97130  0.16350  Biso   1.000  H
  H57      1.0000 0.81280  0.44770  0.60190  Biso   1.000  H
  H58      1.0000 0.18720  0.94770  0.89810  Biso   1.000  H
  H59      1.0000 0.18720  0.55230  0.39810  Biso   1.000  H
  H60      1.0000 0.81280  0.05230  0.10190  Biso   1.000  H
  C69      1.0000 0.19719  0.09120  0.54320  Biso   1.000  C
  C70      1.0000 0.80281  0.59120  0.95680  Biso   1.000  C
  C71      1.0000 0.80281  0.90880  0.45680  Biso   1.000  C
  C72      1.0000 0.19719  0.40880  0.04320  Biso   1.000  C
  C73      1.0000 0.23888  0.19590  0.52950  Biso   1.000  C
  C74      1.0000 0.76112  0.69590  0.97050  Biso   1.000  C
  C75      1.0000 0.76112  0.80410  0.47050  Biso   1.000  C
  C76      1.0000 0.23888  0.30410  0.02950  Biso   1.000  C
  H61      1.0000 0.23150  0.26380  0.48470  Biso   1.000  H
  H62      1.0000 0.76850  0.76380  0.01530  Biso   1.000  H
  H63      1.0000 0.76850  0.73620  0.51530  Biso   1.000  H
  H64      1.0000 0.23150  0.23620  0.98470  Biso   1.000  H
  C77      1.0000 0.29240  0.19800  0.58430  Biso   1.000  C
  C78      1.0000 0.70760  0.69800  0.91570  Biso   1.000  C
  C79      1.0000 0.70760  0.80200  0.41570  Biso   1.000  C
  C80      1.0000 0.29240  0.30200  0.08430  Biso   1.000  C
  H65      1.0000 0.32020  0.27020  0.57560  Biso   1.000  H
  H66      1.0000 0.67980  0.77020  0.92440  Biso   1.000  H
  H67      1.0000 0.67980  0.72980  0.42440  Biso   1.000  H
  H68      1.0000 0.32020  0.22980  0.07560  Biso   1.000  H
  C81      1.0000 0.30540  0.09680  0.65060  Biso   1.000  C
  C82      1.0000 0.69460  0.59680  0.84940  Biso   1.000  C
  C83      1.0000 0.69460  0.90320  0.34940  Biso   1.000  C
  C84      1.0000 0.30540  0.40320  0.15060  Biso   1.000  C
  C85      1.0000 0.20940  0.99420  0.61150  Biso   1.000  C
  C86      1.0000 0.79060  0.49420  0.88850  Biso   1.000  C
  C87      1.0000 0.79060  0.00580  0.38850  Biso   1.000  C
  C88      1.0000 0.20940  0.50580  0.11150  Biso   1.000  C
  H69      1.0000 0.18110  0.92740  0.62260  Biso   1.000  H
  H70      1.0000 0.81890  0.42740  0.87740  Biso   1.000  H
  H71      1.0000 0.81890  0.07260  0.37740  Biso   1.000  H
  H72      1.0000 0.18110  0.57260  0.12260  Biso   1.000  H
  C89      1.0000 0.26280  0.99540  0.66290  Biso   1.000  C
  C90      1.0000 0.73720  0.49540  0.83710  Biso   1.000  C
  C91      1.0000 0.73720  0.00460  0.33710  Biso   1.000  C
  C92      1.0000 0.26280  0.50460  0.16290  Biso   1.000  C
  H73      1.0000 0.27040  0.92590  0.70720  Biso   1.000  H
  H74      1.0000 0.72960  0.42590  0.79280  Biso   1.000  H
  H75      1.0000 0.72960  0.07410  0.29280  Biso   1.000  H
  H76      1.0000 0.27040  0.57410  0.20720  Biso   1.000  H
  C93      1.0000 0.36440  0.09170  0.70530  Biso   1.000  C
  C94      1.0000 0.63560  0.59170  0.79470  Biso   1.000  C
  C95      1.0000 0.63560  0.90830  0.29470  Biso   1.000  C
  C96      1.0000 0.36440  0.40830  0.20530  Biso   1.000  C
  H77      1.0000 0.39170  0.08630  0.67450  Biso   1.000  H
  H78      1.0000 0.60830  0.58630  0.82550  Biso   1.000  H
  H79      1.0000 0.60830  0.91370  0.32550  Biso   1.000  H
  H80      1.0000 0.39170  0.41370  0.17450  Biso   1.000  H
  H81      1.0000 0.36830  0.99450  0.73880  Biso   1.000  H
  H82      1.0000 0.63170  0.49450  0.76120  Biso   1.000  H
  H83      1.0000 0.63170  0.00550  0.26120  Biso   1.000  H
  H84      1.0000 0.36830  0.50550  0.23880  Biso   1.000  H
  H85      1.0000 0.37090  0.19100  0.73760  Biso   1.000  H
  H86      1.0000 0.62910  0.69100  0.76240  Biso   1.000  H
  H87      1.0000 0.62910  0.80900  0.26240  Biso   1.000  H
  H88      1.0000 0.37090  0.30900  0.23760  Biso   1.000  H
  O17      1.0000 0.96204  0.95320  0.08807  Biso   1.000  O
  O18      1.0000 0.03796  0.45320  0.41193  Biso   1.000  O
  O19      1.0000 0.03796  0.04680  0.91193  Biso   1.000  O
  O20      1.0000 0.96204  0.54680  0.58807  Biso   1.000  O
  O21      1.0000 0.98881  0.28010  0.01252  Biso   1.000  O
  O22      1.0000 0.01119  0.78010  0.48748  Biso   1.000  O
  O23      1.0000 0.01119  0.71990  0.98748  Biso   1.000  O
  O24      1.0000 0.98881  0.21990  0.51252  Biso   1.000  O
  O25      1.0000 0.08913  0.04600  0.51740  Biso   1.000  O
  O26      1.0000 0.91087  0.54600  0.98260  Biso   1.000  O
  O27      1.0000 0.91087  0.95400  0.48260  Biso   1.000  O
  O28      1.0000 0.08913  0.45400  0.01740  Biso   1.000  O
  O29      1.0000 0.12242  0.22340  0.42570  Biso   1.000  O
  O30      1.0000 0.87758  0.72340  0.07430  Biso   1.000  O
  O31      1.0000 0.87758  0.77660  0.57430  Biso   1.000  O
  O32      1.0000 0.12242  0.27660  0.92570  Biso   1.000  O
  O33      1.0000 0.13667  0.92350  0.42720  Biso   1.000  O
  O34      1.0000 0.86333  0.42350  0.07280  Biso   1.000  O
  O35      1.0000 0.86333  0.07650  0.57280  Biso   1.000  O
  O36      1.0000 0.13667  0.57650  0.92720  Biso   1.000  O
  O37      1.0000 0.50730  0.68820  0.30520  Biso   1.000  O
  O38      1.0000 0.49270  0.18820  0.19480  Biso   1.000  O
  O39      1.0000 0.49270  0.31180  0.69480  Biso   1.000  O
  O40      1.0000 0.50730  0.81180  0.80520  Biso   1.000  O
  O41      1.0000 0.04200  0.55900  0.20900  Biso   1.000  O
  O42      1.0000 0.95800  0.05900  0.29100  Biso   1.000  O
  O43      1.0000 0.95800  0.44100  0.79100  Biso   1.000  O
  O44      1.0000 0.04200  0.94100  0.70900  Biso   1.000  O
  H89      1.0000 0.04570  0.56080  0.16360  Biso   1.000  H
  H90      1.0000 0.95430  0.06080  0.33640  Biso   1.000  H
  H91      1.0000 0.95430  0.43920  0.83640  Biso   1.000  H
  H92      1.0000 0.04570  0.93920  0.66360  Biso   1.000  H
  C97      1.0000 0.06209  0.70950  0.32698  Biso   1.000  C
  C98      1.0000 0.93791  0.20950  0.17302  Biso   1.000  C
  C99      1.0000 0.93791  0.29050  0.67302  Biso   1.000  C
  C100     1.0000 0.06209  0.79050  0.82698  Biso   1.000  C
  H93      1.0000 0.02340  0.73170  0.32740  Biso   1.000  H
  H94      1.0000 0.97660  0.23170  0.17260  Biso   1.000  H
  H95      1.0000 0.97660  0.26830  0.67260  Biso   1.000  H
  H96      1.0000 0.02340  0.76830  0.82740  Biso   1.000  H
  H97      1.0000 0.08640  0.79560  0.35610  Biso   1.000  H
  H98      1.0000 0.91360  0.29560  0.14390  Biso   1.000  H
  H99      1.0000 0.91360  0.20440  0.64390  Biso   1.000  H
  H100     1.0000 0.08640  0.70440  0.85610  Biso   1.000  H
  H101     1.0000 0.07350  0.60250  0.35120  Biso   1.000  H
  H102     1.0000 0.92650  0.10250  0.14880  Biso   1.000  H
  H103     1.0000 0.92650  0.39750  0.64880  Biso   1.000  H
  H104     1.0000 0.07350  0.89750  0.85120  Biso   1.000  H
  C101     1.0000 0.06630  0.70750  0.25010  Biso   1.000  C
  C102     1.0000 0.93370  0.20750  0.24990  Biso   1.000  C
  C103     1.0000 0.93370  0.29250  0.74990  Biso   1.000  C
  C104     1.0000 0.06630  0.79250  0.75010  Biso   1.000  C
  H105     1.0000 0.10610  0.71430  0.25010  Biso   1.000  H
  H106     1.0000 0.89390  0.21430  0.24990  Biso   1.000  H
  H107     1.0000 0.89390  0.28570  0.74990  Biso   1.000  H
  H108     1.0000 0.10610  0.78570  0.75010  Biso   1.000  H
  H109     1.0000 0.04700  0.80510  0.22230  Biso   1.000  H
  H110     1.0000 0.95300  0.30510  0.27770  Biso   1.000  H
  H111     1.0000 0.95300  0.19490  0.77770  Biso   1.000  H
  H112     1.0000 0.04700  0.69490  0.72230  Biso   1.000  H
  H113     1.0000 0.51770  0.76000  0.41200  Biso   1.000  H
  H114     1.0000 0.48230  0.26000  0.08800  Biso   1.000  H
  H115     1.0000 0.48230  0.24000  0.58800  Biso   1.000  H
  H116     1.0000 0.51770  0.74000  0.91200  Biso   1.000  H
  H117     1.0000 0.51820  0.70600  0.48400  Biso   1.000  H
  H118     1.0000 0.48180  0.20600  0.01600  Biso   1.000  H
  H119     1.0000 0.48180  0.29400  0.51600  Biso   1.000  H
  H120     1.0000 0.51820  0.79400  0.98400  Biso   1.000  H
  H121     1.0000 0.93600  0.87800  0.08300  Biso   1.000  H
  H122     1.0000 0.06400  0.37800  0.41700  Biso   1.000  H
  H123     1.0000 0.06400  0.12200  0.91700  Biso   1.000  H
  H124     1.0000 0.93600  0.62200  0.58300  Biso   1.000  H
  H125     1.0000 0.95300  0.00500  0.10500  Biso   1.000  H
  H126     1.0000 0.04700  0.50500  0.39500  Biso   1.000  H
  H127     1.0000 0.04700  0.99500  0.89500  Biso   1.000  H
  H128     1.0000 0.95300  0.49500  0.60500  Biso   1.000  H
  H129     1.0000 0.96520  0.33800  0.00200  Biso   1.000  H
  H130     1.0000 0.03480  0.83800  0.49800  Biso   1.000  H
  H131     1.0000 0.03480  0.66200  0.99800  Biso   1.000  H
  H132     1.0000 0.96520  0.16200  0.50200  Biso   1.000  H
  H133     1.0000 0.01700  0.32700  0.00900  Biso   1.000  H
  H134     1.0000 0.98300  0.82700  0.49100  Biso   1.000  H
  H135     1.0000 0.98300  0.67300  0.99100  Biso   1.000  H
  H136     1.0000 0.01700  0.17300  0.50900  Biso   1.000  H
  H137     1.0000 0.46830  0.65500  0.31180  Biso   1.000  H
  H138     1.0000 0.53170  0.15500  0.18820  Biso   1.000  H
  H139     1.0000 0.53170  0.34500  0.68820  Biso   1.000  H
  H140     1.0000 0.46830  0.84500  0.81180  Biso   1.000  H
  H141     1.0000 0.52090  0.71400  0.30900  Biso   1.000  H
  H142     1.0000 0.47910  0.21400  0.19100  Biso   1.000  H
  H143     1.0000 0.47910  0.28600  0.69100  Biso   1.000  H
  H144     1.0000 0.52090  0.78600  0.80900  Biso   1.000  H
