data_image0
_cell_length_a       11.649
_cell_length_b       11.86
_cell_length_c       7.944
_cell_angle_alpha    90
_cell_angle_beta     90
_cell_angle_gamma    90

_symmetry_space_group_name_H-M    "P 1"
_symmetry_int_tables_number       1

loop_
  _symmetry_equiv_pos_as_xyz
  'x, y, z'

loop_
  _atom_site_label
  _atom_site_occupancy
  _atom_site_fract_x
  _atom_site_fract_y
  _atom_site_fract_z
  _atom_site_thermal_displace_type
  _atom_site_B_iso_or_equiv
  _atom_site_type_symbol
  Cu1      1.0000 0.20150  0.31910  0.00000  Biso   1.000  Cu
  Cu2      1.0000 0.79850  0.68090  0.00000  Biso   1.000  Cu
  Cu3      1.0000 0.70150  0.18090  0.50000  Biso   1.000  Cu
  Cu4      1.0000 0.29850  0.81910  0.50000  Biso   1.000  Cu
  Fe1      1.0000 0.50000  0.00000  0.00000  Biso   1.000  Fe
  Fe2      1.0000 0.00000  0.50000  0.50000  Biso   1.000  Fe
  O1       1.0000 0.44790  0.64640  0.89790  Biso   1.000  O
  O2       1.0000 0.55210  0.35360  0.89790  Biso   1.000  O
  O3       1.0000 0.94790  0.85360  0.60210  Biso   1.000  O
  O4       1.0000 0.05210  0.14640  0.60210  Biso   1.000  O
  O5       1.0000 0.55210  0.35360  0.10210  Biso   1.000  O
  O6       1.0000 0.44790  0.64640  0.10210  Biso   1.000  O
  O7       1.0000 0.05210  0.14640  0.39790  Biso   1.000  O
  O8       1.0000 0.94790  0.85360  0.39790  Biso   1.000  O
  O9       1.0000 0.87170  0.05840  0.11050  Biso   1.000  O
  O10      1.0000 0.12830  0.94160  0.11050  Biso   1.000  O
  O11      1.0000 0.37170  0.44160  0.38950  Biso   1.000  O
  O12      1.0000 0.62830  0.55840  0.38950  Biso   1.000  O
  O13      1.0000 0.12830  0.94160  0.88950  Biso   1.000  O
  O14      1.0000 0.87170  0.05840  0.88950  Biso   1.000  O
  O15      1.0000 0.62830  0.55840  0.61050  Biso   1.000  O
  O16      1.0000 0.37170  0.44160  0.61050  Biso   1.000  O
  N1       1.0000 0.32970  0.19840  0.00000  Biso   1.000  N
  N2       1.0000 0.67030  0.80160  0.00000  Biso   1.000  N
  N3       1.0000 0.82970  0.30160  0.50000  Biso   1.000  N
  N4       1.0000 0.17030  0.69840  0.50000  Biso   1.000  N
  N5       1.0000 0.13570  0.38090  0.22210  Biso   1.000  N
  N6       1.0000 0.86430  0.61910  0.22210  Biso   1.000  N
  N7       1.0000 0.63570  0.11910  0.27790  Biso   1.000  N
  N8       1.0000 0.36430  0.88090  0.27790  Biso   1.000  N
  N9       1.0000 0.86430  0.61910  0.77790  Biso   1.000  N
  N10      1.0000 0.13570  0.38090  0.77790  Biso   1.000  N
  N11      1.0000 0.36430  0.88090  0.72210  Biso   1.000  N
  N12      1.0000 0.63570  0.11910  0.72210  Biso   1.000  N
  N13      1.0000 0.31890  0.44440  0.00000  Biso   1.000  N
  N14      1.0000 0.68110  0.55560  0.00000  Biso   1.000  N
  N15      1.0000 0.81890  0.05560  0.50000  Biso   1.000  N
  N16      1.0000 0.18110  0.94440  0.50000  Biso   1.000  N
  N17      1.0000 0.08570  0.19360  0.00000  Biso   1.000  N
  N18      1.0000 0.91430  0.80640  0.00000  Biso   1.000  N
  N19      1.0000 0.58570  0.30640  0.50000  Biso   1.000  N
  N20      1.0000 0.41430  0.69360  0.50000  Biso   1.000  N
  C1       1.0000 0.39200  0.12260  0.00000  Biso   1.000  C
  C2       1.0000 0.60800  0.87740  0.00000  Biso   1.000  C
  C3       1.0000 0.89200  0.37740  0.50000  Biso   1.000  C
  C4       1.0000 0.10800  0.62260  0.50000  Biso   1.000  C
  C5       1.0000 0.08550  0.42560  0.32760  Biso   1.000  C
  C6       1.0000 0.91450  0.57440  0.32760  Biso   1.000  C
  C7       1.0000 0.58550  0.07440  0.17240  Biso   1.000  C
  C8       1.0000 0.41450  0.92560  0.17240  Biso   1.000  C
  C9       1.0000 0.91450  0.57440  0.67240  Biso   1.000  C
  C10      1.0000 0.08550  0.42560  0.67240  Biso   1.000  C
  C11      1.0000 0.41450  0.92560  0.82760  Biso   1.000  C
  C12      1.0000 0.58550  0.07440  0.82760  Biso   1.000  C
  C13      1.0000 0.27620  0.56030  0.00000  Biso   1.000  C
  C14      1.0000 0.72380  0.43970  0.00000  Biso   1.000  C
  C15      1.0000 0.77620  0.93970  0.50000  Biso   1.000  C
  C16      1.0000 0.22380  0.06030  0.50000  Biso   1.000  C
  C17      1.0000 0.36310  0.64980  0.00000  Biso   1.000  C
  C18      1.0000 0.63690  0.35020  0.00000  Biso   1.000  C
  C19      1.0000 0.86310  0.85020  0.50000  Biso   1.000  C
  C20      1.0000 0.13690  0.14980  0.50000  Biso   1.000  C
  C21      1.0000 0.96270  0.22120  0.00000  Biso   1.000  C
  C22      1.0000 0.03730  0.77880  0.00000  Biso   1.000  C
  C23      1.0000 0.46270  0.27880  0.50000  Biso   1.000  C
  C24      1.0000 0.53730  0.72120  0.50000  Biso   1.000  C
  C25      1.0000 0.88580  0.11960  0.00000  Biso   1.000  C
  C26      1.0000 0.11420  0.88040  0.00000  Biso   1.000  C
  C27      1.0000 0.38580  0.38040  0.50000  Biso   1.000  C
  C28      1.0000 0.61420  0.61960  0.50000  Biso   1.000  C
