data_image0
_cell_length_a       12.1968
_cell_length_b       7.3733
_cell_length_c       23.0872
_cell_angle_alpha    90
_cell_angle_beta     97.221
_cell_angle_gamma    90

_symmetry_space_group_name_H-M    "P 1"
_symmetry_int_tables_number       1

loop_
  _symmetry_equiv_pos_as_xyz
  'x, y, z'

loop_
  _atom_site_label
  _atom_site_occupancy
  _atom_site_fract_x
  _atom_site_fract_y
  _atom_site_fract_z
  _atom_site_thermal_displace_type
  _atom_site_B_iso_or_equiv
  _atom_site_type_symbol
  Cs1      1.0000 0.28117  0.91605  0.24993  Biso   1.000  Cs
  Cs2      1.0000 0.21883  0.41605  0.25007  Biso   1.000  Cs
  Cs3      1.0000 0.71883  0.08395  0.75007  Biso   1.000  Cs
  Cs4      1.0000 0.78117  0.58395  0.74993  Biso   1.000  Cs
  Cu1      1.0000 0.99045  0.10047  0.19241  Biso   1.000  Cu
  Cu2      1.0000 0.50955  0.60047  0.30759  Biso   1.000  Cu
  Cu3      1.0000 0.00955  0.89953  0.80759  Biso   1.000  Cu
  Cu4      1.0000 0.49045  0.39953  0.69241  Biso   1.000  Cu
  O1       1.0000 0.33030  0.13640  0.14134  Biso   1.000  O
  O2       1.0000 0.16970  0.63640  0.35866  Biso   1.000  O
  O3       1.0000 0.66970  0.86360  0.85866  Biso   1.000  O
  O4       1.0000 0.83030  0.36360  0.64134  Biso   1.000  O
  O5       1.0000 0.12710  0.13110  0.16183  Biso   1.000  O
  O6       1.0000 0.37290  0.63110  0.33817  Biso   1.000  O
  O7       1.0000 0.87290  0.86890  0.83817  Biso   1.000  O
  O8       1.0000 0.62710  0.36890  0.66183  Biso   1.000  O
  O9       1.0000 0.07040  0.09870  0.26861  Biso   1.000  O
  O10      1.0000 0.42960  0.59870  0.23139  Biso   1.000  O
  O11      1.0000 0.92960  0.90130  0.73139  Biso   1.000  O
  O12      1.0000 0.57040  0.40130  0.76861  Biso   1.000  O
  O13      1.0000 0.21280  0.13670  0.36062  Biso   1.000  O
  O14      1.0000 0.28720  0.63670  0.13938  Biso   1.000  O
  O15      1.0000 0.78720  0.86330  0.63938  Biso   1.000  O
  O16      1.0000 0.71280  0.36330  0.86062  Biso   1.000  O
  O17      1.0000 0.45380  0.22620  0.29855  Biso   1.000  O
  O18      1.0000 0.04620  0.72620  0.20145  Biso   1.000  O
  O19      1.0000 0.54620  0.77380  0.70145  Biso   1.000  O
  O20      1.0000 0.95380  0.27380  0.79855  Biso   1.000  O
  O21      1.0000 0.54620  0.98750  0.28150  Biso   1.000  O
  O22      1.0000 0.95380  0.48750  0.21850  Biso   1.000  O
  O23      1.0000 0.45380  0.01250  0.71850  Biso   1.000  O
  O24      1.0000 0.04620  0.51250  0.78150  Biso   1.000  O
  O25      1.0000 0.60190  0.15490  0.35440  Biso   1.000  O
  O26      1.0000 0.89810  0.65490  0.14560  Biso   1.000  O
  O27      1.0000 0.39810  0.84510  0.64560  Biso   1.000  O
  O28      1.0000 0.10190  0.34510  0.85440  Biso   1.000  O
  N1       1.0000 0.90440  0.14860  0.11826  Biso   1.000  N
  N2       1.0000 0.59560  0.64860  0.38174  Biso   1.000  N
  N3       1.0000 0.09560  0.85140  0.88174  Biso   1.000  N
  N4       1.0000 0.40440  0.35140  0.61826  Biso   1.000  N
  N5       1.0000 0.85020  0.06370  0.22104  Biso   1.000  N
  N6       1.0000 0.64980  0.56370  0.27896  Biso   1.000  N
  N7       1.0000 0.14980  0.93630  0.77896  Biso   1.000  N
  N8       1.0000 0.35020  0.43630  0.72104  Biso   1.000  N
  N9       1.0000 0.53390  0.12240  0.31186  Biso   1.000  N
  N10      1.0000 0.96610  0.62240  0.18814  Biso   1.000  N
  N11      1.0000 0.46610  0.87760  0.68814  Biso   1.000  N
  N12      1.0000 0.03390  0.37760  0.81186  Biso   1.000  N
  C1       1.0000 0.44390  0.12940  0.13240  Biso   1.000  C
  C2       1.0000 0.05610  0.62940  0.36760  Biso   1.000  C
  C3       1.0000 0.55610  0.87060  0.86760  Biso   1.000  C
  C4       1.0000 0.94390  0.37060  0.63240  Biso   1.000  C
  H1       1.0000 0.46360  0.23970  0.11420  Biso   1.000  H
  H2       1.0000 0.03640  0.73970  0.38580  Biso   1.000  H
  H3       1.0000 0.53640  0.76030  0.88580  Biso   1.000  H
  H4       1.0000 0.96360  0.26030  0.61420  Biso   1.000  H
  H5       1.0000 0.45550  0.02840  0.10760  Biso   1.000  H
  H6       1.0000 0.04450  0.52840  0.39240  Biso   1.000  H
  H7       1.0000 0.54450  0.97160  0.89240  Biso   1.000  H
  H8       1.0000 0.95550  0.47160  0.60760  Biso   1.000  H
  H9       1.0000 0.48900  0.11530  0.16930  Biso   1.000  H
  H10      1.0000 0.01100  0.61530  0.33070  Biso   1.000  H
  H11      1.0000 0.51100  0.88470  0.83070  Biso   1.000  H
  H12      1.0000 0.98900  0.38470  0.66930  Biso   1.000  H
  C5       1.0000 0.25220  0.16110  0.09380  Biso   1.000  C
  C6       1.0000 0.24780  0.66110  0.40620  Biso   1.000  C
  C7       1.0000 0.74780  0.83890  0.90620  Biso   1.000  C
  C8       1.0000 0.75220  0.33890  0.59380  Biso   1.000  C
  C9       1.0000 0.27570  0.18660  0.03800  Biso   1.000  C
  C10      1.0000 0.22430  0.68660  0.46200  Biso   1.000  C
  C11      1.0000 0.72430  0.81340  0.96200  Biso   1.000  C
  C12      1.0000 0.77570  0.31340  0.53800  Biso   1.000  C
  H13      1.0000 0.34870  0.18390  0.03010  Biso   1.000  H
  H14      1.0000 0.15130  0.68390  0.46990  Biso   1.000  H
  H15      1.0000 0.65130  0.81610  0.96990  Biso   1.000  H
  H16      1.0000 0.84870  0.31610  0.53010  Biso   1.000  H
  C13      1.0000 0.18990  0.21660  0.99270  Biso   1.000  C
  C14      1.0000 0.31010  0.71660  0.50730  Biso   1.000  C
  C15      1.0000 0.81010  0.78340  0.00730  Biso   1.000  C
  C16      1.0000 0.68990  0.28340  0.49270  Biso   1.000  C
  H17      1.0000 0.20570  0.23710  0.95490  Biso   1.000  H
  H18      1.0000 0.29430  0.73710  0.54510  Biso   1.000  H
  H19      1.0000 0.79430  0.76290  0.04510  Biso   1.000  H
  H20      1.0000 0.70570  0.26290  0.45490  Biso   1.000  H
  C17      1.0000 0.08380  0.21570  0.00430  Biso   1.000  C
  C18      1.0000 0.41620  0.71570  0.49570  Biso   1.000  C
  C19      1.0000 0.91620  0.78430  0.99570  Biso   1.000  C
  C20      1.0000 0.58380  0.28430  0.50430  Biso   1.000  C
  H21      1.0000 0.02720  0.23490  0.97390  Biso   1.000  H
  H22      1.0000 0.47280  0.73490  0.52610  Biso   1.000  H
  H23      1.0000 0.97280  0.76510  0.02610  Biso   1.000  H
  H24      1.0000 0.52720  0.26510  0.47390  Biso   1.000  H
  C21      1.0000 0.05680  0.18640  0.06124  Biso   1.000  C
  C22      1.0000 0.44320  0.68640  0.43876  Biso   1.000  C
  C23      1.0000 0.94320  0.81360  0.93876  Biso   1.000  C
  C24      1.0000 0.55680  0.31360  0.56124  Biso   1.000  C
  C25      1.0000 0.14190  0.15830  0.10724  Biso   1.000  C
  C26      1.0000 0.35810  0.65830  0.39276  Biso   1.000  C
  C27      1.0000 0.85810  0.84170  0.89276  Biso   1.000  C
  C28      1.0000 0.64190  0.34170  0.60724  Biso   1.000  C
  C29      1.0000 0.94120  0.18520  0.07010  Biso   1.000  C
  C30      1.0000 0.55880  0.68520  0.42990  Biso   1.000  C
  C31      1.0000 0.05880  0.81480  0.92990  Biso   1.000  C
  C32      1.0000 0.44120  0.31480  0.57010  Biso   1.000  C
  H25      1.0000 0.88960  0.21340  0.03810  Biso   1.000  H
  H26      1.0000 0.61040  0.71340  0.46190  Biso   1.000  H
  H27      1.0000 0.11040  0.78660  0.96190  Biso   1.000  H
  H28      1.0000 0.38960  0.28660  0.53810  Biso   1.000  H
  C33      1.0000 0.78570  0.16430  0.12350  Biso   1.000  C
  C34      1.0000 0.71430  0.66430  0.37650  Biso   1.000  C
  C35      1.0000 0.21430  0.83570  0.87650  Biso   1.000  C
  C36      1.0000 0.28570  0.33570  0.62350  Biso   1.000  C
  H29      1.0000 0.74220  0.12800  0.08730  Biso   1.000  H
  H30      1.0000 0.75780  0.62800  0.41270  Biso   1.000  H
  H31      1.0000 0.25780  0.87200  0.91270  Biso   1.000  H
  H32      1.0000 0.24220  0.37200  0.58730  Biso   1.000  H
  H33      1.0000 0.76740  0.28890  0.13180  Biso   1.000  H
  H34      1.0000 0.73260  0.78890  0.36820  Biso   1.000  H
  H35      1.0000 0.23260  0.71110  0.86820  Biso   1.000  H
  H36      1.0000 0.26740  0.21110  0.63180  Biso   1.000  H
  C37      1.0000 0.76070  0.04130  0.17310  Biso   1.000  C
  C38      1.0000 0.73930  0.54130  0.32690  Biso   1.000  C
  C39      1.0000 0.23930  0.95870  0.82690  Biso   1.000  C
  C40      1.0000 0.26070  0.45870  0.67310  Biso   1.000  C
  H37      1.0000 0.69050  0.07430  0.18580  Biso   1.000  H
  H38      1.0000 0.80950  0.57430  0.31420  Biso   1.000  H
  H39      1.0000 0.30950  0.92570  0.81420  Biso   1.000  H
  H40      1.0000 0.19050  0.42570  0.68580  Biso   1.000  H
  H41      1.0000 0.75650  0.91600  0.16020  Biso   1.000  H
  H42      1.0000 0.74350  0.41600  0.33980  Biso   1.000  H
  H43      1.0000 0.24350  0.08400  0.83980  Biso   1.000  H
  H44      1.0000 0.25650  0.58400  0.66020  Biso   1.000  H
  C41      1.0000 0.83160  0.06890  0.27490  Biso   1.000  C
  C42      1.0000 0.66840  0.56890  0.22510  Biso   1.000  C
  C43      1.0000 0.16840  0.93110  0.72510  Biso   1.000  C
  C44      1.0000 0.33160  0.43110  0.77490  Biso   1.000  C
  H45      1.0000 0.75870  0.05910  0.28230  Biso   1.000  H
  H46      1.0000 0.74130  0.55910  0.21770  Biso   1.000  H
  H47      1.0000 0.24130  0.94090  0.71770  Biso   1.000  H
  H48      1.0000 0.25870  0.44090  0.78230  Biso   1.000  H
  C45      1.0000 0.91500  0.08870  0.32370  Biso   1.000  C
  C46      1.0000 0.58500  0.58870  0.17630  Biso   1.000  C
  C47      1.0000 0.08500  0.91130  0.67630  Biso   1.000  C
  C48      1.0000 0.41500  0.41130  0.82370  Biso   1.000  C
  C49      1.0000 0.88080  0.09590  0.38020  Biso   1.000  C
  C50      1.0000 0.61920  0.59590  0.11980  Biso   1.000  C
  C51      1.0000 0.11920  0.90410  0.61980  Biso   1.000  C
  C52      1.0000 0.38080  0.40410  0.88020  Biso   1.000  C
  H49      1.0000 0.80590  0.08840  0.38410  Biso   1.000  H
  H50      1.0000 0.69410  0.58840  0.11590  Biso   1.000  H
  H51      1.0000 0.19410  0.91160  0.61590  Biso   1.000  H
  H52      1.0000 0.30590  0.41160  0.88410  Biso   1.000  H
  C53      1.0000 0.95550  0.11340  0.42890  Biso   1.000  C
  C54      1.0000 0.54450  0.61340  0.07110  Biso   1.000  C
  C55      1.0000 0.04450  0.88660  0.57110  Biso   1.000  C
  C56      1.0000 0.45550  0.38660  0.92890  Biso   1.000  C
  H53      1.0000 0.93150  0.11520  0.46560  Biso   1.000  H
  H54      1.0000 0.56850  0.61520  0.03440  Biso   1.000  H
  H55      1.0000 0.06850  0.88480  0.53440  Biso   1.000  H
  H56      1.0000 0.43150  0.38480  0.96560  Biso   1.000  H
  C57      1.0000 0.06800  0.12860  0.42400  Biso   1.000  C
  C58      1.0000 0.43200  0.62860  0.07600  Biso   1.000  C
  C59      1.0000 0.93200  0.87140  0.57600  Biso   1.000  C
  C60      1.0000 0.56800  0.37140  0.92400  Biso   1.000  C
  H57      1.0000 0.11860  0.14200  0.45740  Biso   1.000  H
  H58      1.0000 0.38140  0.64200  0.04260  Biso   1.000  H
  H59      1.0000 0.88140  0.85800  0.54260  Biso   1.000  H
  H60      1.0000 0.61860  0.35800  0.95740  Biso   1.000  H
  C61      1.0000 0.10420  0.12370  0.37030  Biso   1.000  C
  C62      1.0000 0.39580  0.62370  0.12970  Biso   1.000  C
  C63      1.0000 0.89580  0.87630  0.62970  Biso   1.000  C
  C64      1.0000 0.60420  0.37630  0.87030  Biso   1.000  C
  C65      1.0000 0.02920  0.10310  0.31820  Biso   1.000  C
  C66      1.0000 0.47080  0.60310  0.18180  Biso   1.000  C
  C67      1.0000 0.97080  0.89690  0.68180  Biso   1.000  C
  C68      1.0000 0.52920  0.39690  0.81820  Biso   1.000  C
  C69      1.0000 0.29380  0.16590  0.41000  Biso   1.000  C
  C70      1.0000 0.20620  0.66590  0.09000  Biso   1.000  C
  C71      1.0000 0.70620  0.83410  0.59000  Biso   1.000  C
  C72      1.0000 0.79380  0.33410  0.91000  Biso   1.000  C
  H61      1.0000 0.29430  0.06460  0.43610  Biso   1.000  H
  H62      1.0000 0.20570  0.56460  0.06390  Biso   1.000  H
  H63      1.0000 0.70570  0.93540  0.56390  Biso   1.000  H
  H64      1.0000 0.79430  0.43540  0.93610  Biso   1.000  H
  H65      1.0000 0.27630  0.27450  0.42990  Biso   1.000  H
  H66      1.0000 0.22370  0.77450  0.07010  Biso   1.000  H
  H67      1.0000 0.72370  0.72550  0.57010  Biso   1.000  H
  H68      1.0000 0.77630  0.22550  0.92990  Biso   1.000  H
  H69      1.0000 0.36540  0.17830  0.39720  Biso   1.000  H
  H70      1.0000 0.13460  0.67830  0.10280  Biso   1.000  H
  H71      1.0000 0.63460  0.82170  0.60280  Biso   1.000  H
  H72      1.0000 0.86540  0.32170  0.89720  Biso   1.000  H
