data_image0
_cell_length_a       6.8904
_cell_length_b       14.073
_cell_length_c       20.1289
_cell_angle_alpha    91.332
_cell_angle_beta     91.223
_cell_angle_gamma    95.912

_symmetry_space_group_name_H-M    "P 1"
_symmetry_int_tables_number       1

loop_
  _symmetry_equiv_pos_as_xyz
  'x, y, z'

loop_
  _atom_site_label
  _atom_site_occupancy
  _atom_site_fract_x
  _atom_site_fract_y
  _atom_site_fract_z
  _atom_site_thermal_displace_type
  _atom_site_B_iso_or_equiv
  _atom_site_type_symbol
  C1       1.0000 0.68630  0.97542  0.30618  Biso   1.000  C
  C2       1.0000 0.31370  0.02458  0.69382  Biso   1.000  C
  H1       1.0000 0.56390  0.93330  0.30310  Biso   1.000  H
  H2       1.0000 0.43610  0.06670  0.69690  Biso   1.000  H
  H3       1.0000 0.69080  0.01360  0.34760  Biso   1.000  H
  H4       1.0000 0.30920  0.98640  0.65240  Biso   1.000  H
  H5       1.0000 0.79680  0.93680  0.30570  Biso   1.000  H
  H6       1.0000 0.20320  0.06320  0.69430  Biso   1.000  H
  C3       1.0000 0.69530  0.99693  0.18875  Biso   1.000  C
  C4       1.0000 0.30470  0.00307  0.81125  Biso   1.000  C
  C5       1.0000 0.67110  0.90129  0.17383  Biso   1.000  C
  C6       1.0000 0.32890  0.09871  0.82617  Biso   1.000  C
  H7       1.0000 0.65190  0.85690  0.20850  Biso   1.000  H
  H8       1.0000 0.34810  0.14310  0.79150  Biso   1.000  H
  C7       1.0000 0.67440  0.86796  0.10761  Biso   1.000  C
  C8       1.0000 0.32560  0.13204  0.89239  Biso   1.000  C
  H9       1.0000 0.65950  0.80130  0.09760  Biso   1.000  H
  H10      1.0000 0.34050  0.19870  0.90240  Biso   1.000  H
  C9       1.0000 0.69910  0.93173  0.05753  Biso   1.000  C
  C10      1.0000 0.30090  0.06827  0.94247  Biso   1.000  C
  H11      1.0000 0.69960  0.90880  0.01280  Biso   1.000  H
  H12      1.0000 0.30040  0.09120  0.98720  Biso   1.000  H
  C11      1.0000 0.72370  0.03044  0.07123  Biso   1.000  C
  C12      1.0000 0.27630  0.96956  0.92877  Biso   1.000  C
  C13      1.0000 0.72210  0.06609  0.13763  Biso   1.000  C
  C14      1.0000 0.27790  0.93391  0.86237  Biso   1.000  C
  C15      1.0000 0.75620  0.09450  0.01613  Biso   1.000  C
  C16      1.0000 0.24380  0.90550  0.98387  Biso   1.000  C
  H13      1.0000 0.75970  0.06590  0.97300  Biso   1.000  H
  H14      1.0000 0.24030  0.93410  0.02700  Biso   1.000  H
  C17      1.0000 0.81670  0.24185  0.96069  Biso   1.000  C
  C18      1.0000 0.18330  0.75815  0.03931  Biso   1.000  C
  H15      1.0000 0.76390  0.20500  0.92070  Biso   1.000  H
  H16      1.0000 0.23610  0.79500  0.07930  Biso   1.000  H
  H17      1.0000 0.95870  0.25800  0.95550  Biso   1.000  H
  H18      1.0000 0.04130  0.74200  0.04450  Biso   1.000  H
  C19      1.0000 0.71670  0.33246  0.96872  Biso   1.000  C
  C20      1.0000 0.28330  0.66754  0.03128  Biso   1.000  C
  H19      1.0000 0.77140  0.38100  0.93750  Biso   1.000  H
  H20      1.0000 0.22860  0.61900  0.06250  Biso   1.000  H
  H21      1.0000 0.57510  0.31870  0.95880  Biso   1.000  H
  H22      1.0000 0.42490  0.68130  0.04120  Biso   1.000  H
  C21      1.0000 0.76000  0.45756  0.05106  Biso   1.000  C
  C22      1.0000 0.24000  0.54244  0.94894  Biso   1.000  C
  H23      1.0000 0.75630  0.49980  0.01500  Biso   1.000  H
  H24      1.0000 0.24370  0.50020  0.98500  Biso   1.000  H
  C23      1.0000 0.77740  0.49960  0.11775  Biso   1.000  C
  C24      1.0000 0.22260  0.50040  0.88225  Biso   1.000  C
  C25      1.0000 0.80090  0.59957  0.12395  Biso   1.000  C
  C26      1.0000 0.19910  0.40043  0.87605  Biso   1.000  C
  H25      1.0000 0.80540  0.63640  0.08500  Biso   1.000  H
  H26      1.0000 0.19460  0.36360  0.91500  Biso   1.000  H
  C27      1.0000 0.81760  0.64563  0.18522  Biso   1.000  C
  C28      1.0000 0.18240  0.35437  0.81478  Biso   1.000  C
  H27      1.0000 0.83620  0.71340  0.18850  Biso   1.000  H
  H28      1.0000 0.16380  0.28660  0.81150  Biso   1.000  H
  C29      1.0000 0.80660  0.59085  0.24297  Biso   1.000  C
  C30      1.0000 0.19340  0.40915  0.75703  Biso   1.000  C
  H29      1.0000 0.81770  0.62180  0.28550  Biso   1.000  H
  H30      1.0000 0.18230  0.37820  0.71450  Biso   1.000  H
  C31      1.0000 0.78030  0.49358  0.23805  Biso   1.000  C
  C32      1.0000 0.21970  0.50642  0.76195  Biso   1.000  C
  C33      1.0000 0.76660  0.44260  0.17523  Biso   1.000  C
  C34      1.0000 0.23340  0.55740  0.82477  Biso   1.000  C
  C35      1.0000 0.77790  0.47779  0.35636  Biso   1.000  C
  C36      1.0000 0.22210  0.52221  0.64364  Biso   1.000  C
  H31      1.0000 0.90550  0.51500  0.36260  Biso   1.000  H
  H32      1.0000 0.09450  0.48500  0.63740  Biso   1.000  H
  H33      1.0000 0.76310  0.42820  0.38980  Biso   1.000  H
  H34      1.0000 0.23690  0.57180  0.61020  Biso   1.000  H
  H35      1.0000 0.67460  0.52020  0.36130  Biso   1.000  H
  H36      1.0000 0.32540  0.47980  0.63870  Biso   1.000  H
  C37      1.0000 0.19300  0.00495  0.14944  Biso   1.000  C
  C38      1.0000 0.80700  0.99505  0.85056  Biso   1.000  C
  H37      1.0000 0.30350  0.96680  0.14520  Biso   1.000  H
  H38      1.0000 0.69650  0.03320  0.85480  Biso   1.000  H
  H39      1.0000 0.20200  0.05480  0.11610  Biso   1.000  H
  H40      1.0000 0.79800  0.94520  0.88390  Biso   1.000  H
  H41      1.0000 0.07060  0.96350  0.14240  Biso   1.000  H
  H42      1.0000 0.92940  0.03650  0.85760  Biso   1.000  H
  C39      1.0000 0.19010  0.98958  0.26741  Biso   1.000  C
  C40      1.0000 0.80990  0.01042  0.73259  Biso   1.000  C
  C41      1.0000 0.15830  0.89203  0.26425  Biso   1.000  C
  C42      1.0000 0.84170  0.10797  0.73575  Biso   1.000  C
  H43      1.0000 0.13870  0.85980  0.22230  Biso   1.000  H
  H44      1.0000 0.86130  0.14020  0.77770  Biso   1.000  H
  C43      1.0000 0.15430  0.83904  0.32281  Biso   1.000  C
  C44      1.0000 0.84570  0.16096  0.67719  Biso   1.000  C
  H45      1.0000 0.13090  0.77130  0.32060  Biso   1.000  H
  H46      1.0000 0.86910  0.22870  0.67940  Biso   1.000  H
  C45      1.0000 0.18450  0.88618  0.38287  Biso   1.000  C
  C46      1.0000 0.81550  0.11382  0.61713  Biso   1.000  C
  H47      1.0000 0.18420  0.85020  0.42220  Biso   1.000  H
  H48      1.0000 0.81580  0.14980  0.57780  Biso   1.000  H
  C47      1.0000 0.21590  0.98606  0.38807  Biso   1.000  C
  C48      1.0000 0.78410  0.01394  0.61193  Biso   1.000  C
  C49      1.0000 0.22010  0.04109  0.32954  Biso   1.000  C
  C50      1.0000 0.77990  0.95891  0.67046  Biso   1.000  C
  C51      1.0000 0.24730  0.03059  0.45299  Biso   1.000  C
  C52      1.0000 0.75270  0.96941  0.54701  Biso   1.000  C
  H49      1.0000 0.24420  0.98960  0.48990  Biso   1.000  H
  H50      1.0000 0.75580  0.01040  0.51010  Biso   1.000  H
  C53      1.0000 0.31030  0.15860  0.53396  Biso   1.000  C
  C54      1.0000 0.68970  0.84140  0.46604  Biso   1.000  C
  H51      1.0000 0.45180  0.17120  0.54440  Biso   1.000  H
  H52      1.0000 0.54820  0.82880  0.45560  Biso   1.000  H
  H53      1.0000 0.25250  0.11150  0.56570  Biso   1.000  H
  H54      1.0000 0.74750  0.88850  0.43430  Biso   1.000  H
  C55      1.0000 0.21470  0.25020  0.54006  Biso   1.000  C
  C56      1.0000 0.78530  0.74980  0.45994  Biso   1.000  C
  H55      1.0000 0.07250  0.23550  0.54580  Biso   1.000  H
  H56      1.0000 0.92750  0.76450  0.45420  Biso   1.000  H
  H57      1.0000 0.26940  0.28820  0.57940  Biso   1.000  H
  H58      1.0000 0.73060  0.71180  0.42060  Biso   1.000  H
  C57      1.0000 0.25800  0.39546  0.48083  Biso   1.000  C
  C58      1.0000 0.74200  0.60454  0.51917  Biso   1.000  C
  H59      1.0000 0.25000  0.42610  0.52310  Biso   1.000  H
  H60      1.0000 0.75000  0.57390  0.47690  Biso   1.000  H
  C59      1.0000 0.27720  0.45586  0.42415  Biso   1.000  C
  C60      1.0000 0.72280  0.54414  0.57585  Biso   1.000  C
  C61      1.0000 0.29890  0.55530  0.43625  Biso   1.000  C
  C62      1.0000 0.70110  0.44470  0.56375  Biso   1.000  C
  H61      1.0000 0.30320  0.57960  0.48080  Biso   1.000  H
  H62      1.0000 0.69680  0.42040  0.51920  Biso   1.000  H
  C63      1.0000 0.31410  0.61777  0.38497  Biso   1.000  C
  C64      1.0000 0.68590  0.38223  0.61503  Biso   1.000  C
  H63      1.0000 0.33090  0.68470  0.39390  Biso   1.000  H
  H64      1.0000 0.66910  0.31530  0.60610  Biso   1.000  H
  C65      1.0000 0.30470  0.58213  0.31891  Biso   1.000  C
  C66      1.0000 0.69530  0.41787  0.68109  Biso   1.000  C
  H65      1.0000 0.31560  0.62500  0.28310  Biso   1.000  H
  H66      1.0000 0.68440  0.37500  0.71690  Biso   1.000  H
  C67      1.0000 0.27980  0.48578  0.30638  Biso   1.000  C
  C68      1.0000 0.72020  0.51422  0.69362  Biso   1.000  C
  C69      1.0000 0.26840  0.41814  0.35841  Biso   1.000  C
  C70      1.0000 0.73160  0.58186  0.64159  Biso   1.000  C
  C71      1.0000 0.27900  0.50642  0.18808  Biso   1.000  C
  C72      1.0000 0.72100  0.49358  0.81192  Biso   1.000  C
  H67      1.0000 0.17410  0.54840  0.18950  Biso   1.000  H
  H68      1.0000 0.82590  0.45160  0.81050  Biso   1.000  H
  H69      1.0000 0.26760  0.46830  0.14660  Biso   1.000  H
  H70      1.0000 0.73240  0.53170  0.85340  Biso   1.000  H
  H71      1.0000 0.40560  0.54520  0.19040  Biso   1.000  H
  H72      1.0000 0.59440  0.45480  0.80960  Biso   1.000  H
  Cu1      1.0000 0.75900  0.26530  0.09954  Biso   1.000  Cu
  Cu2      1.0000 0.24100  0.73470  0.90046  Biso   1.000  Cu
  Cu3      1.0000 0.26550  0.22263  0.40147  Biso   1.000  Cu
  Cu4      1.0000 0.73450  0.77737  0.59853  Biso   1.000  Cu
  Li1      1.0000 0.69680  0.29270  0.26870  Biso   1.000  Li
  Li2      1.0000 0.30320  0.70730  0.73130  Biso   1.000  Li
  Li3      1.0000 0.19490  0.29860  0.24030  Biso   1.000  Li
  Li4      1.0000 0.80510  0.70140  0.75970  Biso   1.000  Li
  N1       1.0000 0.74910  0.36825  0.03729  Biso   1.000  N
  N2       1.0000 0.25090  0.63175  0.96271  Biso   1.000  N
  N3       1.0000 0.78030  0.18510  0.02025  Biso   1.000  N
  N4       1.0000 0.21970  0.81490  0.97975  Biso   1.000  N
  N5       1.0000 0.27910  0.12039  0.46551  Biso   1.000  N
  N6       1.0000 0.72090  0.87961  0.53449  Biso   1.000  N
  N7       1.0000 0.25080  0.30485  0.47951  Biso   1.000  N
  N8       1.0000 0.74920  0.69515  0.52049  Biso   1.000  N
  N9       1.0000 0.25630  0.28155  0.08563  Biso   1.000  N
  N10      1.0000 0.74370  0.71845  0.91437  Biso   1.000  N
  N11      1.0000 0.75310  0.22256  0.41638  Biso   1.000  N
  N12      1.0000 0.24690  0.77744  0.58362  Biso   1.000  N
  O1       1.0000 0.76380  0.43391  0.29115  Biso   1.000  O
  O2       1.0000 0.23620  0.56609  0.70885  Biso   1.000  O
  O3       1.0000 0.74220  0.34987  0.17562  Biso   1.000  O
  O4       1.0000 0.25780  0.65013  0.82438  Biso   1.000  O
  O5       1.0000 0.74660  0.15618  0.15513  Biso   1.000  O
  O6       1.0000 0.25340  0.84382  0.84487  Biso   1.000  O
  O7       1.0000 0.69730  0.03742  0.25105  Biso   1.000  O
  O8       1.0000 0.30270  0.96258  0.74895  Biso   1.000  O
  O9       1.0000 0.19700  0.04820  0.21427  Biso   1.000  O
  O10      1.0000 0.80300  0.95180  0.78573  Biso   1.000  O
  O11      1.0000 0.25210  0.13309  0.32840  Biso   1.000  O
  O12      1.0000 0.74790  0.86691  0.67160  Biso   1.000  O
  O13      1.0000 0.24620  0.32759  0.34166  Biso   1.000  O
  O14      1.0000 0.75380  0.67241  0.65834  Biso   1.000  O
  O15      1.0000 0.26360  0.44387  0.24358  Biso   1.000  O
  O16      1.0000 0.73640  0.55613  0.75642  Biso   1.000  O
  O17      1.0000 0.14060  0.29372  0.13182  Biso   1.000  O
  O18      1.0000 0.85940  0.70628  0.86818  Biso   1.000  O
  O19      1.0000 0.37790  0.22167  0.09148  Biso   1.000  O
  O20      1.0000 0.62210  0.77833  0.90852  Biso   1.000  O
  O21      1.0000 0.24940  0.32867  0.03477  Biso   1.000  O
  O22      1.0000 0.75060  0.67133  0.96523  Biso   1.000  O
  O23      1.0000 0.64490  0.25503  0.37346  Biso   1.000  O
  O24      1.0000 0.35510  0.74497  0.62654  Biso   1.000  O
  O25      1.0000 0.73410  0.24318  0.47565  Biso   1.000  O
  O26      1.0000 0.26590  0.75682  0.52435  Biso   1.000  O
  O27      1.0000 0.87950  0.16989  0.39918  Biso   1.000  O
  O28      1.0000 0.12050  0.83011  0.60082  Biso   1.000  O
  O29      1.0000 0.43910  0.23536  0.23638  Biso   1.000  O
  O30      1.0000 0.56090  0.76464  0.76362  Biso   1.000  O
  O31      1.0000 0.94110  0.23068  0.26167  Biso   1.000  O
  O32      1.0000 0.05890  0.76932  0.73833  Biso   1.000  O
  H73      1.0000 0.45300  0.21600  0.20160  Biso   1.000  H
  H74      1.0000 0.54700  0.78400  0.79840  Biso   1.000  H
  H75      1.0000 0.40900  0.19100  0.25860  Biso   1.000  H
  H76      1.0000 0.59100  0.80900  0.74140  Biso   1.000  H
  H77      1.0000 0.96300  0.20300  0.29180  Biso   1.000  H
  H78      1.0000 0.03700  0.79700  0.70820  Biso   1.000  H
  H79      1.0000 0.89600  0.19700  0.23260  Biso   1.000  H
  H80      1.0000 0.10400  0.80300  0.76740  Biso   1.000  H
