data_image0
_cell_length_a       12.5138
_cell_length_b       7.0649
_cell_length_c       22.6873
_cell_angle_alpha    90
_cell_angle_beta     99.936
_cell_angle_gamma    90

_symmetry_space_group_name_H-M    "P 1"
_symmetry_int_tables_number       1

loop_
  _symmetry_equiv_pos_as_xyz
  'x, y, z'

loop_
  _atom_site_label
  _atom_site_occupancy
  _atom_site_fract_x
  _atom_site_fract_y
  _atom_site_fract_z
  _atom_site_thermal_displace_type
  _atom_site_B_iso_or_equiv
  _atom_site_type_symbol
  C1       1.0000 0.03800  0.63540  0.35115  Biso   1.000  C
  C2       1.0000 0.46200  0.13540  0.14885  Biso   1.000  C
  C3       1.0000 0.96200  0.36460  0.64885  Biso   1.000  C
  C4       1.0000 0.53800  0.86460  0.85115  Biso   1.000  C
  H1       1.0000 0.02430  0.52520  0.37500  Biso   1.000  H
  H2       1.0000 0.47570  0.02520  0.12500  Biso   1.000  H
  H3       1.0000 0.97570  0.47480  0.62500  Biso   1.000  H
  H4       1.0000 0.52430  0.97480  0.87500  Biso   1.000  H
  H5       1.0000 0.99630  0.62320  0.31060  Biso   1.000  H
  H6       1.0000 0.50370  0.12320  0.18940  Biso   1.000  H
  H7       1.0000 0.00370  0.37680  0.68940  Biso   1.000  H
  H8       1.0000 0.49630  0.87680  0.81060  Biso   1.000  H
  H9       1.0000 0.01590  0.75080  0.36980  Biso   1.000  H
  H10      1.0000 0.48410  0.25080  0.13020  Biso   1.000  H
  H11      1.0000 0.98410  0.24920  0.63020  Biso   1.000  H
  H12      1.0000 0.51590  0.74920  0.86980  Biso   1.000  H
  C5       1.0000 0.22280  0.66390  0.40147  Biso   1.000  C
  C6       1.0000 0.27720  0.16390  0.09853  Biso   1.000  C
  C7       1.0000 0.77720  0.33610  0.59853  Biso   1.000  C
  C8       1.0000 0.72280  0.83610  0.90147  Biso   1.000  C
  C9       1.0000 0.19400  0.66390  0.45725  Biso   1.000  C
  C10      1.0000 0.30600  0.16390  0.04275  Biso   1.000  C
  C11      1.0000 0.80600  0.33610  0.54275  Biso   1.000  C
  C12      1.0000 0.69400  0.83610  0.95725  Biso   1.000  C
  H13      1.0000 0.11990  0.65100  0.46100  Biso   1.000  H
  H14      1.0000 0.38010  0.15100  0.03900  Biso   1.000  H
  H15      1.0000 0.88010  0.34900  0.53900  Biso   1.000  H
  H16      1.0000 0.61990  0.84900  0.96100  Biso   1.000  H
  C13      1.0000 0.27340  0.68290  0.50865  Biso   1.000  C
  C14      1.0000 0.22660  0.18290  0.99135  Biso   1.000  C
  C15      1.0000 0.72660  0.31710  0.49135  Biso   1.000  C
  C16      1.0000 0.77340  0.81710  0.00865  Biso   1.000  C
  H17      1.0000 0.25320  0.68270  0.54710  Biso   1.000  H
  H18      1.0000 0.24680  0.18270  0.95290  Biso   1.000  H
  H19      1.0000 0.74680  0.31730  0.45290  Biso   1.000  H
  H20      1.0000 0.75320  0.81730  0.04710  Biso   1.000  H
  C17      1.0000 0.38020  0.70180  0.50320  Biso   1.000  C
  C18      1.0000 0.11980  0.20180  0.99680  Biso   1.000  C
  C19      1.0000 0.61980  0.29820  0.49680  Biso   1.000  C
  C20      1.0000 0.88020  0.79820  0.00320  Biso   1.000  C
  H21      1.0000 0.43370  0.71500  0.53810  Biso   1.000  H
  H22      1.0000 0.06630  0.21500  0.96190  Biso   1.000  H
  H23      1.0000 0.56630  0.28500  0.46190  Biso   1.000  H
  H24      1.0000 0.93370  0.78500  0.03810  Biso   1.000  H
  C21      1.0000 0.41190  0.70200  0.44650  Biso   1.000  C
  C22      1.0000 0.08810  0.20200  0.05350  Biso   1.000  C
  C23      1.0000 0.58810  0.29800  0.55350  Biso   1.000  C
  C24      1.0000 0.91190  0.79800  0.94650  Biso   1.000  C
  C25      1.0000 0.33320  0.68340  0.39385  Biso   1.000  C
  C26      1.0000 0.16680  0.18340  0.10615  Biso   1.000  C
  C27      1.0000 0.66680  0.31660  0.60615  Biso   1.000  C
  C28      1.0000 0.83320  0.81660  0.89385  Biso   1.000  C
  C29      1.0000 0.52580  0.72740  0.44454  Biso   1.000  C
  C30      1.0000 0.97420  0.22740  0.05546  Biso   1.000  C
  C31      1.0000 0.47420  0.27260  0.55546  Biso   1.000  C
  C32      1.0000 0.02580  0.77260  0.94454  Biso   1.000  C
  H25      1.0000 0.57330  0.74330  0.48170  Biso   1.000  H
  H26      1.0000 0.92670  0.24330  0.01830  Biso   1.000  H
  H27      1.0000 0.42670  0.25670  0.51830  Biso   1.000  H
  H28      1.0000 0.07330  0.75670  0.98170  Biso   1.000  H
  C33      1.0000 0.68510  0.76270  0.39979  Biso   1.000  C
  C34      1.0000 0.81490  0.26270  0.10021  Biso   1.000  C
  C35      1.0000 0.31490  0.23730  0.60021  Biso   1.000  C
  C36      1.0000 0.18510  0.73730  0.89979  Biso   1.000  C
  H29      1.0000 0.72580  0.72150  0.43900  Biso   1.000  H
  H30      1.0000 0.77420  0.22150  0.06100  Biso   1.000  H
  H31      1.0000 0.27420  0.27850  0.56100  Biso   1.000  H
  H32      1.0000 0.22580  0.77850  0.93900  Biso   1.000  H
  H33      1.0000 0.69930  0.89910  0.39470  Biso   1.000  H
  H34      1.0000 0.80070  0.39910  0.10530  Biso   1.000  H
  H35      1.0000 0.30070  0.10090  0.60530  Biso   1.000  H
  H36      1.0000 0.19930  0.60090  0.89470  Biso   1.000  H
  C37      1.0000 0.72110  0.64960  0.34990  Biso   1.000  C
  C38      1.0000 0.77890  0.14960  0.15010  Biso   1.000  C
  C39      1.0000 0.27890  0.35040  0.65010  Biso   1.000  C
  C40      1.0000 0.22110  0.85040  0.84990  Biso   1.000  C
  H37      1.0000 0.79030  0.70090  0.34110  Biso   1.000  H
  H38      1.0000 0.70970  0.20090  0.15890  Biso   1.000  H
  H39      1.0000 0.20970  0.29910  0.65890  Biso   1.000  H
  H40      1.0000 0.29030  0.79910  0.84110  Biso   1.000  H
  H41      1.0000 0.73300  0.51580  0.36230  Biso   1.000  H
  H42      1.0000 0.76700  0.01580  0.13770  Biso   1.000  H
  H43      1.0000 0.26700  0.48420  0.63770  Biso   1.000  H
  H44      1.0000 0.23300  0.98420  0.86230  Biso   1.000  H
  C41      1.0000 0.65970  0.65090  0.24358  Biso   1.000  C
  C42      1.0000 0.84030  0.15090  0.25642  Biso   1.000  C
  C43      1.0000 0.34030  0.34910  0.75642  Biso   1.000  C
  C44      1.0000 0.15970  0.84910  0.74358  Biso   1.000  C
  H45      1.0000 0.73420  0.64590  0.24010  Biso   1.000  H
  H46      1.0000 0.76580  0.14590  0.25990  Biso   1.000  H
  H47      1.0000 0.26580  0.35410  0.75990  Biso   1.000  H
  H48      1.0000 0.23420  0.85410  0.74010  Biso   1.000  H
  C45      1.0000 0.58070  0.64620  0.18877  Biso   1.000  C
  C46      1.0000 0.91930  0.14620  0.31123  Biso   1.000  C
  C47      1.0000 0.41930  0.35380  0.81123  Biso   1.000  C
  C48      1.0000 0.08070  0.85380  0.68877  Biso   1.000  C
  C49      1.0000 0.61900  0.64300  0.13401  Biso   1.000  C
  C50      1.0000 0.88100  0.14300  0.36599  Biso   1.000  C
  C51      1.0000 0.38100  0.35700  0.86599  Biso   1.000  C
  C52      1.0000 0.11900  0.85700  0.63401  Biso   1.000  C
  H49      1.0000 0.69490  0.64470  0.13420  Biso   1.000  H
  H50      1.0000 0.80510  0.14470  0.36580  Biso   1.000  H
  H51      1.0000 0.30510  0.35530  0.86580  Biso   1.000  H
  H52      1.0000 0.19490  0.85530  0.63420  Biso   1.000  H
  C53      1.0000 0.54900  0.63740  0.08038  Biso   1.000  C
  C54      1.0000 0.95100  0.13740  0.41962  Biso   1.000  C
  C55      1.0000 0.45100  0.36260  0.91962  Biso   1.000  C
  C56      1.0000 0.04900  0.86260  0.58038  Biso   1.000  C
  H53      1.0000 0.57650  0.63570  0.04390  Biso   1.000  H
  H54      1.0000 0.92350  0.13570  0.45610  Biso   1.000  H
  H55      1.0000 0.42350  0.36430  0.95610  Biso   1.000  H
  H56      1.0000 0.07650  0.86430  0.54390  Biso   1.000  H
  C57      1.0000 0.43660  0.63410  0.07961  Biso   1.000  C
  C58      1.0000 0.06340  0.13410  0.42039  Biso   1.000  C
  C59      1.0000 0.56340  0.36590  0.92039  Biso   1.000  C
  C60      1.0000 0.93660  0.86590  0.57961  Biso   1.000  C
  H57      1.0000 0.38780  0.62900  0.04260  Biso   1.000  H
  H58      1.0000 0.11220  0.12900  0.45740  Biso   1.000  H
  H59      1.0000 0.61220  0.37100  0.95740  Biso   1.000  H
  H60      1.0000 0.88780  0.87100  0.54260  Biso   1.000  H
  C61      1.0000 0.39750  0.63840  0.13249  Biso   1.000  C
  C62      1.0000 0.10250  0.13840  0.36751  Biso   1.000  C
  C63      1.0000 0.60250  0.36160  0.86751  Biso   1.000  C
  C64      1.0000 0.89750  0.86160  0.63249  Biso   1.000  C
  C65      1.0000 0.46780  0.64200  0.18899  Biso   1.000  C
  C66      1.0000 0.03220  0.14200  0.31101  Biso   1.000  C
  C67      1.0000 0.53220  0.35800  0.81101  Biso   1.000  C
  C68      1.0000 0.96780  0.85800  0.68899  Biso   1.000  C
  C69      1.0000 0.21290  0.65650  0.08299  Biso   1.000  C
  C70      1.0000 0.28710  0.15650  0.41701  Biso   1.000  C
  C71      1.0000 0.78710  0.34350  0.91701  Biso   1.000  C
  C72      1.0000 0.71290  0.84350  0.58299  Biso   1.000  C
  H61      1.0000 0.22740  0.77410  0.06280  Biso   1.000  H
  H62      1.0000 0.27260  0.27410  0.43720  Biso   1.000  H
  H63      1.0000 0.77260  0.22590  0.93720  Biso   1.000  H
  H64      1.0000 0.72740  0.72590  0.56280  Biso   1.000  H
  H65      1.0000 0.13930  0.66050  0.09230  Biso   1.000  H
  H66      1.0000 0.36070  0.16050  0.40770  Biso   1.000  H
  H67      1.0000 0.86070  0.33950  0.90770  Biso   1.000  H
  H68      1.0000 0.63930  0.83950  0.59230  Biso   1.000  H
  H69      1.0000 0.21940  0.54860  0.05670  Biso   1.000  H
  H70      1.0000 0.28060  0.04860  0.44330  Biso   1.000  H
  H71      1.0000 0.78060  0.45140  0.94330  Biso   1.000  H
  H72      1.0000 0.71940  0.95140  0.55670  Biso   1.000  H
  Cu1      1.0000 0.49368  0.68150  0.31688  Biso   1.000  Cu
  Cu2      1.0000 0.00632  0.18150  0.18312  Biso   1.000  Cu
  Cu3      1.0000 0.50632  0.31850  0.68312  Biso   1.000  Cu
  Cu4      1.0000 0.99368  0.81850  0.81688  Biso   1.000  Cu
  N1       1.0000 0.56806  0.73010  0.39711  Biso   1.000  N
  N2       1.0000 0.93194  0.23010  0.10289  Biso   1.000  N
  N3       1.0000 0.43194  0.26990  0.60289  Biso   1.000  N
  N4       1.0000 0.06806  0.76990  0.89711  Biso   1.000  N
  N5       1.0000 0.63685  0.66130  0.29616  Biso   1.000  N
  N6       1.0000 0.86315  0.16130  0.20384  Biso   1.000  N
  N7       1.0000 0.36315  0.33870  0.70384  Biso   1.000  N
  N8       1.0000 0.13685  0.83870  0.79616  Biso   1.000  N
  N9       1.0000 0.51591  0.17900  0.31823  Biso   1.000  N
  N10      1.0000 0.98409  0.67900  0.18177  Biso   1.000  N
  N11      1.0000 0.48409  0.82100  0.68177  Biso   1.000  N
  N12      1.0000 0.01591  0.32100  0.81823  Biso   1.000  N
  O1       1.0000 0.15202  0.64550  0.34829  Biso   1.000  O
  O2       1.0000 0.34798  0.14550  0.15171  Biso   1.000  O
  O3       1.0000 0.84798  0.35450  0.65171  Biso   1.000  O
  O4       1.0000 0.65202  0.85450  0.84829  Biso   1.000  O
  O5       1.0000 0.35342  0.68270  0.33950  Biso   1.000  O
  O6       1.0000 0.14658  0.18270  0.16050  Biso   1.000  O
  O7       1.0000 0.64658  0.31730  0.66050  Biso   1.000  O
  O8       1.0000 0.85342  0.81730  0.83950  Biso   1.000  O
  O9       1.0000 0.42269  0.64230  0.23684  Biso   1.000  O
  O10      1.0000 0.07731  0.14230  0.26316  Biso   1.000  O
  O11      1.0000 0.57731  0.35770  0.76316  Biso   1.000  O
  O12      1.0000 0.92269  0.85770  0.73684  Biso   1.000  O
  O13      1.0000 0.28961  0.63670  0.13719  Biso   1.000  O
  O14      1.0000 0.21039  0.13670  0.36281  Biso   1.000  O
  O15      1.0000 0.71039  0.36330  0.86281  Biso   1.000  O
  O16      1.0000 0.78961  0.86330  0.63719  Biso   1.000  O
  O17      1.0000 0.48700  0.32010  0.34519  Biso   1.000  O
  O18      1.0000 0.01300  0.82010  0.15481  Biso   1.000  O
  O19      1.0000 0.51300  0.67990  0.65481  Biso   1.000  O
  O20      1.0000 0.98700  0.17990  0.84519  Biso   1.000  O
  O21      1.0000 0.61195  0.15230  0.31639  Biso   1.000  O
  O22      1.0000 0.88805  0.65230  0.18361  Biso   1.000  O
  O23      1.0000 0.38805  0.84770  0.68361  Biso   1.000  O
  O24      1.0000 0.11195  0.34770  0.81639  Biso   1.000  O
  O25      1.0000 0.44569  0.06800  0.29384  Biso   1.000  O
  O26      1.0000 0.05431  0.56800  0.20616  Biso   1.000  O
  O27      1.0000 0.55431  0.93200  0.70616  Biso   1.000  O
  O28      1.0000 0.94569  0.43200  0.79384  Biso   1.000  O
  Rb1      1.0000 0.23569  0.87759  0.23886  Biso   1.000  Rb
  Rb2      1.0000 0.26431  0.37759  0.26114  Biso   1.000  Rb
  Rb3      1.0000 0.76431  0.12241  0.76114  Biso   1.000  Rb
  Rb4      1.0000 0.73569  0.62241  0.73886  Biso   1.000  Rb
