data_image0
_cell_length_a       9.5517
_cell_length_b       15.1144
_cell_length_c       10.511
_cell_angle_alpha    90
_cell_angle_beta     113.722
_cell_angle_gamma    90

_symmetry_space_group_name_H-M    "P 1"
_symmetry_int_tables_number       1

loop_
  _symmetry_equiv_pos_as_xyz
  'x, y, z'

loop_
  _atom_site_label
  _atom_site_occupancy
  _atom_site_fract_x
  _atom_site_fract_y
  _atom_site_fract_z
  _atom_site_thermal_displace_type
  _atom_site_B_iso_or_equiv
  _atom_site_type_symbol
  C1       1.0000 0.57890  0.61480  0.70600  Biso   1.000  C
  C2       1.0000 0.07890  0.11480  0.70600  Biso   1.000  C
  C3       1.0000 0.42110  0.61480  0.29400  Biso   1.000  C
  C4       1.0000 0.92110  0.11480  0.29400  Biso   1.000  C
  C5       1.0000 0.42110  0.38520  0.29400  Biso   1.000  C
  C6       1.0000 0.92110  0.88520  0.29400  Biso   1.000  C
  C7       1.0000 0.57890  0.38520  0.70600  Biso   1.000  C
  C8       1.0000 0.07890  0.88520  0.70600  Biso   1.000  C
  N1       1.0000 0.62000  0.61750  0.82720  Biso   1.000  N
  N2       1.0000 0.12000  0.11750  0.82720  Biso   1.000  N
  N3       1.0000 0.38000  0.61750  0.17280  Biso   1.000  N
  N4       1.0000 0.88000  0.11750  0.17280  Biso   1.000  N
  N5       1.0000 0.38000  0.38250  0.17280  Biso   1.000  N
  N6       1.0000 0.88000  0.88250  0.17280  Biso   1.000  N
  N7       1.0000 0.62000  0.38250  0.82720  Biso   1.000  N
  N8       1.0000 0.12000  0.88250  0.82720  Biso   1.000  N
  Cu1      1.0000 0.60010  0.00000  0.76872  Biso   1.000  Cu
  Cu2      1.0000 0.10010  0.50000  0.76872  Biso   1.000  Cu
  Cu3      1.0000 0.39990  0.00000  0.23128  Biso   1.000  Cu
  Cu4      1.0000 0.89990  0.50000  0.23128  Biso   1.000  Cu
  N9       1.0000 0.65490  0.89110  0.66660  Biso   1.000  N
  N10      1.0000 0.15490  0.39110  0.66660  Biso   1.000  N
  N11      1.0000 0.34510  0.89110  0.33340  Biso   1.000  N
  N12      1.0000 0.84510  0.39110  0.33340  Biso   1.000  N
  N13      1.0000 0.34510  0.10890  0.33340  Biso   1.000  N
  N14      1.0000 0.84510  0.60890  0.33340  Biso   1.000  N
  N15      1.0000 0.65490  0.10890  0.66660  Biso   1.000  N
  N16      1.0000 0.15490  0.60890  0.66660  Biso   1.000  N
  C9       1.0000 0.69360  0.83740  0.61040  Biso   1.000  C
  C10      1.0000 0.19360  0.33740  0.61040  Biso   1.000  C
  C11      1.0000 0.30640  0.83740  0.38960  Biso   1.000  C
  C12      1.0000 0.80640  0.33740  0.38960  Biso   1.000  C
  C13      1.0000 0.30640  0.16260  0.38960  Biso   1.000  C
  C14      1.0000 0.80640  0.66260  0.38960  Biso   1.000  C
  C15      1.0000 0.69360  0.16260  0.61040  Biso   1.000  C
  C16      1.0000 0.19360  0.66260  0.61040  Biso   1.000  C
  N17      1.0000 0.38200  0.00000  0.63230  Biso   1.000  N
  N18      1.0000 0.88200  0.50000  0.63230  Biso   1.000  N
  N19      1.0000 0.61800  0.00000  0.36770  Biso   1.000  N
  N20      1.0000 0.11800  0.50000  0.36770  Biso   1.000  N
  N21      1.0000 0.81500  0.00000  0.90800  Biso   1.000  N
  N22      1.0000 0.31500  0.50000  0.90800  Biso   1.000  N
  N23      1.0000 0.18500  0.00000  0.09200  Biso   1.000  N
  N24      1.0000 0.68500  0.50000  0.09200  Biso   1.000  N
  N25      1.0000 0.53600  0.91140  0.90410  Biso   1.000  N
  N26      1.0000 0.03600  0.41140  0.90410  Biso   1.000  N
  N27      1.0000 0.46400  0.91140  0.09590  Biso   1.000  N
  N28      1.0000 0.96400  0.41140  0.09590  Biso   1.000  N
  N29      1.0000 0.46400  0.08860  0.09590  Biso   1.000  N
  N30      1.0000 0.96400  0.58860  0.09590  Biso   1.000  N
  N31      1.0000 0.53600  0.08860  0.90410  Biso   1.000  N
  N32      1.0000 0.03600  0.58860  0.90410  Biso   1.000  N
  C17      1.0000 0.50000  0.95200  0.00000  Biso   1.000  C
  C18      1.0000 0.00000  0.45200  0.00000  Biso   1.000  C
  C19      1.0000 0.50000  0.04800  0.00000  Biso   1.000  C
  C20      1.0000 0.00000  0.54800  0.00000  Biso   1.000  C
  C21      1.0000 0.53600  0.81890  0.90280  Biso   1.000  C
  C22      1.0000 0.03600  0.31890  0.90280  Biso   1.000  C
  C23      1.0000 0.46400  0.81890  0.09720  Biso   1.000  C
  C24      1.0000 0.96400  0.31890  0.09720  Biso   1.000  C
  C25      1.0000 0.46400  0.18110  0.09720  Biso   1.000  C
  C26      1.0000 0.96400  0.68110  0.09720  Biso   1.000  C
  C27      1.0000 0.53600  0.18110  0.90280  Biso   1.000  C
  C28      1.0000 0.03600  0.68110  0.90280  Biso   1.000  C
  H1       1.0000 0.55870  0.78730  0.83790  Biso   1.000  H
  H2       1.0000 0.05870  0.28730  0.83790  Biso   1.000  H
  H3       1.0000 0.44130  0.78730  0.16210  Biso   1.000  H
  H4       1.0000 0.94130  0.28730  0.16210  Biso   1.000  H
  H5       1.0000 0.44130  0.21270  0.16210  Biso   1.000  H
  H6       1.0000 0.94130  0.71270  0.16210  Biso   1.000  H
  H7       1.0000 0.55870  0.21270  0.83790  Biso   1.000  H
  H8       1.0000 0.05870  0.71270  0.83790  Biso   1.000  H
  C29      1.0000 0.50000  0.77740  0.00000  Biso   1.000  C
  C30      1.0000 0.00000  0.27740  0.00000  Biso   1.000  C
  C31      1.0000 0.50000  0.22260  0.00000  Biso   1.000  C
  C32      1.0000 0.00000  0.72260  0.00000  Biso   1.000  C
  H9       1.0000 0.50000  0.71590  0.00000  Biso   1.000  H
  H10      1.0000 0.00000  0.21590  0.00000  Biso   1.000  H
  H11      1.0000 0.50000  0.28410  0.00000  Biso   1.000  H
  H12      1.0000 0.00000  0.78410  0.00000  Biso   1.000  H
  Au1      1.0000 0.50000  0.61469  0.50000  Biso   1.000  Au
  Au2      1.0000 0.00000  0.11469  0.50000  Biso   1.000  Au
  Au3      1.0000 0.50000  0.38531  0.50000  Biso   1.000  Au
  Au4      1.0000 0.00000  0.88531  0.50000  Biso   1.000  Au
  Au5      1.0000 0.75000  0.75000  0.50000  Biso   1.000  Au
  Au6      1.0000 0.25000  0.25000  0.50000  Biso   1.000  Au
  Au7      1.0000 0.25000  0.75000  0.50000  Biso   1.000  Au
  Au8      1.0000 0.75000  0.25000  0.50000  Biso   1.000  Au
