data_image0
_cell_length_a       9.9415
_cell_length_b       11.9758
_cell_length_c       10.0268
_cell_angle_alpha    90
_cell_angle_beta     94.766
_cell_angle_gamma    90

_symmetry_space_group_name_H-M    "P 1"
_symmetry_int_tables_number       1

loop_
  _symmetry_equiv_pos_as_xyz
  'x, y, z'

loop_
  _atom_site_label
  _atom_site_occupancy
  _atom_site_fract_x
  _atom_site_fract_y
  _atom_site_fract_z
  _atom_site_thermal_displace_type
  _atom_site_B_iso_or_equiv
  _atom_site_type_symbol
  Cu1      1.0000 0.79358  0.77127  0.30000  Biso   1.000  Cu
  Cu2      1.0000 0.20642  0.27127  0.70000  Biso   1.000  Cu
  Cl1      1.0000 0.28509  0.73967  0.70523  Biso   1.000  Cl
  Cl2      1.0000 0.71491  0.23967  0.29477  Biso   1.000  Cl
  O1       1.0000 0.77920  0.82500  0.53990  Biso   1.000  O
  O2       1.0000 0.22080  0.32500  0.46010  Biso   1.000  O
  O3       1.0000 0.63540  0.62910  0.63020  Biso   1.000  O
  O4       1.0000 0.36460  0.12910  0.36980  Biso   1.000  O
  O5       1.0000 0.64150  0.67250  0.31130  Biso   1.000  O
  O6       1.0000 0.35850  0.17250  0.68870  Biso   1.000  O
  O7       1.0000 0.43580  0.63820  0.22030  Biso   1.000  O
  O8       1.0000 0.56420  0.13820  0.77970  Biso   1.000  O
  O9       1.0000 0.36700  0.78520  0.61600  Biso   1.000  O
  O10      1.0000 0.63300  0.28520  0.38400  Biso   1.000  O
  O11      1.0000 0.28530  0.79640  0.82410  Biso   1.000  O
  O12      1.0000 0.71470  0.29640  0.17590  Biso   1.000  O
  O13      1.0000 0.33760  0.63610  0.73370  Biso   1.000  O
  O14      1.0000 0.66240  0.13610  0.26630  Biso   1.000  O
  O15      1.0000 0.15030  0.72950  0.64600  Biso   1.000  O
  O16      1.0000 0.84970  0.22950  0.35400  Biso   1.000  O
  O17      1.0000 0.29270  0.54650  0.99780  Biso   1.000  O
  O18      1.0000 0.70730  0.04650  0.00220  Biso   1.000  O
  N1       1.0000 0.07120  0.14970  0.66150  Biso   1.000  N
  N2       1.0000 0.92880  0.64970  0.33850  Biso   1.000  N
  N3       1.0000 0.62900  0.93740  0.63060  Biso   1.000  N
  N4       1.0000 0.37100  0.43740  0.36940  Biso   1.000  N
  N5       1.0000 0.55450  0.45560  0.65550  Biso   1.000  N
  N6       1.0000 0.44550  0.95560  0.34450  Biso   1.000  N
  N7       1.0000 0.04010  0.36560  0.69310  Biso   1.000  N
  N8       1.0000 0.95990  0.86560  0.30690  Biso   1.000  N
  N9       1.0000 0.65730  0.87090  0.20330  Biso   1.000  N
  N10      1.0000 0.34270  0.37090  0.79670  Biso   1.000  N
  C1       1.0000 0.09720  0.04130  0.65350  Biso   1.000  C
  C2       1.0000 0.90280  0.54130  0.34650  Biso   1.000  C
  C3       1.0000 0.99600  0.96220  0.63390  Biso   1.000  C
  C4       1.0000 0.00400  0.46220  0.36610  Biso   1.000  C
  C5       1.0000 0.75050  0.91410  0.59560  Biso   1.000  C
  C6       1.0000 0.24950  0.41410  0.40440  Biso   1.000  C
  C7       1.0000 0.86200  0.99730  0.62520  Biso   1.000  C
  C8       1.0000 0.13800  0.49730  0.37480  Biso   1.000  C
  C9       1.0000 0.83580  0.11120  0.63860  Biso   1.000  C
  C10      1.0000 0.16420  0.61120  0.36140  Biso   1.000  C
  C11      1.0000 0.94170  0.18370  0.65700  Biso   1.000  C
  C12      1.0000 0.05830  0.68370  0.34300  Biso   1.000  C
  C13      1.0000 0.92420  0.30670  0.67080  Biso   1.000  C
  C14      1.0000 0.07580  0.80670  0.32920  Biso   1.000  C
  C15      1.0000 0.80000  0.35670  0.65670  Biso   1.000  C
  C16      1.0000 0.20000  0.85670  0.34330  Biso   1.000  C
  C17      1.0000 0.65070  0.51970  0.65020  Biso   1.000  C
  C18      1.0000 0.34930  0.01970  0.34980  Biso   1.000  C
  C19      1.0000 0.78940  0.47360  0.66390  Biso   1.000  C
  C20      1.0000 0.21060  0.97360  0.33610  Biso   1.000  C
  C21      1.0000 0.90860  0.53250  0.68500  Biso   1.000  C
  C22      1.0000 0.09140  0.03250  0.31500  Biso   1.000  C
  C23      1.0000 0.03090  0.47580  0.70070  Biso   1.000  C
  C24      1.0000 0.96910  0.97580  0.29930  Biso   1.000  C
  C25      1.0000 0.55480  0.79440  0.13860  Biso   1.000  C
  C26      1.0000 0.44520  0.29440  0.86140  Biso   1.000  C
  C27      1.0000 0.54080  0.69370  0.23040  Biso   1.000  C
  C28      1.0000 0.45920  0.19370  0.76960  Biso   1.000  C
  C29      1.0000 0.59090  0.75610  0.99910  Biso   1.000  C
  C30      1.0000 0.40910  0.25610  0.00090  Biso   1.000  C
  C31      1.0000 0.72120  0.69390  0.00070  Biso   1.000  C
  C32      1.0000 0.27880  0.19390  0.99930  Biso   1.000  C
  C33      1.0000 0.84340  0.74710  0.98720  Biso   1.000  C
  C34      1.0000 0.15660  0.24710  0.01280  Biso   1.000  C
  C35      1.0000 0.96260  0.68470  0.99290  Biso   1.000  C
  C36      1.0000 0.03740  0.18470  0.00710  Biso   1.000  C
  C37      1.0000 0.96070  0.57380  0.01270  Biso   1.000  C
  C38      1.0000 0.03930  0.07380  0.98730  Biso   1.000  C
  C39      1.0000 0.84150  0.52020  0.02510  Biso   1.000  C
  C40      1.0000 0.15850  0.02020  0.97490  Biso   1.000  C
  C41      1.0000 0.72240  0.57900  0.01880  Biso   1.000  C
  C42      1.0000 0.27760  0.07900  0.98120  Biso   1.000  C
  H1       1.0000 0.18840  0.01690  0.66310  Biso   1.000  H
  H2       1.0000 0.81160  0.51690  0.33690  Biso   1.000  H
  H3       1.0000 0.01640  0.88530  0.62320  Biso   1.000  H
  H4       1.0000 0.98360  0.38530  0.37680  Biso   1.000  H
  H5       1.0000 0.55550  0.88750  0.61190  Biso   1.000  H
  H6       1.0000 0.44450  0.38750  0.38810  Biso   1.000  H
  H7       1.0000 0.61540  0.00610  0.67480  Biso   1.000  H
  H8       1.0000 0.38460  0.50610  0.32520  Biso   1.000  H
  H9       1.0000 0.74530  0.13720  0.63680  Biso   1.000  H
  H10      1.0000 0.25470  0.63720  0.36320  Biso   1.000  H
  H11      1.0000 0.72050  0.31270  0.64390  Biso   1.000  H
  H12      1.0000 0.27950  0.81270  0.35610  Biso   1.000  H
  H13      1.0000 0.57040  0.37790  0.66780  Biso   1.000  H
  H14      1.0000 0.42960  0.87790  0.33220  Biso   1.000  H
  H15      1.0000 0.46480  0.48350  0.64790  Biso   1.000  H
  H16      1.0000 0.53520  0.98350  0.35210  Biso   1.000  H
  H17      1.0000 0.90600  0.61160  0.68990  Biso   1.000  H
  H18      1.0000 0.09400  0.11160  0.31010  Biso   1.000  H
  H19      1.0000 0.11260  0.51650  0.71730  Biso   1.000  H
  H20      1.0000 0.88740  0.01650  0.28270  Biso   1.000  H
  H21      1.0000 0.69800  0.91360  0.13760  Biso   1.000  H
  H22      1.0000 0.30200  0.41360  0.86240  Biso   1.000  H
  H23      1.0000 0.61810  0.91970  0.26390  Biso   1.000  H
  H24      1.0000 0.38190  0.41970  0.73610  Biso   1.000  H
  H25      1.0000 0.47080  0.83260  0.12900  Biso   1.000  H
  H26      1.0000 0.52920  0.33260  0.87100  Biso   1.000  H
  H27      1.0000 0.59810  0.82030  0.94440  Biso   1.000  H
  H28      1.0000 0.40190  0.32030  0.05560  Biso   1.000  H
  H29      1.0000 0.52040  0.70950  0.96120  Biso   1.000  H
  H30      1.0000 0.47960  0.20950  0.03880  Biso   1.000  H
  H31      1.0000 0.84220  0.82560  0.97370  Biso   1.000  H
  H32      1.0000 0.15780  0.32560  0.02630  Biso   1.000  H
  H33      1.0000 0.04540  0.72120  0.98040  Biso   1.000  H
  H34      1.0000 0.95460  0.22120  0.01960  Biso   1.000  H
  H35      1.0000 0.04190  0.53170  0.02220  Biso   1.000  H
  H36      1.0000 0.95810  0.03170  0.97780  Biso   1.000  H
  H37      1.0000 0.84200  0.44150  0.03770  Biso   1.000  H
  H38      1.0000 0.15800  0.94150  0.96230  Biso   1.000  H
  H39      1.0000 0.64070  0.53950  0.02740  Biso   1.000  H
  H40      1.0000 0.35930  0.03950  0.97260  Biso   1.000  H
