data_image0
_cell_length_a       17.7049
_cell_length_b       9.2515
_cell_length_c       24.5663
_cell_angle_alpha    90
_cell_angle_beta     90
_cell_angle_gamma    90

_symmetry_space_group_name_H-M    "P 1"
_symmetry_int_tables_number       1

loop_
  _symmetry_equiv_pos_as_xyz
  'x, y, z'

loop_
  _atom_site_label
  _atom_site_occupancy
  _atom_site_fract_x
  _atom_site_fract_y
  _atom_site_fract_z
  _atom_site_thermal_displace_type
  _atom_site_B_iso_or_equiv
  _atom_site_type_symbol
  Cu1      1.0000 0.45202  0.09214  0.52258  Biso   1.000  Cu
  Cu2      1.0000 0.04798  0.90786  0.02258  Biso   1.000  Cu
  Cu3      1.0000 0.54798  0.59214  0.97742  Biso   1.000  Cu
  Cu4      1.0000 0.95202  0.40786  0.47742  Biso   1.000  Cu
  Cu5      1.0000 0.54798  0.90786  0.47742  Biso   1.000  Cu
  Cu6      1.0000 0.95202  0.09214  0.97742  Biso   1.000  Cu
  Cu7      1.0000 0.45202  0.40786  0.02258  Biso   1.000  Cu
  Cu8      1.0000 0.04798  0.59214  0.52258  Biso   1.000  Cu
  O1       1.0000 0.11860  0.97550  0.96638  Biso   1.000  O
  O2       1.0000 0.38140  0.02450  0.46638  Biso   1.000  O
  O3       1.0000 0.88140  0.47550  0.53362  Biso   1.000  O
  O4       1.0000 0.61860  0.52450  0.03362  Biso   1.000  O
  O5       1.0000 0.88140  0.02450  0.03362  Biso   1.000  O
  O6       1.0000 0.61860  0.97550  0.53362  Biso   1.000  O
  O7       1.0000 0.11860  0.52450  0.46638  Biso   1.000  O
  O8       1.0000 0.38140  0.47550  0.96638  Biso   1.000  O
  O9       1.0000 0.37490  0.21290  0.57120  Biso   1.000  O
  O10      1.0000 0.12510  0.78710  0.07120  Biso   1.000  O
  O11      1.0000 0.62510  0.71290  0.92880  Biso   1.000  O
  O12      1.0000 0.87490  0.28710  0.42880  Biso   1.000  O
  O13      1.0000 0.62510  0.78710  0.42880  Biso   1.000  O
  O14      1.0000 0.87490  0.21290  0.92880  Biso   1.000  O
  O15      1.0000 0.37490  0.28710  0.07120  Biso   1.000  O
  O16      1.0000 0.12510  0.71290  0.57120  Biso   1.000  O
  H1       1.0000 0.36900  0.17500  0.60400  Biso   1.000  H
  H2       1.0000 0.13100  0.82500  0.10400  Biso   1.000  H
  H3       1.0000 0.63100  0.67500  0.89600  Biso   1.000  H
  H4       1.0000 0.86900  0.32500  0.39600  Biso   1.000  H
  H5       1.0000 0.63100  0.82500  0.39600  Biso   1.000  H
  H6       1.0000 0.86900  0.17500  0.89600  Biso   1.000  H
  H7       1.0000 0.36900  0.32500  0.10400  Biso   1.000  H
  H8       1.0000 0.13100  0.67500  0.60400  Biso   1.000  H
  O17      1.0000 0.51260  0.75790  0.52751  Biso   1.000  O
  O18      1.0000 0.98740  0.24210  0.02751  Biso   1.000  O
  O19      1.0000 0.48740  0.25790  0.97249  Biso   1.000  O
  O20      1.0000 0.01260  0.74210  0.47249  Biso   1.000  O
  O21      1.0000 0.48740  0.24210  0.47249  Biso   1.000  O
  O22      1.0000 0.01260  0.75790  0.97249  Biso   1.000  O
  O23      1.0000 0.51260  0.74210  0.02751  Biso   1.000  O
  O24      1.0000 0.98740  0.25790  0.52751  Biso   1.000  O
  O25      1.0000 0.03800  0.13480  0.92922  Biso   1.000  O
  O26      1.0000 0.46200  0.86520  0.42922  Biso   1.000  O
  O27      1.0000 0.96200  0.63480  0.57078  Biso   1.000  O
  O28      1.0000 0.53800  0.36520  0.07078  Biso   1.000  O
  O29      1.0000 0.96200  0.86520  0.07078  Biso   1.000  O
  O30      1.0000 0.53800  0.13480  0.57078  Biso   1.000  O
  O31      1.0000 0.03800  0.36520  0.42922  Biso   1.000  O
  O32      1.0000 0.46200  0.63480  0.92922  Biso   1.000  O
  O33      1.0000 0.43060  0.91530  0.56380  Biso   1.000  O
  O34      1.0000 0.06940  0.08470  0.06380  Biso   1.000  O
  O35      1.0000 0.56940  0.41530  0.93620  Biso   1.000  O
  O36      1.0000 0.93060  0.58470  0.43620  Biso   1.000  O
  O37      1.0000 0.56940  0.08470  0.43620  Biso   1.000  O
  O38      1.0000 0.93060  0.91530  0.93620  Biso   1.000  O
  O39      1.0000 0.43060  0.58470  0.06380  Biso   1.000  O
  O40      1.0000 0.06940  0.41530  0.56380  Biso   1.000  O
  N1       1.0000 0.33920  0.31480  0.80650  Biso   1.000  N
  N2       1.0000 0.16080  0.68520  0.30650  Biso   1.000  N
  N3       1.0000 0.66080  0.81480  0.69350  Biso   1.000  N
  N4       1.0000 0.83920  0.18520  0.19350  Biso   1.000  N
  N5       1.0000 0.66080  0.68520  0.19350  Biso   1.000  N
  N6       1.0000 0.83920  0.31480  0.69350  Biso   1.000  N
  N7       1.0000 0.33920  0.18520  0.30650  Biso   1.000  N
  N8       1.0000 0.16080  0.81480  0.80650  Biso   1.000  N
  N9       1.0000 0.39870  0.42380  0.73940  Biso   1.000  N
  N10      1.0000 0.10130  0.57620  0.23940  Biso   1.000  N
  N11      1.0000 0.60130  0.92380  0.76060  Biso   1.000  N
  N12      1.0000 0.89870  0.07620  0.26060  Biso   1.000  N
  N13      1.0000 0.60130  0.57620  0.26060  Biso   1.000  N
  N14      1.0000 0.89870  0.42380  0.76060  Biso   1.000  N
  N15      1.0000 0.39870  0.07620  0.23940  Biso   1.000  N
  N16      1.0000 0.10130  0.92380  0.73940  Biso   1.000  N
  C1       1.0000 0.16420  0.13500  0.89930  Biso   1.000  C
  C2       1.0000 0.33580  0.86500  0.39930  Biso   1.000  C
  C3       1.0000 0.83580  0.63500  0.60070  Biso   1.000  C
  C4       1.0000 0.66420  0.36500  0.10070  Biso   1.000  C
  C5       1.0000 0.83580  0.86500  0.10070  Biso   1.000  C
  C6       1.0000 0.66420  0.13500  0.60070  Biso   1.000  C
  C7       1.0000 0.16420  0.36500  0.39930  Biso   1.000  C
  C8       1.0000 0.33580  0.63500  0.89930  Biso   1.000  C
  C9       1.0000 0.40990  0.51100  0.69200  Biso   1.000  C
  C10      1.0000 0.09010  0.48900  0.19200  Biso   1.000  C
  C11      1.0000 0.59010  0.01100  0.80800  Biso   1.000  C
  C12      1.0000 0.90990  0.98900  0.30800  Biso   1.000  C
  C13      1.0000 0.59010  0.48900  0.30800  Biso   1.000  C
  C14      1.0000 0.90990  0.51100  0.80800  Biso   1.000  C
  C15      1.0000 0.40990  0.98900  0.19200  Biso   1.000  C
  C16      1.0000 0.09010  0.01100  0.69200  Biso   1.000  C
  C17      1.0000 0.43960  0.68710  0.60410  Biso   1.000  C
  C18      1.0000 0.06040  0.31290  0.10410  Biso   1.000  C
  C19      1.0000 0.56040  0.18710  0.89590  Biso   1.000  C
  C20      1.0000 0.93960  0.81290  0.39590  Biso   1.000  C
  C21      1.0000 0.56040  0.31290  0.39590  Biso   1.000  C
  C22      1.0000 0.93960  0.68710  0.89590  Biso   1.000  C
  C23      1.0000 0.43960  0.81290  0.10410  Biso   1.000  C
  C24      1.0000 0.06040  0.18710  0.60410  Biso   1.000  C
  C25      1.0000 0.27900  0.25300  0.83710  Biso   1.000  C
  C26      1.0000 0.22100  0.74700  0.33710  Biso   1.000  C
  C27      1.0000 0.72100  0.75300  0.66290  Biso   1.000  C
  C28      1.0000 0.77900  0.24700  0.16290  Biso   1.000  C
  C29      1.0000 0.72100  0.74700  0.16290  Biso   1.000  C
  C30      1.0000 0.77900  0.25300  0.66290  Biso   1.000  C
  C31      1.0000 0.27900  0.24700  0.33710  Biso   1.000  C
  C32      1.0000 0.22100  0.75300  0.83710  Biso   1.000  C
  C33      1.0000 0.37540  0.64440  0.68880  Biso   1.000  C
  C34      1.0000 0.12460  0.35560  0.18880  Biso   1.000  C
  C35      1.0000 0.62460  0.14440  0.81120  Biso   1.000  C
  C36      1.0000 0.87540  0.85560  0.31120  Biso   1.000  C
  C37      1.0000 0.62460  0.35560  0.31120  Biso   1.000  C
  C38      1.0000 0.87540  0.64440  0.81120  Biso   1.000  C
  C39      1.0000 0.37540  0.85560  0.18880  Biso   1.000  C
  C40      1.0000 0.12460  0.14440  0.68880  Biso   1.000  C
  H9       1.0000 0.34232  0.67627  0.71671  Biso   1.000  H
  H10      1.0000 0.15768  0.32373  0.21671  Biso   1.000  H
  H11      1.0000 0.65768  0.17627  0.78329  Biso   1.000  H
  H12      1.0000 0.84232  0.82373  0.28329  Biso   1.000  H
  H13      1.0000 0.65768  0.32373  0.28329  Biso   1.000  H
  H14      1.0000 0.84232  0.67627  0.78329  Biso   1.000  H
  H15      1.0000 0.34232  0.82373  0.21671  Biso   1.000  H
  H16      1.0000 0.15768  0.17627  0.71671  Biso   1.000  H
  C41      1.0000 0.33350  0.39300  0.76130  Biso   1.000  C
  C42      1.0000 0.16650  0.60700  0.26130  Biso   1.000  C
  C43      1.0000 0.66650  0.89300  0.73870  Biso   1.000  C
  C44      1.0000 0.83350  0.10700  0.23870  Biso   1.000  C
  C45      1.0000 0.66650  0.60700  0.23870  Biso   1.000  C
  C46      1.0000 0.83350  0.39300  0.73870  Biso   1.000  C
  C47      1.0000 0.33350  0.10700  0.26130  Biso   1.000  C
  C48      1.0000 0.16650  0.89300  0.76130  Biso   1.000  C
  H17      1.0000 0.28668  0.42351  0.74633  Biso   1.000  H
  H18      1.0000 0.21332  0.57649  0.24633  Biso   1.000  H
  H19      1.0000 0.71332  0.92351  0.75367  Biso   1.000  H
  H20      1.0000 0.78668  0.07649  0.25367  Biso   1.000  H
  H21      1.0000 0.71332  0.57649  0.25367  Biso   1.000  H
  H22      1.0000 0.78668  0.42351  0.75367  Biso   1.000  H
  H23      1.0000 0.28668  0.07649  0.24633  Biso   1.000  H
  H24      1.0000 0.21332  0.92351  0.74633  Biso   1.000  H
  C49      1.0000 0.39000  0.73080  0.64410  Biso   1.000  C
  C50      1.0000 0.11000  0.26920  0.14410  Biso   1.000  C
  C51      1.0000 0.61000  0.23080  0.85590  Biso   1.000  C
  C52      1.0000 0.89000  0.76920  0.35590  Biso   1.000  C
  C53      1.0000 0.61000  0.26920  0.35590  Biso   1.000  C
  C54      1.0000 0.89000  0.73080  0.85590  Biso   1.000  C
  C55      1.0000 0.39000  0.76920  0.14410  Biso   1.000  C
  C56      1.0000 0.11000  0.23080  0.64410  Biso   1.000  C
  H25      1.0000 0.36541  0.82166  0.64090  Biso   1.000  H
  H26      1.0000 0.13459  0.17834  0.14090  Biso   1.000  H
  H27      1.0000 0.63459  0.32166  0.85910  Biso   1.000  H
  H28      1.0000 0.86541  0.67834  0.35910  Biso   1.000  H
  H29      1.0000 0.63459  0.17834  0.35910  Biso   1.000  H
  H30      1.0000 0.86541  0.82166  0.85910  Biso   1.000  H
  H31      1.0000 0.36541  0.67834  0.14090  Biso   1.000  H
  H32      1.0000 0.13459  0.32166  0.64090  Biso   1.000  H
  C57      1.0000 0.20600  0.28790  0.82660  Biso   1.000  C
  C58      1.0000 0.29400  0.71210  0.32660  Biso   1.000  C
  C59      1.0000 0.79400  0.78790  0.67340  Biso   1.000  C
  C60      1.0000 0.70600  0.21210  0.17340  Biso   1.000  C
  C61      1.0000 0.79400  0.71210  0.17340  Biso   1.000  C
  C62      1.0000 0.70600  0.28790  0.67340  Biso   1.000  C
  C63      1.0000 0.20600  0.21210  0.32660  Biso   1.000  C
  C64      1.0000 0.29400  0.78790  0.82660  Biso   1.000  C
  H33      1.0000 0.19441  0.35341  0.79804  Biso   1.000  H
  H34      1.0000 0.30559  0.64659  0.29804  Biso   1.000  H
  H35      1.0000 0.80559  0.85341  0.70196  Biso   1.000  H
  H36      1.0000 0.69441  0.14659  0.20196  Biso   1.000  H
  H37      1.0000 0.80559  0.64659  0.20196  Biso   1.000  H
  H38      1.0000 0.69441  0.35341  0.70196  Biso   1.000  H
  H39      1.0000 0.19441  0.14659  0.29804  Biso   1.000  H
  H40      1.0000 0.30559  0.85341  0.79804  Biso   1.000  H
  C65      1.0000 0.47180  0.54870  0.60580  Biso   1.000  C
  C66      1.0000 0.02820  0.45130  0.10580  Biso   1.000  C
  C67      1.0000 0.52820  0.04870  0.89420  Biso   1.000  C
  C68      1.0000 0.97180  0.95130  0.39420  Biso   1.000  C
  C69      1.0000 0.52820  0.45130  0.39420  Biso   1.000  C
  C70      1.0000 0.97180  0.54870  0.89420  Biso   1.000  C
  C71      1.0000 0.47180  0.95130  0.10580  Biso   1.000  C
  C72      1.0000 0.02820  0.04870  0.60580  Biso   1.000  C
  H41      1.0000 0.50298  0.51544  0.57697  Biso   1.000  H
  H42      1.0000 0.99702  0.48456  0.07697  Biso   1.000  H
  H43      1.0000 0.49702  0.01544  0.92303  Biso   1.000  H
  H44      1.0000 0.00298  0.98456  0.42303  Biso   1.000  H
  H45      1.0000 0.49702  0.48456  0.42303  Biso   1.000  H
  H46      1.0000 0.00298  0.51544  0.92303  Biso   1.000  H
  H47      1.0000 0.50298  0.98456  0.07697  Biso   1.000  H
  H48      1.0000 0.99702  0.01544  0.57697  Biso   1.000  H
  C73      1.0000 0.46250  0.79400  0.56080  Biso   1.000  C
  C74      1.0000 0.03750  0.20600  0.06080  Biso   1.000  C
  C75      1.0000 0.53750  0.29400  0.93920  Biso   1.000  C
  C76      1.0000 0.96250  0.70600  0.43920  Biso   1.000  C
  C77      1.0000 0.53750  0.20600  0.43920  Biso   1.000  C
  C78      1.0000 0.96250  0.79400  0.93920  Biso   1.000  C
  C79      1.0000 0.46250  0.70600  0.06080  Biso   1.000  C
  C80      1.0000 0.03750  0.29400  0.56080  Biso   1.000  C
  C81      1.0000 0.14880  0.22880  0.85710  Biso   1.000  C
  C82      1.0000 0.35120  0.77120  0.35710  Biso   1.000  C
  C83      1.0000 0.85120  0.72880  0.64290  Biso   1.000  C
  C84      1.0000 0.64880  0.27120  0.14290  Biso   1.000  C
  C85      1.0000 0.85120  0.77120  0.14290  Biso   1.000  C
  C86      1.0000 0.64880  0.22880  0.64290  Biso   1.000  C
  C87      1.0000 0.14880  0.27120  0.35710  Biso   1.000  C
  C88      1.0000 0.35120  0.72880  0.85710  Biso   1.000  C
  H49      1.0000 0.09791  0.25283  0.84902  Biso   1.000  H
  H50      1.0000 0.40209  0.74717  0.34902  Biso   1.000  H
  H51      1.0000 0.90209  0.75283  0.65098  Biso   1.000  H
  H52      1.0000 0.59791  0.24717  0.15098  Biso   1.000  H
  H53      1.0000 0.90209  0.74717  0.15098  Biso   1.000  H
  H54      1.0000 0.59791  0.25283  0.65098  Biso   1.000  H
  H55      1.0000 0.09791  0.24717  0.34902  Biso   1.000  H
  H56      1.0000 0.40209  0.75283  0.84902  Biso   1.000  H
  C89      1.0000 0.10190  0.07610  0.93490  Biso   1.000  C
  C90      1.0000 0.39810  0.92390  0.43490  Biso   1.000  C
  C91      1.0000 0.89810  0.57610  0.56510  Biso   1.000  C
  C92      1.0000 0.60190  0.42390  0.06510  Biso   1.000  C
  C93      1.0000 0.89810  0.92390  0.06510  Biso   1.000  C
  C94      1.0000 0.60190  0.07610  0.56510  Biso   1.000  C
  C95      1.0000 0.10190  0.42390  0.43490  Biso   1.000  C
  C96      1.0000 0.39810  0.57610  0.93490  Biso   1.000  C
  C97      1.0000 0.45700  0.46120  0.65060  Biso   1.000  C
  C98      1.0000 0.04300  0.53880  0.15060  Biso   1.000  C
  C99      1.0000 0.54300  0.96120  0.84940  Biso   1.000  C
  C100     1.0000 0.95700  0.03880  0.34940  Biso   1.000  C
  C101     1.0000 0.54300  0.53880  0.34940  Biso   1.000  C
  C102     1.0000 0.95700  0.46120  0.84940  Biso   1.000  C
  C103     1.0000 0.45700  0.03880  0.15060  Biso   1.000  C
  C104     1.0000 0.04300  0.96120  0.65060  Biso   1.000  C
  H57      1.0000 0.47893  0.36766  0.65289  Biso   1.000  H
  H58      1.0000 0.02107  0.63234  0.15289  Biso   1.000  H
  H59      1.0000 0.52107  0.86766  0.84711  Biso   1.000  H
  H60      1.0000 0.97893  0.13234  0.34711  Biso   1.000  H
  H61      1.0000 0.52107  0.63234  0.34711  Biso   1.000  H
  H62      1.0000 0.97893  0.36766  0.84711  Biso   1.000  H
  H63      1.0000 0.47893  0.13234  0.15289  Biso   1.000  H
  H64      1.0000 0.02107  0.86766  0.65289  Biso   1.000  H
  C105     1.0000 0.41950  0.29010  0.81910  Biso   1.000  C
  C106     1.0000 0.08050  0.70990  0.31910  Biso   1.000  C
  C107     1.0000 0.58050  0.79010  0.68090  Biso   1.000  C
  C108     1.0000 0.91950  0.20990  0.18090  Biso   1.000  C
  C109     1.0000 0.58050  0.70990  0.18090  Biso   1.000  C
  C110     1.0000 0.91950  0.29010  0.68090  Biso   1.000  C
  C111     1.0000 0.41950  0.20990  0.31910  Biso   1.000  C
  C112     1.0000 0.08050  0.79010  0.81910  Biso   1.000  C
  H65      1.0000 0.43039  0.18560  0.82264  Biso   1.000  H
  H66      1.0000 0.06961  0.81440  0.32264  Biso   1.000  H
  H67      1.0000 0.56961  0.68560  0.67736  Biso   1.000  H
  H68      1.0000 0.93039  0.31440  0.17736  Biso   1.000  H
  H69      1.0000 0.56961  0.81440  0.17736  Biso   1.000  H
  H70      1.0000 0.93039  0.18560  0.67736  Biso   1.000  H
  H71      1.0000 0.43039  0.31440  0.32264  Biso   1.000  H
  H72      1.0000 0.06961  0.68560  0.82264  Biso   1.000  H
  H73      1.0000 0.43406  0.33956  0.85326  Biso   1.000  H
  H74      1.0000 0.06594  0.66044  0.35326  Biso   1.000  H
  H75      1.0000 0.56594  0.83956  0.64674  Biso   1.000  H
  H76      1.0000 0.93406  0.16044  0.14674  Biso   1.000  H
  H77      1.0000 0.56594  0.66044  0.14674  Biso   1.000  H
  H78      1.0000 0.93406  0.33956  0.64674  Biso   1.000  H
  H79      1.0000 0.43406  0.16044  0.35326  Biso   1.000  H
  H80      1.0000 0.06594  0.83956  0.85326  Biso   1.000  H
  C113     1.0000 0.23800  0.09900  0.90970  Biso   1.000  C
  C114     1.0000 0.26200  0.90100  0.40970  Biso   1.000  C
  C115     1.0000 0.76200  0.59900  0.59030  Biso   1.000  C
  C116     1.0000 0.73800  0.40100  0.09030  Biso   1.000  C
  C117     1.0000 0.76200  0.90100  0.09030  Biso   1.000  C
  C118     1.0000 0.73800  0.09900  0.59030  Biso   1.000  C
  C119     1.0000 0.23800  0.40100  0.40970  Biso   1.000  C
  C120     1.0000 0.26200  0.59900  0.90970  Biso   1.000  C
  H81      1.0000 0.24958  0.03287  0.93808  Biso   1.000  H
  H82      1.0000 0.25042  0.96713  0.43808  Biso   1.000  H
  H83      1.0000 0.75042  0.53287  0.56192  Biso   1.000  H
  H84      1.0000 0.74958  0.46713  0.06192  Biso   1.000  H
  H85      1.0000 0.75042  0.96713  0.06192  Biso   1.000  H
  H86      1.0000 0.74958  0.03287  0.56192  Biso   1.000  H
  H87      1.0000 0.24958  0.46713  0.43808  Biso   1.000  H
  H88      1.0000 0.25042  0.53287  0.93808  Biso   1.000  H
  C121     1.0000 0.46110  0.35540  0.77000  Biso   1.000  C
  C122     1.0000 0.03890  0.64460  0.27000  Biso   1.000  C
  C123     1.0000 0.53890  0.85540  0.73000  Biso   1.000  C
  C124     1.0000 0.96110  0.14460  0.23000  Biso   1.000  C
  C125     1.0000 0.53890  0.64460  0.23000  Biso   1.000  C
  C126     1.0000 0.96110  0.35540  0.73000  Biso   1.000  C
  C127     1.0000 0.46110  0.14460  0.27000  Biso   1.000  C
  C128     1.0000 0.03890  0.85540  0.77000  Biso   1.000  C
  H89      1.0000 0.49901  0.42772  0.78156  Biso   1.000  H
  H90      1.0000 0.00099  0.57228  0.28156  Biso   1.000  H
  H91      1.0000 0.50099  0.92772  0.71844  Biso   1.000  H
  H92      1.0000 0.99901  0.07228  0.21844  Biso   1.000  H
  H93      1.0000 0.50099  0.57228  0.21844  Biso   1.000  H
  H94      1.0000 0.99901  0.42772  0.71844  Biso   1.000  H
  H95      1.0000 0.49901  0.07228  0.28156  Biso   1.000  H
  H96      1.0000 0.00099  0.92772  0.78156  Biso   1.000  H
  H97      1.0000 0.48626  0.27961  0.74806  Biso   1.000  H
  H98      1.0000 0.01374  0.72039  0.24806  Biso   1.000  H
  H99      1.0000 0.51374  0.77961  0.75194  Biso   1.000  H
  H100     1.0000 0.98626  0.22039  0.25194  Biso   1.000  H
  H101     1.0000 0.51374  0.72039  0.25194  Biso   1.000  H
  H102     1.0000 0.98626  0.27961  0.75194  Biso   1.000  H
  H103     1.0000 0.48626  0.22039  0.24806  Biso   1.000  H
  H104     1.0000 0.01374  0.77961  0.74806  Biso   1.000  H
  C129     1.0000 0.29580  0.15880  0.87900  Biso   1.000  C
  C130     1.0000 0.20420  0.84120  0.37900  Biso   1.000  C
  C131     1.0000 0.70420  0.65880  0.62100  Biso   1.000  C
  C132     1.0000 0.79580  0.34120  0.12100  Biso   1.000  C
  C133     1.0000 0.70420  0.84120  0.12100  Biso   1.000  C
  C134     1.0000 0.79580  0.15880  0.62100  Biso   1.000  C
  C135     1.0000 0.29580  0.34120  0.37900  Biso   1.000  C
  C136     1.0000 0.20420  0.65880  0.87900  Biso   1.000  C
  H105     1.0000 0.34692  0.13485  0.88668  Biso   1.000  H
  H106     1.0000 0.15308  0.86515  0.38668  Biso   1.000  H
  H107     1.0000 0.65308  0.63485  0.61332  Biso   1.000  H
  H108     1.0000 0.84692  0.36515  0.11332  Biso   1.000  H
  H109     1.0000 0.65308  0.86515  0.11332  Biso   1.000  H
  H110     1.0000 0.84692  0.13485  0.61332  Biso   1.000  H
  H111     1.0000 0.34692  0.36515  0.38668  Biso   1.000  H
  H112     1.0000 0.15308  0.63485  0.88668  Biso   1.000  H
  C137     1.0000 0.29880  0.24750  0.55480  Biso   1.000  C
  C138     1.0000 0.20120  0.75250  0.05480  Biso   1.000  C
  C139     1.0000 0.70120  0.74750  0.94520  Biso   1.000  C
  C140     1.0000 0.79880  0.25250  0.44520  Biso   1.000  C
  C141     1.0000 0.70120  0.75250  0.44520  Biso   1.000  C
  C142     1.0000 0.79880  0.24750  0.94520  Biso   1.000  C
  C143     1.0000 0.29880  0.25250  0.05480  Biso   1.000  C
  C144     1.0000 0.20120  0.74750  0.55480  Biso   1.000  C
  H113     1.0000 0.26297  0.18334  0.57417  Biso   1.000  H
  H114     1.0000 0.23703  0.81666  0.07417  Biso   1.000  H
  H115     1.0000 0.73703  0.68334  0.92583  Biso   1.000  H
  H116     1.0000 0.76297  0.31666  0.42583  Biso   1.000  H
  H117     1.0000 0.73703  0.81666  0.42583  Biso   1.000  H
  H118     1.0000 0.76297  0.18334  0.92583  Biso   1.000  H
  H119     1.0000 0.26297  0.31666  0.07417  Biso   1.000  H
  H120     1.0000 0.23703  0.68334  0.57417  Biso   1.000  H
  H121     1.0000 0.29318  0.22980  0.51527  Biso   1.000  H
  H122     1.0000 0.20682  0.77020  0.01527  Biso   1.000  H
  H123     1.0000 0.70682  0.72980  0.98473  Biso   1.000  H
  H124     1.0000 0.79318  0.27020  0.48473  Biso   1.000  H
  H125     1.0000 0.70682  0.77020  0.48473  Biso   1.000  H
  H126     1.0000 0.79318  0.22980  0.98473  Biso   1.000  H
  H127     1.0000 0.29318  0.27020  0.01527  Biso   1.000  H
  H128     1.0000 0.20682  0.72980  0.51527  Biso   1.000  H
  C145     1.0000 0.27950  0.40270  0.56710  Biso   1.000  C
  C146     1.0000 0.22050  0.59730  0.06710  Biso   1.000  C
  C147     1.0000 0.72050  0.90270  0.93290  Biso   1.000  C
  C148     1.0000 0.77950  0.09730  0.43290  Biso   1.000  C
  C149     1.0000 0.72050  0.59730  0.43290  Biso   1.000  C
  C150     1.0000 0.77950  0.40270  0.93290  Biso   1.000  C
  C151     1.0000 0.27950  0.09730  0.06710  Biso   1.000  C
  C152     1.0000 0.22050  0.90270  0.56710  Biso   1.000  C
  H129     1.0000 0.31348  0.46652  0.54667  Biso   1.000  H
  H130     1.0000 0.18652  0.53348  0.04667  Biso   1.000  H
  H131     1.0000 0.68652  0.96652  0.95333  Biso   1.000  H
  H132     1.0000 0.81348  0.03348  0.45333  Biso   1.000  H
  H133     1.0000 0.68652  0.53348  0.45333  Biso   1.000  H
  H134     1.0000 0.81348  0.46652  0.95333  Biso   1.000  H
  H135     1.0000 0.31348  0.03348  0.04667  Biso   1.000  H
  H136     1.0000 0.18652  0.96652  0.54667  Biso   1.000  H
  H137     1.0000 0.28540  0.42071  0.60613  Biso   1.000  H
  H138     1.0000 0.21460  0.57929  0.10613  Biso   1.000  H
  H139     1.0000 0.71460  0.92071  0.89387  Biso   1.000  H
  H140     1.0000 0.78540  0.07929  0.39387  Biso   1.000  H
  H141     1.0000 0.71460  0.57929  0.39387  Biso   1.000  H
  H142     1.0000 0.78540  0.42071  0.89387  Biso   1.000  H
  H143     1.0000 0.28540  0.07929  0.10613  Biso   1.000  H
  H144     1.0000 0.21460  0.92071  0.60613  Biso   1.000  H
  H145     1.0000 0.22717  0.42197  0.55631  Biso   1.000  H
  H146     1.0000 0.27283  0.57803  0.05631  Biso   1.000  H
  H147     1.0000 0.77283  0.92197  0.94369  Biso   1.000  H
  H148     1.0000 0.72717  0.07803  0.44369  Biso   1.000  H
  H149     1.0000 0.77283  0.57803  0.44369  Biso   1.000  H
  H150     1.0000 0.72717  0.42197  0.94369  Biso   1.000  H
  H151     1.0000 0.22717  0.07803  0.05631  Biso   1.000  H
  H152     1.0000 0.27283  0.92197  0.55631  Biso   1.000  H
  O41      1.0000 0.41030  0.11580  0.67880  Biso   1.000  O
  O42      1.0000 0.08970  0.88420  0.17880  Biso   1.000  O
  O43      1.0000 0.58970  0.61580  0.82120  Biso   1.000  O
  O44      1.0000 0.91030  0.38420  0.32120  Biso   1.000  O
  O45      1.0000 0.58970  0.88420  0.32120  Biso   1.000  O
  O46      1.0000 0.91030  0.11580  0.82120  Biso   1.000  O
  O47      1.0000 0.41030  0.38420  0.17880  Biso   1.000  O
  O48      1.0000 0.08970  0.61580  0.67880  Biso   1.000  O
  N17      1.0000 0.35750  0.07120  0.70660  Biso   1.000  N
  N18      1.0000 0.14250  0.92880  0.20660  Biso   1.000  N
  N19      1.0000 0.64250  0.57120  0.79340  Biso   1.000  N
  N20      1.0000 0.85750  0.42880  0.29340  Biso   1.000  N
  N21      1.0000 0.64250  0.92880  0.29340  Biso   1.000  N
  N22      1.0000 0.85750  0.07120  0.79340  Biso   1.000  N
  N23      1.0000 0.35750  0.42880  0.20660  Biso   1.000  N
  N24      1.0000 0.14250  0.57120  0.70660  Biso   1.000  N
  O49      1.0000 0.37610  0.02100  0.75280  Biso   1.000  O
  O50      1.0000 0.12390  0.97900  0.25280  Biso   1.000  O
  O51      1.0000 0.62390  0.52100  0.74720  Biso   1.000  O
  O52      1.0000 0.87610  0.47900  0.24720  Biso   1.000  O
  O53      1.0000 0.62390  0.97900  0.24720  Biso   1.000  O
  O54      1.0000 0.87610  0.02100  0.74720  Biso   1.000  O
  O55      1.0000 0.37610  0.47900  0.25280  Biso   1.000  O
  O56      1.0000 0.12390  0.52100  0.75280  Biso   1.000  O
  O57      1.0000 0.29590  0.06200  0.69540  Biso   1.000  O
  O58      1.0000 0.20410  0.93800  0.19540  Biso   1.000  O
  O59      1.0000 0.70410  0.56200  0.80460  Biso   1.000  O
  O60      1.0000 0.79590  0.43800  0.30460  Biso   1.000  O
  O61      1.0000 0.70410  0.93800  0.30460  Biso   1.000  O
  O62      1.0000 0.79590  0.06200  0.80460  Biso   1.000  O
  O63      1.0000 0.29590  0.43800  0.19540  Biso   1.000  O
  O64      1.0000 0.20410  0.56200  0.69540  Biso   1.000  O
