data_image0
_cell_length_a       17.8332
_cell_length_b       9.2678
_cell_length_c       24.5582
_cell_angle_alpha    90
_cell_angle_beta     90
_cell_angle_gamma    90

_symmetry_space_group_name_H-M    "P 1"
_symmetry_int_tables_number       1

loop_
  _symmetry_equiv_pos_as_xyz
  'x, y, z'

loop_
  _atom_site_label
  _atom_site_occupancy
  _atom_site_fract_x
  _atom_site_fract_y
  _atom_site_fract_z
  _atom_site_thermal_displace_type
  _atom_site_B_iso_or_equiv
  _atom_site_type_symbol
  Cu1      1.0000 0.45237  0.90772  0.52257  Biso   1.000  Cu
  Cu2      1.0000 0.04763  0.09228  0.02257  Biso   1.000  Cu
  Cu3      1.0000 0.54763  0.40772  0.97743  Biso   1.000  Cu
  Cu4      1.0000 0.95237  0.59228  0.47743  Biso   1.000  Cu
  Cu5      1.0000 0.54763  0.09228  0.47743  Biso   1.000  Cu
  Cu6      1.0000 0.95237  0.90772  0.97743  Biso   1.000  Cu
  Cu7      1.0000 0.45237  0.59228  0.02257  Biso   1.000  Cu
  Cu8      1.0000 0.04763  0.40772  0.52257  Biso   1.000  Cu
  O1       1.0000 0.61760  0.02340  0.53331  Biso   1.000  O
  O2       1.0000 0.88240  0.97660  0.03331  Biso   1.000  O
  O3       1.0000 0.38240  0.52340  0.96669  Biso   1.000  O
  O4       1.0000 0.11760  0.47660  0.46669  Biso   1.000  O
  O5       1.0000 0.38240  0.97660  0.46669  Biso   1.000  O
  O6       1.0000 0.11760  0.02340  0.96669  Biso   1.000  O
  O7       1.0000 0.61760  0.47660  0.03331  Biso   1.000  O
  O8       1.0000 0.88240  0.52340  0.53331  Biso   1.000  O
  O9       1.0000 0.01230  0.24110  0.97183  Biso   1.000  O
  O10      1.0000 0.48770  0.75890  0.47183  Biso   1.000  O
  O11      1.0000 0.98770  0.74110  0.52817  Biso   1.000  O
  O12      1.0000 0.51230  0.25890  0.02817  Biso   1.000  O
  O13      1.0000 0.98770  0.75890  0.02817  Biso   1.000  O
  O14      1.0000 0.51230  0.24110  0.52817  Biso   1.000  O
  O15      1.0000 0.01230  0.25890  0.47183  Biso   1.000  O
  O16      1.0000 0.48770  0.74110  0.97183  Biso   1.000  O
  O17      1.0000 0.37580  0.78710  0.57091  Biso   1.000  O
  O18      1.0000 0.12420  0.21290  0.07091  Biso   1.000  O
  O19      1.0000 0.62420  0.28710  0.92909  Biso   1.000  O
  O20      1.0000 0.87580  0.71290  0.42909  Biso   1.000  O
  O21      1.0000 0.62420  0.21290  0.42909  Biso   1.000  O
  O22      1.0000 0.87580  0.78710  0.92909  Biso   1.000  O
  O23      1.0000 0.37580  0.71290  0.07091  Biso   1.000  O
  O24      1.0000 0.12420  0.28710  0.57091  Biso   1.000  O
  H1       1.0000 0.37180  0.79500  0.60570  Biso   1.000  H
  H2       1.0000 0.12820  0.20500  0.10570  Biso   1.000  H
  H3       1.0000 0.62820  0.29500  0.89430  Biso   1.000  H
  H4       1.0000 0.87180  0.70500  0.39430  Biso   1.000  H
  H5       1.0000 0.62820  0.20500  0.39430  Biso   1.000  H
  H6       1.0000 0.87180  0.79500  0.89430  Biso   1.000  H
  H7       1.0000 0.37180  0.70500  0.10570  Biso   1.000  H
  H8       1.0000 0.12820  0.29500  0.60570  Biso   1.000  H
  O25      1.0000 0.93110  0.08330  0.93537  Biso   1.000  O
  O26      1.0000 0.56890  0.91670  0.43537  Biso   1.000  O
  O27      1.0000 0.06890  0.58330  0.56463  Biso   1.000  O
  O28      1.0000 0.43110  0.41670  0.06463  Biso   1.000  O
  O29      1.0000 0.06890  0.91670  0.06463  Biso   1.000  O
  O30      1.0000 0.43110  0.08330  0.56463  Biso   1.000  O
  O31      1.0000 0.93110  0.41670  0.43537  Biso   1.000  O
  O32      1.0000 0.56890  0.58330  0.93537  Biso   1.000  O
  O33      1.0000 0.53770  0.86340  0.57072  Biso   1.000  O
  O34      1.0000 0.96230  0.13660  0.07072  Biso   1.000  O
  O35      1.0000 0.46230  0.36340  0.92928  Biso   1.000  O
  O36      1.0000 0.03770  0.63660  0.42928  Biso   1.000  O
  O37      1.0000 0.46230  0.13660  0.42928  Biso   1.000  O
  O38      1.0000 0.03770  0.86340  0.92928  Biso   1.000  O
  O39      1.0000 0.53770  0.63660  0.07072  Biso   1.000  O
  O40      1.0000 0.96230  0.36340  0.57072  Biso   1.000  O
  N1       1.0000 0.89800  0.57590  0.75969  Biso   1.000  N
  N2       1.0000 0.60200  0.42410  0.25969  Biso   1.000  N
  N3       1.0000 0.10200  0.07590  0.74031  Biso   1.000  N
  N4       1.0000 0.39800  0.92410  0.24031  Biso   1.000  N
  N5       1.0000 0.10200  0.42410  0.24031  Biso   1.000  N
  N6       1.0000 0.39800  0.57590  0.74031  Biso   1.000  N
  N7       1.0000 0.89800  0.92410  0.25969  Biso   1.000  N
  N8       1.0000 0.60200  0.07590  0.75969  Biso   1.000  N
  N9       1.0000 0.83840  0.68620  0.69328  Biso   1.000  N
  N10      1.0000 0.66160  0.31380  0.19328  Biso   1.000  N
  N11      1.0000 0.16160  0.18620  0.80672  Biso   1.000  N
  N12      1.0000 0.33840  0.81380  0.30672  Biso   1.000  N
  N13      1.0000 0.16160  0.31380  0.30672  Biso   1.000  N
  N14      1.0000 0.33840  0.68620  0.80672  Biso   1.000  N
  N15      1.0000 0.83840  0.81380  0.19328  Biso   1.000  N
  N16      1.0000 0.66160  0.18620  0.69328  Biso   1.000  N
  C1       1.0000 0.66290  0.86520  0.60077  Biso   1.000  C
  C2       1.0000 0.83710  0.13480  0.10077  Biso   1.000  C
  C3       1.0000 0.33710  0.36520  0.89923  Biso   1.000  C
  C4       1.0000 0.16290  0.63480  0.39923  Biso   1.000  C
  C5       1.0000 0.33710  0.13480  0.39923  Biso   1.000  C
  C6       1.0000 0.16290  0.86520  0.89923  Biso   1.000  C
  C7       1.0000 0.66290  0.63480  0.10077  Biso   1.000  C
  C8       1.0000 0.83710  0.36520  0.60077  Biso   1.000  C
  C9       1.0000 0.83260  0.60650  0.73852  Biso   1.000  C
  C10      1.0000 0.66740  0.39350  0.23852  Biso   1.000  C
  C11      1.0000 0.16740  0.10650  0.76148  Biso   1.000  C
  C12      1.0000 0.33260  0.89350  0.26148  Biso   1.000  C
  C13      1.0000 0.16740  0.39350  0.26148  Biso   1.000  C
  C14      1.0000 0.33260  0.60650  0.76148  Biso   1.000  C
  C15      1.0000 0.83260  0.89350  0.23852  Biso   1.000  C
  C16      1.0000 0.66740  0.10650  0.73852  Biso   1.000  C
  H9       1.0000 0.78720  0.57617  0.75324  Biso   1.000  H
  H10      1.0000 0.71280  0.42383  0.25324  Biso   1.000  H
  H11      1.0000 0.21280  0.07617  0.74676  Biso   1.000  H
  H12      1.0000 0.28720  0.92383  0.24676  Biso   1.000  H
  H13      1.0000 0.21280  0.42383  0.24676  Biso   1.000  H
  H14      1.0000 0.28720  0.57617  0.74676  Biso   1.000  H
  H15      1.0000 0.78720  0.92383  0.25324  Biso   1.000  H
  H16      1.0000 0.71280  0.07617  0.75324  Biso   1.000  H
  C17      1.0000 0.77760  0.74670  0.66271  Biso   1.000  C
  C18      1.0000 0.72240  0.25330  0.16271  Biso   1.000  C
  C19      1.0000 0.22240  0.24670  0.83729  Biso   1.000  C
  C20      1.0000 0.27760  0.75330  0.33729  Biso   1.000  C
  C21      1.0000 0.22240  0.25330  0.33729  Biso   1.000  C
  C22      1.0000 0.27760  0.74670  0.83729  Biso   1.000  C
  C23      1.0000 0.77760  0.75330  0.16271  Biso   1.000  C
  C24      1.0000 0.72240  0.24670  0.66271  Biso   1.000  C
  C25      1.0000 0.60140  0.92250  0.56545  Biso   1.000  C
  C26      1.0000 0.89860  0.07750  0.06545  Biso   1.000  C
  C27      1.0000 0.39860  0.42250  0.93455  Biso   1.000  C
  C28      1.0000 0.10140  0.57750  0.43455  Biso   1.000  C
  C29      1.0000 0.39860  0.07750  0.43455  Biso   1.000  C
  C30      1.0000 0.10140  0.92250  0.93455  Biso   1.000  C
  C31      1.0000 0.60140  0.57750  0.06545  Biso   1.000  C
  C32      1.0000 0.89860  0.42250  0.56545  Biso   1.000  C
  C33      1.0000 0.87510  0.35400  0.81030  Biso   1.000  C
  C34      1.0000 0.62490  0.64600  0.31030  Biso   1.000  C
  C35      1.0000 0.12490  0.85400  0.68970  Biso   1.000  C
  C36      1.0000 0.37510  0.14600  0.18970  Biso   1.000  C
  C37      1.0000 0.12490  0.64600  0.18970  Biso   1.000  C
  C38      1.0000 0.37510  0.35400  0.68970  Biso   1.000  C
  C39      1.0000 0.87510  0.14600  0.31030  Biso   1.000  C
  C40      1.0000 0.62490  0.85400  0.81030  Biso   1.000  C
  H17      1.0000 0.84224  0.32383  0.78321  Biso   1.000  H
  H18      1.0000 0.65776  0.67617  0.28321  Biso   1.000  H
  H19      1.0000 0.15776  0.82383  0.71679  Biso   1.000  H
  H20      1.0000 0.34224  0.17617  0.21679  Biso   1.000  H
  H21      1.0000 0.15776  0.67617  0.21679  Biso   1.000  H
  H22      1.0000 0.34224  0.32383  0.71679  Biso   1.000  H
  H23      1.0000 0.84224  0.17617  0.28321  Biso   1.000  H
  H24      1.0000 0.65776  0.82383  0.78321  Biso   1.000  H
  C41      1.0000 0.96230  0.20480  0.93820  Biso   1.000  C
  C42      1.0000 0.53770  0.79520  0.43820  Biso   1.000  C
  C43      1.0000 0.03770  0.70480  0.56180  Biso   1.000  C
  C44      1.0000 0.46230  0.29520  0.06180  Biso   1.000  C
  C45      1.0000 0.03770  0.79520  0.06180  Biso   1.000  C
  C46      1.0000 0.46230  0.20480  0.56180  Biso   1.000  C
  C47      1.0000 0.96230  0.29520  0.43820  Biso   1.000  C
  C48      1.0000 0.53770  0.70480  0.93820  Biso   1.000  C
  C49      1.0000 0.91020  0.48800  0.80734  Biso   1.000  C
  C50      1.0000 0.58980  0.51200  0.30734  Biso   1.000  C
  C51      1.0000 0.08980  0.98800  0.69266  Biso   1.000  C
  C52      1.0000 0.41020  0.01200  0.19266  Biso   1.000  C
  C53      1.0000 0.08980  0.51200  0.19266  Biso   1.000  C
  C54      1.0000 0.41020  0.48800  0.69266  Biso   1.000  C
  C55      1.0000 0.91020  0.01200  0.30734  Biso   1.000  C
  C56      1.0000 0.58980  0.98800  0.80734  Biso   1.000  C
  C57      1.0000 0.70580  0.71000  0.67332  Biso   1.000  C
  C58      1.0000 0.79420  0.29000  0.17332  Biso   1.000  C
  C59      1.0000 0.29420  0.21000  0.82668  Biso   1.000  C
  C60      1.0000 0.20580  0.79000  0.32668  Biso   1.000  C
  C61      1.0000 0.29420  0.29000  0.32668  Biso   1.000  C
  C62      1.0000 0.20580  0.71000  0.82668  Biso   1.000  C
  C63      1.0000 0.70580  0.79000  0.17332  Biso   1.000  C
  C64      1.0000 0.79420  0.21000  0.67332  Biso   1.000  C
  H25      1.0000 0.69505  0.64516  0.70115  Biso   1.000  H
  H26      1.0000 0.80495  0.35484  0.20115  Biso   1.000  H
  H27      1.0000 0.30495  0.14516  0.79885  Biso   1.000  H
  H28      1.0000 0.19505  0.85484  0.29885  Biso   1.000  H
  H29      1.0000 0.30495  0.35484  0.29885  Biso   1.000  H
  H30      1.0000 0.19505  0.64516  0.79885  Biso   1.000  H
  H31      1.0000 0.69505  0.85484  0.20115  Biso   1.000  H
  H32      1.0000 0.80495  0.14516  0.70115  Biso   1.000  H
  C65      1.0000 0.89060  0.26680  0.85482  Biso   1.000  C
  C66      1.0000 0.60940  0.73320  0.35482  Biso   1.000  C
  C67      1.0000 0.10940  0.76680  0.64518  Biso   1.000  C
  C68      1.0000 0.39060  0.23320  0.14518  Biso   1.000  C
  C69      1.0000 0.10940  0.73320  0.14518  Biso   1.000  C
  C70      1.0000 0.39060  0.26680  0.64518  Biso   1.000  C
  C71      1.0000 0.89060  0.23320  0.35482  Biso   1.000  C
  C72      1.0000 0.60940  0.76680  0.85482  Biso   1.000  C
  H33      1.0000 0.86751  0.17712  0.85772  Biso   1.000  H
  H34      1.0000 0.63249  0.82288  0.35772  Biso   1.000  H
  H35      1.0000 0.13249  0.67712  0.64228  Biso   1.000  H
  H36      1.0000 0.36751  0.32288  0.14228  Biso   1.000  H
  H37      1.0000 0.13249  0.82288  0.14228  Biso   1.000  H
  H38      1.0000 0.36751  0.17712  0.64228  Biso   1.000  H
  H39      1.0000 0.86751  0.32288  0.35772  Biso   1.000  H
  H40      1.0000 0.63249  0.67712  0.85772  Biso   1.000  H
  C73      1.0000 0.64810  0.76930  0.64262  Biso   1.000  C
  C74      1.0000 0.85190  0.23070  0.14262  Biso   1.000  C
  C75      1.0000 0.35190  0.26930  0.85738  Biso   1.000  C
  C76      1.0000 0.14810  0.73070  0.35738  Biso   1.000  C
  C77      1.0000 0.35190  0.23070  0.35738  Biso   1.000  C
  C78      1.0000 0.14810  0.76930  0.85738  Biso   1.000  C
  C79      1.0000 0.64810  0.73070  0.14262  Biso   1.000  C
  C80      1.0000 0.85190  0.26930  0.64262  Biso   1.000  C
  H41      1.0000 0.59876  0.74409  0.65030  Biso   1.000  H
  H42      1.0000 0.90124  0.25591  0.15030  Biso   1.000  H
  H43      1.0000 0.40124  0.24409  0.84970  Biso   1.000  H
  H44      1.0000 0.09876  0.75591  0.34970  Biso   1.000  H
  H45      1.0000 0.40124  0.25591  0.34970  Biso   1.000  H
  H46      1.0000 0.09876  0.74409  0.84970  Biso   1.000  H
  H47      1.0000 0.59876  0.75591  0.15030  Biso   1.000  H
  H48      1.0000 0.90124  0.24409  0.65030  Biso   1.000  H
  C81      1.0000 0.93970  0.31130  0.89483  Biso   1.000  C
  C82      1.0000 0.56030  0.68870  0.39483  Biso   1.000  C
  C83      1.0000 0.06030  0.81130  0.60517  Biso   1.000  C
  C84      1.0000 0.43970  0.18870  0.10517  Biso   1.000  C
  C85      1.0000 0.06030  0.68870  0.10517  Biso   1.000  C
  C86      1.0000 0.43970  0.31130  0.60517  Biso   1.000  C
  C87      1.0000 0.93970  0.18870  0.39483  Biso   1.000  C
  C88      1.0000 0.56030  0.81130  0.89483  Biso   1.000  C
  C89      1.0000 0.97120  0.44910  0.89330  Biso   1.000  C
  C90      1.0000 0.52880  0.55090  0.39330  Biso   1.000  C
  C91      1.0000 0.02880  0.94910  0.60670  Biso   1.000  C
  C92      1.0000 0.47120  0.05090  0.10670  Biso   1.000  C
  C93      1.0000 0.02880  0.55090  0.10670  Biso   1.000  C
  C94      1.0000 0.47120  0.44910  0.60670  Biso   1.000  C
  C95      1.0000 0.97120  0.05090  0.39330  Biso   1.000  C
  C96      1.0000 0.52880  0.94910  0.89330  Biso   1.000  C
  H49      1.0000 0.00180  0.48088  0.92146  Biso   1.000  H
  H50      1.0000 0.49820  0.51912  0.42146  Biso   1.000  H
  H51      1.0000 0.99820  0.98088  0.57854  Biso   1.000  H
  H52      1.0000 0.50180  0.01912  0.07854  Biso   1.000  H
  H53      1.0000 0.99820  0.51912  0.07854  Biso   1.000  H
  H54      1.0000 0.50180  0.48088  0.57854  Biso   1.000  H
  H55      1.0000 0.00180  0.01912  0.42146  Biso   1.000  H
  H56      1.0000 0.49820  0.98088  0.92146  Biso   1.000  H
  C97      1.0000 0.95630  0.53840  0.84900  Biso   1.000  C
  C98      1.0000 0.54370  0.46160  0.34900  Biso   1.000  C
  C99      1.0000 0.04370  0.03840  0.65100  Biso   1.000  C
  C100     1.0000 0.45630  0.96160  0.15100  Biso   1.000  C
  C101     1.0000 0.04370  0.46160  0.15100  Biso   1.000  C
  C102     1.0000 0.45630  0.53840  0.65100  Biso   1.000  C
  C103     1.0000 0.95630  0.96160  0.34900  Biso   1.000  C
  C104     1.0000 0.54370  0.03840  0.84900  Biso   1.000  C
  H57      1.0000 0.97685  0.63052  0.84722  Biso   1.000  H
  H58      1.0000 0.52315  0.36948  0.34722  Biso   1.000  H
  H59      1.0000 0.02315  0.13052  0.65278  Biso   1.000  H
  H60      1.0000 0.47685  0.86948  0.15278  Biso   1.000  H
  H61      1.0000 0.02315  0.36948  0.15278  Biso   1.000  H
  H62      1.0000 0.47685  0.63052  0.65278  Biso   1.000  H
  H63      1.0000 0.97685  0.86948  0.34722  Biso   1.000  H
  H64      1.0000 0.52315  0.13052  0.84722  Biso   1.000  H
  C105     1.0000 0.91720  0.71120  0.68030  Biso   1.000  C
  C106     1.0000 0.58280  0.28880  0.18030  Biso   1.000  C
  C107     1.0000 0.08280  0.21120  0.81970  Biso   1.000  C
  C108     1.0000 0.41720  0.78880  0.31970  Biso   1.000  C
  C109     1.0000 0.08280  0.28880  0.31970  Biso   1.000  C
  C110     1.0000 0.41720  0.71120  0.81970  Biso   1.000  C
  C111     1.0000 0.91720  0.78880  0.18030  Biso   1.000  C
  C112     1.0000 0.58280  0.21120  0.68030  Biso   1.000  C
  H65      1.0000 0.92784  0.81366  0.67780  Biso   1.000  H
  H66      1.0000 0.57216  0.18634  0.17780  Biso   1.000  H
  H67      1.0000 0.07216  0.31366  0.82220  Biso   1.000  H
  H68      1.0000 0.42784  0.68634  0.32220  Biso   1.000  H
  H69      1.0000 0.07216  0.18634  0.32220  Biso   1.000  H
  H70      1.0000 0.42784  0.81366  0.82220  Biso   1.000  H
  H71      1.0000 0.92784  0.68634  0.17780  Biso   1.000  H
  H72      1.0000 0.57216  0.31366  0.67780  Biso   1.000  H
  H73      1.0000 0.93072  0.66528  0.64624  Biso   1.000  H
  H74      1.0000 0.56928  0.33472  0.14624  Biso   1.000  H
  H75      1.0000 0.06928  0.16528  0.85376  Biso   1.000  H
  H76      1.0000 0.43072  0.83472  0.35376  Biso   1.000  H
  H77      1.0000 0.06928  0.33472  0.35376  Biso   1.000  H
  H78      1.0000 0.43072  0.66528  0.85376  Biso   1.000  H
  H79      1.0000 0.93072  0.83472  0.14624  Biso   1.000  H
  H80      1.0000 0.56928  0.16528  0.64624  Biso   1.000  H
  C113     1.0000 0.73680  0.90120  0.59060  Biso   1.000  C
  C114     1.0000 0.76320  0.09880  0.09060  Biso   1.000  C
  C115     1.0000 0.26320  0.40120  0.90940  Biso   1.000  C
  C116     1.0000 0.23680  0.59880  0.40940  Biso   1.000  C
  C117     1.0000 0.26320  0.09880  0.40940  Biso   1.000  C
  C118     1.0000 0.23680  0.90120  0.90940  Biso   1.000  C
  C119     1.0000 0.73680  0.59880  0.09060  Biso   1.000  C
  C120     1.0000 0.76320  0.40120  0.59060  Biso   1.000  C
  H81      1.0000 0.74794  0.96634  0.56296  Biso   1.000  H
  H82      1.0000 0.75206  0.03366  0.06296  Biso   1.000  H
  H83      1.0000 0.25206  0.46634  0.93704  Biso   1.000  H
  H84      1.0000 0.24794  0.53366  0.43704  Biso   1.000  H
  H85      1.0000 0.25206  0.03366  0.43704  Biso   1.000  H
  H86      1.0000 0.24794  0.96634  0.93704  Biso   1.000  H
  H87      1.0000 0.74794  0.53366  0.06296  Biso   1.000  H
  H88      1.0000 0.75206  0.46634  0.56296  Biso   1.000  H
  C121     1.0000 0.95960  0.64230  0.72850  Biso   1.000  C
  C122     1.0000 0.54040  0.35770  0.22850  Biso   1.000  C
  C123     1.0000 0.04040  0.14230  0.77150  Biso   1.000  C
  C124     1.0000 0.45960  0.85770  0.27150  Biso   1.000  C
  C125     1.0000 0.04040  0.35770  0.27150  Biso   1.000  C
  C126     1.0000 0.45960  0.64230  0.77150  Biso   1.000  C
  C127     1.0000 0.95960  0.85770  0.22850  Biso   1.000  C
  C128     1.0000 0.54040  0.14230  0.72850  Biso   1.000  C
  H89      1.0000 0.99521  0.57041  0.71615  Biso   1.000  H
  H90      1.0000 0.50479  0.42959  0.21615  Biso   1.000  H
  H91      1.0000 0.00479  0.07041  0.78385  Biso   1.000  H
  H92      1.0000 0.49521  0.92959  0.28385  Biso   1.000  H
  H93      1.0000 0.00479  0.42959  0.28385  Biso   1.000  H
  H94      1.0000 0.49521  0.57041  0.78385  Biso   1.000  H
  H95      1.0000 0.99521  0.92959  0.21615  Biso   1.000  H
  H96      1.0000 0.50479  0.07041  0.71615  Biso   1.000  H
  H97      1.0000 0.98564  0.71455  0.74994  Biso   1.000  H
  H98      1.0000 0.51436  0.28545  0.24994  Biso   1.000  H
  H99      1.0000 0.01436  0.21455  0.75006  Biso   1.000  H
  H100     1.0000 0.48564  0.78545  0.25006  Biso   1.000  H
  H101     1.0000 0.01436  0.28545  0.25006  Biso   1.000  H
  H102     1.0000 0.48564  0.71455  0.75006  Biso   1.000  H
  H103     1.0000 0.98564  0.78545  0.24994  Biso   1.000  H
  H104     1.0000 0.51436  0.21455  0.74994  Biso   1.000  H
  C129     1.0000 0.79410  0.84200  0.62080  Biso   1.000  C
  C130     1.0000 0.70590  0.15800  0.12080  Biso   1.000  C
  C131     1.0000 0.20590  0.34200  0.87920  Biso   1.000  C
  C132     1.0000 0.29410  0.65800  0.37920  Biso   1.000  C
  C133     1.0000 0.20590  0.15800  0.37920  Biso   1.000  C
  C134     1.0000 0.29410  0.84200  0.87920  Biso   1.000  C
  C135     1.0000 0.79410  0.65800  0.12080  Biso   1.000  C
  C136     1.0000 0.70590  0.34200  0.62080  Biso   1.000  C
  H105     1.0000 0.84363  0.86581  0.61316  Biso   1.000  H
  H106     1.0000 0.65637  0.13419  0.11316  Biso   1.000  H
  H107     1.0000 0.15637  0.36581  0.88684  Biso   1.000  H
  H108     1.0000 0.34363  0.63419  0.38684  Biso   1.000  H
  H109     1.0000 0.15637  0.13419  0.38684  Biso   1.000  H
  H110     1.0000 0.34363  0.86581  0.88684  Biso   1.000  H
  H111     1.0000 0.84363  0.63419  0.11316  Biso   1.000  H
  H112     1.0000 0.65637  0.36581  0.61316  Biso   1.000  H
  C137     1.0000 0.29860  0.75160  0.55200  Biso   1.000  C
  C138     1.0000 0.20140  0.24840  0.05200  Biso   1.000  C
  C139     1.0000 0.70140  0.25160  0.94800  Biso   1.000  C
  C140     1.0000 0.79860  0.74840  0.44800  Biso   1.000  C
  C141     1.0000 0.70140  0.24840  0.44800  Biso   1.000  C
  C142     1.0000 0.79860  0.75160  0.94800  Biso   1.000  C
  C143     1.0000 0.29860  0.74840  0.05200  Biso   1.000  C
  C144     1.0000 0.20140  0.25160  0.55200  Biso   1.000  C
  H113     1.0000 0.29608  0.75816  0.51259  Biso   1.000  H
  H114     1.0000 0.20392  0.24184  0.01259  Biso   1.000  H
  H115     1.0000 0.70392  0.25816  0.98741  Biso   1.000  H
  H116     1.0000 0.79608  0.74184  0.48741  Biso   1.000  H
  H117     1.0000 0.70392  0.24184  0.48741  Biso   1.000  H
  H118     1.0000 0.79608  0.75816  0.98741  Biso   1.000  H
  H119     1.0000 0.29608  0.74184  0.01259  Biso   1.000  H
  H120     1.0000 0.20392  0.25816  0.51259  Biso   1.000  H
  H121     1.0000 0.26304  0.81975  0.56721  Biso   1.000  H
  H122     1.0000 0.23696  0.18025  0.06721  Biso   1.000  H
  H123     1.0000 0.73696  0.31975  0.93279  Biso   1.000  H
  H124     1.0000 0.76304  0.68025  0.43279  Biso   1.000  H
  H125     1.0000 0.73696  0.18025  0.43279  Biso   1.000  H
  H126     1.0000 0.76304  0.81975  0.93279  Biso   1.000  H
  H127     1.0000 0.26304  0.68025  0.06721  Biso   1.000  H
  H128     1.0000 0.23696  0.31975  0.56721  Biso   1.000  H
  C145     1.0000 0.27890  0.59940  0.57010  Biso   1.000  C
  C146     1.0000 0.22110  0.40060  0.07010  Biso   1.000  C
  C147     1.0000 0.72110  0.09940  0.92990  Biso   1.000  C
  C148     1.0000 0.77890  0.90060  0.42990  Biso   1.000  C
  C149     1.0000 0.72110  0.40060  0.42990  Biso   1.000  C
  C150     1.0000 0.77890  0.59940  0.92990  Biso   1.000  C
  C151     1.0000 0.27890  0.90060  0.07010  Biso   1.000  C
  C152     1.0000 0.22110  0.09940  0.57010  Biso   1.000  C
  H129     1.0000 0.31586  0.53316  0.55661  Biso   1.000  H
  H130     1.0000 0.18414  0.46684  0.05661  Biso   1.000  H
  H131     1.0000 0.68414  0.03316  0.94339  Biso   1.000  H
  H132     1.0000 0.81586  0.96684  0.44339  Biso   1.000  H
  H133     1.0000 0.68414  0.46684  0.44339  Biso   1.000  H
  H134     1.0000 0.81586  0.53316  0.94339  Biso   1.000  H
  H135     1.0000 0.31586  0.96684  0.05661  Biso   1.000  H
  H136     1.0000 0.18414  0.03316  0.55661  Biso   1.000  H
  H137     1.0000 0.23050  0.57358  0.55604  Biso   1.000  H
  H138     1.0000 0.26950  0.42642  0.05604  Biso   1.000  H
  H139     1.0000 0.76950  0.07358  0.94396  Biso   1.000  H
  H140     1.0000 0.73050  0.92642  0.44396  Biso   1.000  H
  H141     1.0000 0.76950  0.42642  0.44396  Biso   1.000  H
  H142     1.0000 0.73050  0.57358  0.94396  Biso   1.000  H
  H143     1.0000 0.23050  0.92642  0.05604  Biso   1.000  H
  H144     1.0000 0.26950  0.07358  0.55604  Biso   1.000  H
  H145     1.0000 0.27788  0.59539  0.60918  Biso   1.000  H
  H146     1.0000 0.22212  0.40461  0.10918  Biso   1.000  H
  H147     1.0000 0.72212  0.09539  0.89082  Biso   1.000  H
  H148     1.0000 0.77788  0.90461  0.39082  Biso   1.000  H
  H149     1.0000 0.72212  0.40461  0.39082  Biso   1.000  H
  H150     1.0000 0.77788  0.59539  0.89082  Biso   1.000  H
  H151     1.0000 0.27788  0.90461  0.10918  Biso   1.000  H
  H152     1.0000 0.22212  0.09539  0.60918  Biso   1.000  H
  O41      1.0000 0.40950  0.87940  0.67970  Biso   1.000  O
  O42      1.0000 0.09050  0.12060  0.17970  Biso   1.000  O
  O43      1.0000 0.59050  0.37940  0.82030  Biso   1.000  O
  O44      1.0000 0.90950  0.62060  0.32030  Biso   1.000  O
  O45      1.0000 0.59050  0.12060  0.32030  Biso   1.000  O
  O46      1.0000 0.90950  0.87940  0.82030  Biso   1.000  O
  O47      1.0000 0.40950  0.62060  0.17970  Biso   1.000  O
  O48      1.0000 0.09050  0.37940  0.67970  Biso   1.000  O
  N17      1.0000 0.35630  0.93010  0.70720  Biso   1.000  N
  N18      1.0000 0.14370  0.06990  0.20720  Biso   1.000  N
  N19      1.0000 0.64370  0.43010  0.79280  Biso   1.000  N
  N20      1.0000 0.85630  0.56990  0.29280  Biso   1.000  N
  N21      1.0000 0.64370  0.06990  0.29280  Biso   1.000  N
  N22      1.0000 0.85630  0.93010  0.79280  Biso   1.000  N
  N23      1.0000 0.35630  0.56990  0.20720  Biso   1.000  N
  N24      1.0000 0.14370  0.43010  0.70720  Biso   1.000  N
  O49      1.0000 0.37730  0.98200  0.75220  Biso   1.000  O
  O50      1.0000 0.12270  0.01800  0.25220  Biso   1.000  O
  O51      1.0000 0.62270  0.48200  0.74780  Biso   1.000  O
  O52      1.0000 0.87730  0.51800  0.24780  Biso   1.000  O
  O53      1.0000 0.62270  0.01800  0.24780  Biso   1.000  O
  O54      1.0000 0.87730  0.98200  0.74780  Biso   1.000  O
  O55      1.0000 0.37730  0.51800  0.25220  Biso   1.000  O
  O56      1.0000 0.12270  0.48200  0.75220  Biso   1.000  O
  O57      1.0000 0.29460  0.93500  0.69480  Biso   1.000  O
  O58      1.0000 0.20540  0.06500  0.19480  Biso   1.000  O
  O59      1.0000 0.70540  0.43500  0.80520  Biso   1.000  O
  O60      1.0000 0.79460  0.56500  0.30520  Biso   1.000  O
  O61      1.0000 0.70540  0.06500  0.30520  Biso   1.000  O
  O62      1.0000 0.79460  0.93500  0.80520  Biso   1.000  O
  O63      1.0000 0.29460  0.56500  0.19480  Biso   1.000  O
  O64      1.0000 0.20540  0.43500  0.69480  Biso   1.000  O
