data_image0
_cell_length_a       16.61
_cell_length_b       8.957
_cell_length_c       25.681
_cell_angle_alpha    90
_cell_angle_beta     90
_cell_angle_gamma    90

_symmetry_space_group_name_H-M    "P 1"
_symmetry_int_tables_number       1

loop_
  _symmetry_equiv_pos_as_xyz
  'x, y, z'

loop_
  _atom_site_label
  _atom_site_occupancy
  _atom_site_fract_x
  _atom_site_fract_y
  _atom_site_fract_z
  _atom_site_thermal_displace_type
  _atom_site_B_iso_or_equiv
  _atom_site_type_symbol
  Cu1      1.0000 0.44736  0.09280  0.52103  Biso   1.000  Cu
  Cu2      1.0000 0.05264  0.90720  0.02103  Biso   1.000  Cu
  Cu3      1.0000 0.55264  0.59280  0.97897  Biso   1.000  Cu
  Cu4      1.0000 0.94736  0.40720  0.47897  Biso   1.000  Cu
  Cu5      1.0000 0.55264  0.90720  0.47897  Biso   1.000  Cu
  Cu6      1.0000 0.94736  0.09280  0.97897  Biso   1.000  Cu
  Cu7      1.0000 0.44736  0.40720  0.02103  Biso   1.000  Cu
  Cu8      1.0000 0.05264  0.59280  0.52103  Biso   1.000  Cu
  O1       1.0000 0.53660  0.13850  0.56810  Biso   1.000  O
  O2       1.0000 0.96340  0.86150  0.06810  Biso   1.000  O
  O3       1.0000 0.46340  0.63850  0.93190  Biso   1.000  O
  O4       1.0000 0.03660  0.36150  0.43190  Biso   1.000  O
  O5       1.0000 0.46340  0.86150  0.43190  Biso   1.000  O
  O6       1.0000 0.03660  0.13850  0.93190  Biso   1.000  O
  O7       1.0000 0.53660  0.36150  0.06810  Biso   1.000  O
  O8       1.0000 0.96340  0.63850  0.56810  Biso   1.000  O
  O9       1.0000 0.62530  0.98060  0.53300  Biso   1.000  O
  O10      1.0000 0.87470  0.01940  0.03300  Biso   1.000  O
  O11      1.0000 0.37470  0.48060  0.96700  Biso   1.000  O
  O12      1.0000 0.12530  0.51940  0.46700  Biso   1.000  O
  O13      1.0000 0.37470  0.01940  0.46700  Biso   1.000  O
  O14      1.0000 0.12530  0.98060  0.96700  Biso   1.000  O
  O15      1.0000 0.62530  0.51940  0.03300  Biso   1.000  O
  O16      1.0000 0.87470  0.48060  0.53300  Biso   1.000  O
  O17      1.0000 0.01440  0.75570  0.97300  Biso   1.000  O
  O18      1.0000 0.48560  0.24430  0.47300  Biso   1.000  O
  O19      1.0000 0.98560  0.25570  0.52700  Biso   1.000  O
  O20      1.0000 0.51440  0.74430  0.02700  Biso   1.000  O
  O21      1.0000 0.98560  0.24430  0.02700  Biso   1.000  O
  O22      1.0000 0.51440  0.75570  0.52700  Biso   1.000  O
  O23      1.0000 0.01440  0.74430  0.47300  Biso   1.000  O
  O24      1.0000 0.48560  0.25570  0.97300  Biso   1.000  O
  O25      1.0000 0.35600  0.21080  0.56430  Biso   1.000  O
  O26      1.0000 0.14400  0.78920  0.06430  Biso   1.000  O
  O27      1.0000 0.64400  0.71080  0.93570  Biso   1.000  O
  O28      1.0000 0.85600  0.28920  0.43570  Biso   1.000  O
  O29      1.0000 0.64400  0.78920  0.43570  Biso   1.000  O
  O30      1.0000 0.85600  0.21080  0.93570  Biso   1.000  O
  O31      1.0000 0.35600  0.28920  0.06430  Biso   1.000  O
  O32      1.0000 0.14400  0.71080  0.56430  Biso   1.000  O
  O33      1.0000 0.92300  0.90990  0.93950  Biso   1.000  O
  O34      1.0000 0.57700  0.09010  0.43950  Biso   1.000  O
  O35      1.0000 0.07700  0.40990  0.56050  Biso   1.000  O
  O36      1.0000 0.42300  0.59010  0.06050  Biso   1.000  O
  O37      1.0000 0.07700  0.09010  0.06050  Biso   1.000  O
  O38      1.0000 0.42300  0.90990  0.56050  Biso   1.000  O
  O39      1.0000 0.92300  0.59010  0.43950  Biso   1.000  O
  O40      1.0000 0.57700  0.40990  0.93950  Biso   1.000  O
  N1       1.0000 0.84500  0.31390  0.69920  Biso   1.000  N
  N2       1.0000 0.65500  0.68610  0.19920  Biso   1.000  N
  N3       1.0000 0.15500  0.81390  0.80080  Biso   1.000  N
  N4       1.0000 0.34500  0.18610  0.30080  Biso   1.000  N
  N5       1.0000 0.15500  0.68610  0.30080  Biso   1.000  N
  N6       1.0000 0.34500  0.31390  0.80080  Biso   1.000  N
  N7       1.0000 0.84500  0.18610  0.19920  Biso   1.000  N
  N8       1.0000 0.65500  0.81390  0.69920  Biso   1.000  N
  C1       1.0000 0.66800  0.13700  0.59990  Biso   1.000  C
  C2       1.0000 0.83200  0.86300  0.09990  Biso   1.000  C
  C3       1.0000 0.33200  0.63700  0.90010  Biso   1.000  C
  C4       1.0000 0.16800  0.36300  0.40010  Biso   1.000  C
  C5       1.0000 0.33200  0.86300  0.40010  Biso   1.000  C
  C6       1.0000 0.16800  0.13700  0.90010  Biso   1.000  C
  C7       1.0000 0.66800  0.36300  0.09990  Biso   1.000  C
  C8       1.0000 0.83200  0.63700  0.59990  Biso   1.000  C
  N9       1.0000 0.90190  0.41410  0.76890  Biso   1.000  N
  N10      1.0000 0.59810  0.58590  0.26890  Biso   1.000  N
  N11      1.0000 0.09810  0.91410  0.73110  Biso   1.000  N
  N12      1.0000 0.40190  0.08590  0.23110  Biso   1.000  N
  N13      1.0000 0.09810  0.58590  0.23110  Biso   1.000  N
  N14      1.0000 0.40190  0.41410  0.73110  Biso   1.000  N
  N15      1.0000 0.90190  0.08590  0.26890  Biso   1.000  N
  N16      1.0000 0.59810  0.91410  0.76890  Biso   1.000  N
  C9       1.0000 0.78390  0.25400  0.66650  Biso   1.000  C
  C10      1.0000 0.71610  0.74600  0.16650  Biso   1.000  C
  C11      1.0000 0.21610  0.75400  0.83350  Biso   1.000  C
  C12      1.0000 0.28390  0.24600  0.33350  Biso   1.000  C
  C13      1.0000 0.21610  0.74600  0.33350  Biso   1.000  C
  C14      1.0000 0.28390  0.25400  0.83350  Biso   1.000  C
  C15      1.0000 0.78390  0.24600  0.16650  Biso   1.000  C
  C16      1.0000 0.71610  0.75400  0.66650  Biso   1.000  C
  C17      1.0000 0.93720  0.67570  0.89940  Biso   1.000  C
  C18      1.0000 0.56280  0.32430  0.39940  Biso   1.000  C
  C19      1.0000 0.06280  0.17570  0.60060  Biso   1.000  C
  C20      1.0000 0.43720  0.82430  0.10060  Biso   1.000  C
  C21      1.0000 0.06280  0.32430  0.10060  Biso   1.000  C
  C22      1.0000 0.43720  0.67570  0.60060  Biso   1.000  C
  C23      1.0000 0.93720  0.82430  0.39940  Biso   1.000  C
  C24      1.0000 0.56280  0.17570  0.89940  Biso   1.000  C
  C25      1.0000 0.96140  0.78900  0.94170  Biso   1.000  C
  C26      1.0000 0.53860  0.21100  0.44170  Biso   1.000  C
  C27      1.0000 0.03860  0.28900  0.55830  Biso   1.000  C
  C28      1.0000 0.46140  0.71100  0.05830  Biso   1.000  C
  C29      1.0000 0.03860  0.21100  0.05830  Biso   1.000  C
  C30      1.0000 0.46140  0.78900  0.55830  Biso   1.000  C
  C31      1.0000 0.96140  0.71100  0.44170  Biso   1.000  C
  C32      1.0000 0.53860  0.28900  0.94170  Biso   1.000  C
  C33      1.0000 0.60440  0.08100  0.56460  Biso   1.000  C
  C34      1.0000 0.89560  0.91900  0.06460  Biso   1.000  C
  C35      1.0000 0.39560  0.58100  0.93540  Biso   1.000  C
  C36      1.0000 0.10440  0.41900  0.43540  Biso   1.000  C
  C37      1.0000 0.39560  0.91900  0.43540  Biso   1.000  C
  C38      1.0000 0.10440  0.08100  0.93540  Biso   1.000  C
  C39      1.0000 0.60440  0.41900  0.06460  Biso   1.000  C
  C40      1.0000 0.89560  0.58100  0.56460  Biso   1.000  C
  C41      1.0000 0.91120  0.49960  0.81520  Biso   1.000  C
  C42      1.0000 0.58880  0.50040  0.31520  Biso   1.000  C
  C43      1.0000 0.08880  0.99960  0.68480  Biso   1.000  C
  C44      1.0000 0.41120  0.00040  0.18480  Biso   1.000  C
  C45      1.0000 0.08880  0.50040  0.18480  Biso   1.000  C
  C46      1.0000 0.41120  0.49960  0.68480  Biso   1.000  C
  C47      1.0000 0.91120  0.00040  0.31520  Biso   1.000  C
  C48      1.0000 0.58880  0.99960  0.81520  Biso   1.000  C
  C49      1.0000 0.74600  0.12500  0.58980  Biso   1.000  C
  C50      1.0000 0.75400  0.87500  0.08980  Biso   1.000  C
  C51      1.0000 0.25400  0.62500  0.91020  Biso   1.000  C
  C52      1.0000 0.24600  0.37500  0.41020  Biso   1.000  C
  C53      1.0000 0.25400  0.87500  0.41020  Biso   1.000  C
  C54      1.0000 0.24600  0.12500  0.91020  Biso   1.000  C
  C55      1.0000 0.74600  0.37500  0.08980  Biso   1.000  C
  C56      1.0000 0.75400  0.62500  0.58980  Biso   1.000  C
  H1       1.0000 0.76153  0.07462  0.55880  Biso   1.000  H
  H2       1.0000 0.73847  0.92538  0.05880  Biso   1.000  H
  H3       1.0000 0.23847  0.57462  0.94120  Biso   1.000  H
  H4       1.0000 0.26153  0.42538  0.44120  Biso   1.000  H
  H5       1.0000 0.23847  0.92538  0.44120  Biso   1.000  H
  H6       1.0000 0.26153  0.07462  0.94120  Biso   1.000  H
  H7       1.0000 0.76153  0.42538  0.05880  Biso   1.000  H
  H8       1.0000 0.73847  0.57462  0.55880  Biso   1.000  H
  C57      1.0000 0.97190  0.53770  0.89850  Biso   1.000  C
  C58      1.0000 0.52810  0.46230  0.39850  Biso   1.000  C
  C59      1.0000 0.02810  0.03770  0.60150  Biso   1.000  C
  C60      1.0000 0.47190  0.96230  0.10150  Biso   1.000  C
  C61      1.0000 0.02810  0.46230  0.10150  Biso   1.000  C
  C62      1.0000 0.47190  0.53770  0.60150  Biso   1.000  C
  C63      1.0000 0.97190  0.96230  0.39850  Biso   1.000  C
  C64      1.0000 0.52810  0.03770  0.89850  Biso   1.000  C
  H9       1.0000 0.00406  0.50340  0.92666  Biso   1.000  H
  H10      1.0000 0.49594  0.49660  0.42666  Biso   1.000  H
  H11      1.0000 0.99594  0.00340  0.57334  Biso   1.000  H
  H12      1.0000 0.50406  0.99660  0.07334  Biso   1.000  H
  H13      1.0000 0.99594  0.49660  0.07334  Biso   1.000  H
  H14      1.0000 0.50406  0.50340  0.57334  Biso   1.000  H
  H15      1.0000 0.00406  0.99660  0.42666  Biso   1.000  H
  H16      1.0000 0.49594  0.00340  0.92666  Biso   1.000  H
  C65      1.0000 0.88400  0.72200  0.86080  Biso   1.000  C
  C66      1.0000 0.61600  0.27800  0.36080  Biso   1.000  C
  C67      1.0000 0.11600  0.22200  0.63920  Biso   1.000  C
  C68      1.0000 0.38400  0.77800  0.13920  Biso   1.000  C
  C69      1.0000 0.11600  0.27800  0.13920  Biso   1.000  C
  C70      1.0000 0.38400  0.72200  0.63920  Biso   1.000  C
  C71      1.0000 0.88400  0.77800  0.36080  Biso   1.000  C
  C72      1.0000 0.61600  0.22200  0.86080  Biso   1.000  C
  H17      1.0000 0.85626  0.81442  0.86401  Biso   1.000  H
  H18      1.0000 0.64374  0.18558  0.36401  Biso   1.000  H
  H19      1.0000 0.14374  0.31442  0.63599  Biso   1.000  H
  H20      1.0000 0.35626  0.68558  0.13599  Biso   1.000  H
  H21      1.0000 0.14374  0.18558  0.13599  Biso   1.000  H
  H22      1.0000 0.35626  0.81442  0.63599  Biso   1.000  H
  H23      1.0000 0.85626  0.68558  0.36401  Biso   1.000  H
  H24      1.0000 0.64374  0.31442  0.86401  Biso   1.000  H
  C73      1.0000 0.95840  0.44900  0.85490  Biso   1.000  C
  C74      1.0000 0.54160  0.55100  0.35490  Biso   1.000  C
  C75      1.0000 0.04160  0.94900  0.64510  Biso   1.000  C
  C76      1.0000 0.45840  0.05100  0.14510  Biso   1.000  C
  C77      1.0000 0.04160  0.55100  0.14510  Biso   1.000  C
  C78      1.0000 0.45840  0.44900  0.64510  Biso   1.000  C
  C79      1.0000 0.95840  0.05100  0.35490  Biso   1.000  C
  C80      1.0000 0.54160  0.94900  0.85490  Biso   1.000  C
  H25      1.0000 0.98221  0.35278  0.85280  Biso   1.000  H
  H26      1.0000 0.51779  0.64722  0.35280  Biso   1.000  H
  H27      1.0000 0.01779  0.85278  0.64720  Biso   1.000  H
  H28      1.0000 0.48221  0.14722  0.14720  Biso   1.000  H
  H29      1.0000 0.01779  0.64722  0.14720  Biso   1.000  H
  H30      1.0000 0.48221  0.35278  0.64720  Biso   1.000  H
  H31      1.0000 0.98221  0.14722  0.35280  Biso   1.000  H
  H32      1.0000 0.51779  0.85278  0.85280  Biso   1.000  H
  C81      1.0000 0.83520  0.38900  0.74360  Biso   1.000  C
  C82      1.0000 0.66480  0.61100  0.24360  Biso   1.000  C
  C83      1.0000 0.16480  0.88900  0.75640  Biso   1.000  C
  C84      1.0000 0.33520  0.11100  0.25640  Biso   1.000  C
  C85      1.0000 0.16480  0.61100  0.25640  Biso   1.000  C
  C86      1.0000 0.33520  0.38900  0.75640  Biso   1.000  C
  C87      1.0000 0.83520  0.11100  0.24360  Biso   1.000  C
  C88      1.0000 0.66480  0.88900  0.74360  Biso   1.000  C
  H33      1.0000 0.78408  0.42165  0.75575  Biso   1.000  H
  H34      1.0000 0.71592  0.57835  0.25575  Biso   1.000  H
  H35      1.0000 0.21592  0.92165  0.74425  Biso   1.000  H
  H36      1.0000 0.28408  0.07835  0.24425  Biso   1.000  H
  H37      1.0000 0.21592  0.57835  0.24425  Biso   1.000  H
  H38      1.0000 0.28408  0.42165  0.74425  Biso   1.000  H
  H39      1.0000 0.78408  0.07835  0.25575  Biso   1.000  H
  H40      1.0000 0.71592  0.92165  0.75575  Biso   1.000  H
  C89      1.0000 0.93030  0.28400  0.69220  Biso   1.000  C
  C90      1.0000 0.56970  0.71600  0.19220  Biso   1.000  C
  C91      1.0000 0.06970  0.78400  0.80780  Biso   1.000  C
  C92      1.0000 0.43030  0.21600  0.30780  Biso   1.000  C
  C93      1.0000 0.06970  0.71600  0.30780  Biso   1.000  C
  C94      1.0000 0.43030  0.28400  0.80780  Biso   1.000  C
  C95      1.0000 0.93030  0.21600  0.19220  Biso   1.000  C
  C96      1.0000 0.56970  0.78400  0.69220  Biso   1.000  C
  H41      1.0000 0.95170  0.33974  0.66180  Biso   1.000  H
  H42      1.0000 0.54830  0.66026  0.16180  Biso   1.000  H
  H43      1.0000 0.04830  0.83974  0.83820  Biso   1.000  H
  H44      1.0000 0.45170  0.16026  0.33820  Biso   1.000  H
  H45      1.0000 0.04830  0.66026  0.33820  Biso   1.000  H
  H46      1.0000 0.45170  0.33974  0.83820  Biso   1.000  H
  H47      1.0000 0.95170  0.16026  0.16180  Biso   1.000  H
  H48      1.0000 0.54830  0.83974  0.66180  Biso   1.000  H
  H49      1.0000 0.94022  0.17640  0.68698  Biso   1.000  H
  H50      1.0000 0.55978  0.82360  0.18698  Biso   1.000  H
  H51      1.0000 0.05978  0.67640  0.81302  Biso   1.000  H
  H52      1.0000 0.44022  0.32360  0.31302  Biso   1.000  H
  H53      1.0000 0.05978  0.82360  0.31302  Biso   1.000  H
  H54      1.0000 0.44022  0.17640  0.81302  Biso   1.000  H
  H55      1.0000 0.94022  0.32360  0.18698  Biso   1.000  H
  H56      1.0000 0.55978  0.67640  0.68698  Biso   1.000  H
  C97      1.0000 0.80590  0.18000  0.62130  Biso   1.000  C
  C98      1.0000 0.69410  0.82000  0.12130  Biso   1.000  C
  C99      1.0000 0.19410  0.68000  0.87870  Biso   1.000  C
  C100     1.0000 0.30590  0.32000  0.37870  Biso   1.000  C
  C101     1.0000 0.19410  0.82000  0.37870  Biso   1.000  C
  C102     1.0000 0.30590  0.18000  0.87870  Biso   1.000  C
  C103     1.0000 0.80590  0.32000  0.12130  Biso   1.000  C
  C104     1.0000 0.69410  0.68000  0.62130  Biso   1.000  C
  H57      1.0000 0.86099  0.16790  0.61227  Biso   1.000  H
  H58      1.0000 0.63901  0.83210  0.11227  Biso   1.000  H
  H59      1.0000 0.13901  0.66790  0.88773  Biso   1.000  H
  H60      1.0000 0.36099  0.33210  0.38773  Biso   1.000  H
  H61      1.0000 0.13901  0.83210  0.38773  Biso   1.000  H
  H62      1.0000 0.36099  0.16790  0.88773  Biso   1.000  H
  H63      1.0000 0.86099  0.33210  0.11227  Biso   1.000  H
  H64      1.0000 0.63901  0.66790  0.61227  Biso   1.000  H
  C105     1.0000 0.64730  0.21300  0.64480  Biso   1.000  C
  C106     1.0000 0.85270  0.78700  0.14480  Biso   1.000  C
  C107     1.0000 0.35270  0.71300  0.85520  Biso   1.000  C
  C108     1.0000 0.14730  0.28700  0.35520  Biso   1.000  C
  C109     1.0000 0.35270  0.78700  0.35520  Biso   1.000  C
  C110     1.0000 0.14730  0.21300  0.85520  Biso   1.000  C
  C111     1.0000 0.64730  0.28700  0.14480  Biso   1.000  C
  C112     1.0000 0.85270  0.71300  0.64480  Biso   1.000  C
  H65      1.0000 0.59204  0.22492  0.65351  Biso   1.000  H
  H66      1.0000 0.90796  0.77508  0.15351  Biso   1.000  H
  H67      1.0000 0.40796  0.72492  0.84649  Biso   1.000  H
  H68      1.0000 0.09204  0.27508  0.34649  Biso   1.000  H
  H69      1.0000 0.40796  0.77508  0.34649  Biso   1.000  H
  H70      1.0000 0.09204  0.22492  0.84649  Biso   1.000  H
  H71      1.0000 0.59204  0.27508  0.15351  Biso   1.000  H
  H72      1.0000 0.90796  0.72492  0.65351  Biso   1.000  H
  C113     1.0000 0.87210  0.63430  0.81840  Biso   1.000  C
  C114     1.0000 0.62790  0.36570  0.31840  Biso   1.000  C
  C115     1.0000 0.12790  0.13430  0.68160  Biso   1.000  C
  C116     1.0000 0.37210  0.86570  0.18160  Biso   1.000  C
  C117     1.0000 0.12790  0.36570  0.18160  Biso   1.000  C
  C118     1.0000 0.37210  0.63430  0.68160  Biso   1.000  C
  C119     1.0000 0.87210  0.86570  0.31840  Biso   1.000  C
  C120     1.0000 0.62790  0.13430  0.81840  Biso   1.000  C
  H73      1.0000 0.83707  0.66564  0.79126  Biso   1.000  H
  H74      1.0000 0.66293  0.33436  0.29126  Biso   1.000  H
  H75      1.0000 0.16293  0.16564  0.70874  Biso   1.000  H
  H76      1.0000 0.33707  0.83436  0.20874  Biso   1.000  H
  H77      1.0000 0.16293  0.33436  0.20874  Biso   1.000  H
  H78      1.0000 0.33707  0.66564  0.70874  Biso   1.000  H
  H79      1.0000 0.83707  0.83436  0.29126  Biso   1.000  H
  H80      1.0000 0.66293  0.16564  0.79126  Biso   1.000  H
  C121     1.0000 0.70590  0.27100  0.67750  Biso   1.000  C
  C122     1.0000 0.79410  0.72900  0.17750  Biso   1.000  C
  C123     1.0000 0.29410  0.77100  0.82250  Biso   1.000  C
  C124     1.0000 0.20590  0.22900  0.32250  Biso   1.000  C
  C125     1.0000 0.29410  0.72900  0.32250  Biso   1.000  C
  C126     1.0000 0.20590  0.27100  0.82250  Biso   1.000  C
  C127     1.0000 0.70590  0.22900  0.17750  Biso   1.000  C
  C128     1.0000 0.79410  0.77100  0.67750  Biso   1.000  C
  H81      1.0000 0.69042  0.32396  0.70798  Biso   1.000  H
  H82      1.0000 0.80958  0.67604  0.20798  Biso   1.000  H
  H83      1.0000 0.30958  0.82396  0.79202  Biso   1.000  H
  H84      1.0000 0.19042  0.17604  0.29202  Biso   1.000  H
  H85      1.0000 0.30958  0.67604  0.29202  Biso   1.000  H
  H86      1.0000 0.19042  0.32396  0.79202  Biso   1.000  H
  H87      1.0000 0.69042  0.17604  0.20798  Biso   1.000  H
  H88      1.0000 0.80958  0.82396  0.70798  Biso   1.000  H
  C129     1.0000 0.96910  0.33900  0.74240  Biso   1.000  C
  C130     1.0000 0.53090  0.66100  0.24240  Biso   1.000  C
  C131     1.0000 0.03090  0.83900  0.75760  Biso   1.000  C
  C132     1.0000 0.46910  0.16100  0.25760  Biso   1.000  C
  C133     1.0000 0.03090  0.66100  0.25760  Biso   1.000  C
  C134     1.0000 0.46910  0.33900  0.75760  Biso   1.000  C
  C135     1.0000 0.96910  0.16100  0.24240  Biso   1.000  C
  C136     1.0000 0.53090  0.83900  0.74240  Biso   1.000  C
  H89      1.0000 0.98972  0.25411  0.76335  Biso   1.000  H
  H90      1.0000 0.51028  0.74589  0.26335  Biso   1.000  H
  H91      1.0000 0.01028  0.75411  0.73665  Biso   1.000  H
  H92      1.0000 0.48972  0.24589  0.23665  Biso   1.000  H
  H93      1.0000 0.01028  0.74589  0.23665  Biso   1.000  H
  H94      1.0000 0.48972  0.25411  0.73665  Biso   1.000  H
  H95      1.0000 0.98972  0.24589  0.26335  Biso   1.000  H
  H96      1.0000 0.51028  0.75411  0.76335  Biso   1.000  H
  H97      1.0000 0.01379  0.40889  0.73522  Biso   1.000  H
  H98      1.0000 0.48621  0.59111  0.23522  Biso   1.000  H
  H99      1.0000 0.98621  0.90889  0.76478  Biso   1.000  H
  H100     1.0000 0.51379  0.09111  0.26478  Biso   1.000  H
  H101     1.0000 0.98621  0.59111  0.26478  Biso   1.000  H
  H102     1.0000 0.51379  0.40889  0.76478  Biso   1.000  H
  H103     1.0000 0.01379  0.09111  0.23522  Biso   1.000  H
  H104     1.0000 0.48621  0.90889  0.73522  Biso   1.000  H
  O41      1.0000 0.65470  0.52080  0.76270  Biso   1.000  O
  O42      1.0000 0.84530  0.47920  0.26270  Biso   1.000  O
  O43      1.0000 0.34530  0.02080  0.73730  Biso   1.000  O
  O44      1.0000 0.15470  0.97920  0.23730  Biso   1.000  O
  O45      1.0000 0.34530  0.47920  0.23730  Biso   1.000  O
  O46      1.0000 0.15470  0.52080  0.73730  Biso   1.000  O
  O47      1.0000 0.65470  0.97920  0.26270  Biso   1.000  O
  O48      1.0000 0.84530  0.02080  0.76270  Biso   1.000  O
  O49      1.0000 0.57550  0.59000  0.82340  Biso   1.000  O
  O50      1.0000 0.92450  0.41000  0.32340  Biso   1.000  O
  O51      1.0000 0.42450  0.09000  0.67660  Biso   1.000  O
  O52      1.0000 0.07550  0.91000  0.17660  Biso   1.000  O
  O53      1.0000 0.42450  0.41000  0.17660  Biso   1.000  O
  O54      1.0000 0.07550  0.59000  0.67660  Biso   1.000  O
  O55      1.0000 0.57550  0.91000  0.32340  Biso   1.000  O
  O56      1.0000 0.92450  0.09000  0.82340  Biso   1.000  O
  N17      1.0000 0.64600  0.57100  0.80860  Biso   1.000  N
  N18      1.0000 0.85400  0.42900  0.30860  Biso   1.000  N
  N19      1.0000 0.35400  0.07100  0.69140  Biso   1.000  N
  N20      1.0000 0.14600  0.92900  0.19140  Biso   1.000  N
  N21      1.0000 0.35400  0.42900  0.19140  Biso   1.000  N
  N22      1.0000 0.14600  0.57100  0.69140  Biso   1.000  N
  N23      1.0000 0.64600  0.92900  0.30860  Biso   1.000  N
  N24      1.0000 0.85400  0.07100  0.80860  Biso   1.000  N
  O57      1.0000 0.70110  0.58400  0.83240  Biso   1.000  O
  O58      1.0000 0.79890  0.41600  0.33240  Biso   1.000  O
  O59      1.0000 0.29890  0.08400  0.66760  Biso   1.000  O
  O60      1.0000 0.20110  0.91600  0.16760  Biso   1.000  O
  O61      1.0000 0.29890  0.41600  0.16760  Biso   1.000  O
  O62      1.0000 0.20110  0.58400  0.66760  Biso   1.000  O
  O63      1.0000 0.70110  0.91600  0.33240  Biso   1.000  O
  O64      1.0000 0.79890  0.08400  0.83240  Biso   1.000  O
  O65      1.0000 0.76810  0.45400  0.94780  Biso   1.000  O
  O66      1.0000 0.73190  0.54600  0.44780  Biso   1.000  O
  O67      1.0000 0.23190  0.95400  0.55220  Biso   1.000  O
  O68      1.0000 0.26810  0.04600  0.05220  Biso   1.000  O
  O69      1.0000 0.23190  0.54600  0.05220  Biso   1.000  O
  O70      1.0000 0.26810  0.45400  0.55220  Biso   1.000  O
  O71      1.0000 0.76810  0.04600  0.44780  Biso   1.000  O
  O72      1.0000 0.73190  0.95400  0.94780  Biso   1.000  O
