data_image0
_cell_length_a       10.776
_cell_length_b       15.978
_cell_length_c       22.791
_cell_angle_alpha    90
_cell_angle_beta     118.218
_cell_angle_gamma    90

_symmetry_space_group_name_H-M    "P 1"
_symmetry_int_tables_number       1

loop_
  _symmetry_equiv_pos_as_xyz
  'x, y, z'

loop_
  _atom_site_label
  _atom_site_occupancy
  _atom_site_fract_x
  _atom_site_fract_y
  _atom_site_fract_z
  _atom_site_thermal_displace_type
  _atom_site_B_iso_or_equiv
  _atom_site_type_symbol
  C1       1.0000 0.07740  0.57780  0.45610  Biso   1.000  C
  C2       1.0000 0.07740  0.42220  0.95610  Biso   1.000  C
  C3       1.0000 0.12040  0.49320  0.48120  Biso   1.000  C
  C4       1.0000 0.12040  0.50680  0.98120  Biso   1.000  C
  C5       1.0000 0.03000  0.42730  0.44880  Biso   1.000  C
  C6       1.0000 0.03000  0.57270  0.94880  Biso   1.000  C
  H1       1.0000 0.94290  0.43790  0.41230  Biso   1.000  H
  H2       1.0000 0.94290  0.56210  0.91230  Biso   1.000  H
  C7       1.0000 0.06800  0.34720  0.46990  Biso   1.000  C
  C8       1.0000 0.06800  0.65280  0.96990  Biso   1.000  C
  H3       1.0000 0.00360  0.30410  0.44960  Biso   1.000  H
  H4       1.0000 0.00360  0.69590  0.94960  Biso   1.000  H
  C9       1.0000 0.19800  0.32900  0.52000  Biso   1.000  C
  C10      1.0000 0.19800  0.67100  0.02000  Biso   1.000  C
  H5       1.0000 0.22270  0.27350  0.53220  Biso   1.000  H
  H6       1.0000 0.22270  0.72650  0.03220  Biso   1.000  H
  C11      1.0000 0.29200  0.39090  0.55260  Biso   1.000  C
  C12      1.0000 0.29200  0.60910  0.05260  Biso   1.000  C
  H7       1.0000 0.38110  0.37820  0.58730  Biso   1.000  H
  H8       1.0000 0.38110  0.62180  0.08730  Biso   1.000  H
  C13      1.0000 0.25490  0.47120  0.53380  Biso   1.000  C
  C14      1.0000 0.25490  0.52880  0.03380  Biso   1.000  C
  C15      1.0000 0.42600  0.60790  0.52310  Biso   1.000  C
  C16      1.0000 0.42600  0.39210  0.02310  Biso   1.000  C
  C17      1.0000 0.37820  0.58100  0.45850  Biso   1.000  C
  C18      1.0000 0.37820  0.41900  0.95850  Biso   1.000  C
  H9       1.0000 0.32570  0.53190  0.44460  Biso   1.000  H
  H10      1.0000 0.32570  0.46810  0.94460  Biso   1.000  H
  C19      1.0000 0.40700  0.62570  0.41330  Biso   1.000  C
  C20      1.0000 0.40700  0.37430  0.91330  Biso   1.000  C
  H11      1.0000 0.37170  0.60800  0.36950  Biso   1.000  H
  H12      1.0000 0.37170  0.39200  0.86950  Biso   1.000  H
  C21      1.0000 0.48900  0.69730  0.43620  Biso   1.000  C
  C22      1.0000 0.48900  0.30270  0.93620  Biso   1.000  C
  H13      1.0000 0.51220  0.72630  0.40740  Biso   1.000  H
  H14      1.0000 0.51220  0.27370  0.90740  Biso   1.000  H
  C23      1.0000 0.53530  0.72580  0.49800  Biso   1.000  C
  C24      1.0000 0.53530  0.27420  0.99800  Biso   1.000  C
  H15      1.0000 0.58680  0.77530  0.51100  Biso   1.000  H
  H16      1.0000 0.58680  0.22470  0.01100  Biso   1.000  H
  C25      1.0000 0.50810  0.68330  0.54220  Biso   1.000  C
  C26      1.0000 0.50810  0.31670  0.04220  Biso   1.000  C
  C27      1.0000 0.56760  0.71320  0.61230  Biso   1.000  C
  C28      1.0000 0.56760  0.28680  0.11230  Biso   1.000  C
  C29      1.0000 0.70590  0.38570  0.59280  Biso   1.000  C
  C30      1.0000 0.70590  0.61430  0.09280  Biso   1.000  C
  C31      1.0000 0.67190  0.42100  0.52830  Biso   1.000  C
  C32      1.0000 0.67190  0.57900  0.02830  Biso   1.000  C
  C33      1.0000 0.56000  0.38260  0.47400  Biso   1.000  C
  C34      1.0000 0.56000  0.61740  0.97400  Biso   1.000  C
  H17      1.0000 0.50760  0.34170  0.48140  Biso   1.000  H
  H18      1.0000 0.50760  0.65830  0.98140  Biso   1.000  H
  C35      1.0000 0.52500  0.40500  0.40790  Biso   1.000  C
  C36      1.0000 0.52500  0.59500  0.90790  Biso   1.000  C
  H19      1.0000 0.44930  0.38080  0.37150  Biso   1.000  H
  H20      1.0000 0.44930  0.61920  0.87150  Biso   1.000  H
  C37      1.0000 0.60900  0.46430  0.40020  Biso   1.000  C
  C38      1.0000 0.60900  0.53570  0.90020  Biso   1.000  C
  H21      1.0000 0.59040  0.47860  0.35730  Biso   1.000  H
  H22      1.0000 0.59040  0.52140  0.85730  Biso   1.000  H
  C39      1.0000 0.71990  0.50430  0.45420  Biso   1.000  C
  C40      1.0000 0.71990  0.49570  0.95420  Biso   1.000  C
  H23      1.0000 0.77280  0.54510  0.44700  Biso   1.000  H
  H24      1.0000 0.77280  0.45490  0.94700  Biso   1.000  H
  C41      1.0000 0.75010  0.48260  0.51800  Biso   1.000  C
  C42      1.0000 0.75010  0.51740  0.01800  Biso   1.000  C
  C43      1.0000 0.03460  0.47320  0.63350  Biso   1.000  C
  C44      1.0000 0.03460  0.52680  0.13350  Biso   1.000  C
  C45      1.0000 0.03190  0.39050  0.61540  Biso   1.000  C
  C46      1.0000 0.03190  0.60950  0.11540  Biso   1.000  C
  H25      1.0000 0.95600  0.37080  0.57670  Biso   1.000  H
  H26      1.0000 0.95600  0.62920  0.07670  Biso   1.000  H
  C47      1.0000 0.14200  0.33610  0.65450  Biso   1.000  C
  C48      1.0000 0.14200  0.66390  0.15450  Biso   1.000  C
  H27      1.0000 0.13890  0.28040  0.64180  Biso   1.000  H
  H28      1.0000 0.13890  0.71960  0.14180  Biso   1.000  H
  C49      1.0000 0.25800  0.36600  0.71340  Biso   1.000  C
  C50      1.0000 0.25800  0.63400  0.21340  Biso   1.000  C
  H29      1.0000 0.32920  0.32950  0.74050  Biso   1.000  H
  H30      1.0000 0.32920  0.67050  0.24050  Biso   1.000  H
  C51      1.0000 0.26500  0.45000  0.73060  Biso   1.000  C
  C52      1.0000 0.26500  0.55000  0.23060  Biso   1.000  C
  H31      1.0000 0.34180  0.47100  0.76820  Biso   1.000  H
  H32      1.0000 0.34180  0.52900  0.26820  Biso   1.000  H
  C53      1.0000 0.15130  0.50240  0.68960  Biso   1.000  C
  C54      1.0000 0.15130  0.49760  0.18960  Biso   1.000  C
  C55      1.0000 0.17440  0.59110  0.71130  Biso   1.000  C
  C56      1.0000 0.17440  0.40890  0.21130  Biso   1.000  C
  C57      1.0000 0.74300  0.78560  0.84980  Biso   1.000  C
  C58      1.0000 0.74300  0.21440  0.34980  Biso   1.000  C
  C59      1.0000 0.81130  0.82420  0.91760  Biso   1.000  C
  C60      1.0000 0.81130  0.17580  0.41760  Biso   1.000  C
  C61      1.0000 0.79300  0.78490  0.96840  Biso   1.000  C
  C62      1.0000 0.79300  0.21510  0.46840  Biso   1.000  C
  H33      1.0000 0.73710  0.73720  0.95800  Biso   1.000  H
  H34      1.0000 0.73710  0.26280  0.45800  Biso   1.000  H
  C63      1.0000 0.85360  0.81410  0.03190  Biso   1.000  C
  C64      1.0000 0.85360  0.18590  0.53190  Biso   1.000  C
  H35      1.0000 0.84140  0.78630  0.06470  Biso   1.000  H
  H36      1.0000 0.84140  0.21370  0.56470  Biso   1.000  H
  C65      1.0000 0.93340  0.88550  0.04650  Biso   1.000  C
  C66      1.0000 0.93340  0.11450  0.54650  Biso   1.000  C
  H37      1.0000 0.97340  0.90730  0.08940  Biso   1.000  H
  H38      1.0000 0.97340  0.09270  0.58940  Biso   1.000  H
  C67      1.0000 0.95520  0.92600  0.99770  Biso   1.000  C
  C68      1.0000 0.95520  0.07400  0.49770  Biso   1.000  C
  H39      1.0000 0.00910  0.97460  0.00780  Biso   1.000  H
  H40      1.0000 0.00910  0.02540  0.50780  Biso   1.000  H
  C69      1.0000 0.89420  0.89190  0.93340  Biso   1.000  C
  C70      1.0000 0.89420  0.10810  0.43340  Biso   1.000  C
  C71      1.0000 0.05110  0.02570  0.91070  Biso   1.000  C
  C72      1.0000 0.05110  0.97430  0.41070  Biso   1.000  C
  C73      1.0000 0.99450  0.10590  0.88670  Biso   1.000  C
  C74      1.0000 0.99450  0.89410  0.38670  Biso   1.000  C
  H41      1.0000 0.90180  0.11030  0.85320  Biso   1.000  H
  H42      1.0000 0.90180  0.88970  0.35320  Biso   1.000  H
  C75      1.0000 0.07560  0.18000  0.91260  Biso   1.000  C
  C76      1.0000 0.07560  0.82000  0.41260  Biso   1.000  C
  H43      1.0000 0.03840  0.23250  0.89600  Biso   1.000  H
  H44      1.0000 0.03840  0.76750  0.39600  Biso   1.000  H
  C77      1.0000 0.20790  0.17080  0.96180  Biso   1.000  C
  C78      1.0000 0.20790  0.82920  0.46180  Biso   1.000  C
  H45      1.0000 0.26320  0.21830  0.97910  Biso   1.000  H
  H46      1.0000 0.26320  0.78170  0.47910  Biso   1.000  H
  C79      1.0000 0.26490  0.09450  0.98780  Biso   1.000  C
  C80      1.0000 0.26490  0.90550  0.48780  Biso   1.000  C
  H47      1.0000 0.35560  0.09110  0.02330  Biso   1.000  H
  H48      1.0000 0.35560  0.90890  0.52330  Biso   1.000  H
  C81      1.0000 0.19060  0.02520  0.96240  Biso   1.000  C
  C82      1.0000 0.19060  0.97480  0.46240  Biso   1.000  C
  C83      1.0000 0.25760  0.94390  0.99460  Biso   1.000  C
  C84      1.0000 0.25760  0.05610  0.49460  Biso   1.000  C
  C85      1.0000 0.13410  0.90540  0.74040  Biso   1.000  C
  C86      1.0000 0.13410  0.09460  0.24040  Biso   1.000  C
  C87      1.0000 0.14850  0.99680  0.75920  Biso   1.000  C
  C88      1.0000 0.14850  0.00320  0.25920  Biso   1.000  C
  C89      1.0000 0.04400  0.05040  0.72300  Biso   1.000  C
  C90      1.0000 0.04400  0.94960  0.22300  Biso   1.000  C
  H49      1.0000 0.96680  0.03070  0.68490  Biso   1.000  H
  H50      1.0000 0.96680  0.96930  0.18490  Biso   1.000  H
  C91      1.0000 0.04700  0.13030  0.73940  Biso   1.000  C
  C92      1.0000 0.04700  0.86970  0.23940  Biso   1.000  C
  H51      1.0000 0.96820  0.16370  0.71590  Biso   1.000  H
  H52      1.0000 0.96820  0.83630  0.21590  Biso   1.000  H
  C93      1.0000 0.16600  0.16380  0.79090  Biso   1.000  C
  C94      1.0000 0.16600  0.83620  0.29090  Biso   1.000  C
  H53      1.0000 0.17270  0.22100  0.79970  Biso   1.000  H
  H54      1.0000 0.17270  0.77900  0.29970  Biso   1.000  H
  C95      1.0000 0.27400  0.11180  0.82850  Biso   1.000  C
  C96      1.0000 0.27400  0.88820  0.32850  Biso   1.000  C
  H55      1.0000 0.35270  0.13400  0.86470  Biso   1.000  H
  H56      1.0000 0.35270  0.86600  0.36470  Biso   1.000  H
  C97      1.0000 0.27200  0.02670  0.81550  Biso   1.000  C
  C98      1.0000 0.27200  0.97330  0.31550  Biso   1.000  C
  C99      1.0000 0.56460  0.02470  0.91910  Biso   1.000  C
  C100     1.0000 0.56460  0.97530  0.41910  Biso   1.000  C
  C101     1.0000 0.62000  0.01470  0.98670  Biso   1.000  C
  C102     1.0000 0.62000  0.98530  0.48670  Biso   1.000  C
  H57      1.0000 0.57830  0.97680  0.00320  Biso   1.000  H
  H58      1.0000 0.57830  0.02320  0.50320  Biso   1.000  H
  C103     1.0000 0.73600  0.06040  0.03080  Biso   1.000  C
  C104     1.0000 0.73600  0.93960  0.53080  Biso   1.000  C
  H59      1.0000 0.77310  0.05090  0.07630  Biso   1.000  H
  H60      1.0000 0.77310  0.94910  0.57630  Biso   1.000  H
  C105     1.0000 0.79500  0.11660  0.01010  Biso   1.000  C
  C106     1.0000 0.79500  0.88340  0.51010  Biso   1.000  C
  H61      1.0000 0.87410  0.14530  0.04100  Biso   1.000  H
  H62      1.0000 0.87410  0.85470  0.54100  Biso   1.000  H
  C107     1.0000 0.74000  0.13410  0.94180  Biso   1.000  C
  C108     1.0000 0.74000  0.86590  0.44180  Biso   1.000  C
  H63      1.0000 0.77940  0.17590  0.92750  Biso   1.000  H
  H64      1.0000 0.77940  0.82410  0.42750  Biso   1.000  H
  C109     1.0000 0.62600  0.08790  0.89620  Biso   1.000  C
  C110     1.0000 0.62600  0.91210  0.39620  Biso   1.000  C
  C111     1.0000 0.57000  0.11080  0.82430  Biso   1.000  C
  C112     1.0000 0.57000  0.88920  0.32430  Biso   1.000  C
  Cu1      1.0000 0.13610  0.63601  0.58213  Biso   1.000  Cu
  Cu2      1.0000 0.13610  0.36399  0.08213  Biso   1.000  Cu
  Cu3      1.0000 0.70287  0.54530  0.64662  Biso   1.000  Cu
  Cu4      1.0000 0.70287  0.45470  0.14662  Biso   1.000  Cu
  Cu5      1.0000 0.70505  0.68391  0.75257  Biso   1.000  Cu
  Cu6      1.0000 0.70505  0.31609  0.25257  Biso   1.000  Cu
  Cu7      1.0000 0.60508  0.94278  0.79757  Biso   1.000  Cu
  Cu8      1.0000 0.60508  0.05722  0.29757  Biso   1.000  Cu
  Cu9      1.0000 0.18712  0.86505  0.87330  Biso   1.000  Cu
  Cu10     1.0000 0.18712  0.13495  0.37330  Biso   1.000  Cu
  Cu11     1.0000 0.45800  0.85517  0.10586  Biso   1.000  Cu
  Cu12     1.0000 0.45800  0.14483  0.60586  Biso   1.000  Cu
  O1       1.0000 0.01580  0.58580  0.39290  Biso   1.000  O
  O2       1.0000 0.01580  0.41420  0.89290  Biso   1.000  O
  O3       1.0000 0.10950  0.63950  0.49420  Biso   1.000  O
  O4       1.0000 0.10950  0.36050  0.99420  Biso   1.000  O
  O5       1.0000 0.33600  0.60940  0.61480  Biso   1.000  O
  O6       1.0000 0.33600  0.39060  0.11480  Biso   1.000  O
  O7       1.0000 0.51910  0.50280  0.62580  Biso   1.000  O
  O8       1.0000 0.51910  0.49720  0.12580  Biso   1.000  O
  O9       1.0000 0.54440  0.78290  0.62390  Biso   1.000  O
  O10      1.0000 0.54440  0.21710  0.12390  Biso   1.000  O
  O11      1.0000 0.64430  0.66090  0.65830  Biso   1.000  O
  O12      1.0000 0.64430  0.33910  0.15830  Biso   1.000  O
  O13      1.0000 0.68320  0.30950  0.59800  Biso   1.000  O
  O14      1.0000 0.68320  0.69050  0.09800  Biso   1.000  O
  O15      1.0000 0.76050  0.43130  0.64450  Biso   1.000  O
  O16      1.0000 0.76050  0.56870  0.14450  Biso   1.000  O
  O17      1.0000 0.84410  0.58710  0.62720  Biso   1.000  O
  O18      1.0000 0.84410  0.41290  0.12720  Biso   1.000  O
  O19      1.0000 0.94220  0.60380  0.54800  Biso   1.000  O
  O20      1.0000 0.94220  0.39620  0.04800  Biso   1.000  O
  O21      1.0000 0.16140  0.64830  0.67060  Biso   1.000  O
  O22      1.0000 0.16140  0.35170  0.17060  Biso   1.000  O
  O23      1.0000 0.20230  0.60730  0.76970  Biso   1.000  O
  O24      1.0000 0.20230  0.39270  0.26970  Biso   1.000  O
  O25      1.0000 0.76880  0.70900  0.84530  Biso   1.000  O
  O26      1.0000 0.76880  0.29100  0.34530  Biso   1.000  O
  O27      1.0000 0.66800  0.82950  0.80130  Biso   1.000  O
  O28      1.0000 0.66800  0.17050  0.30130  Biso   1.000  O
  O29      1.0000 0.79260  0.98330  0.81970  Biso   1.000  O
  O30      1.0000 0.79260  0.01670  0.31970  Biso   1.000  O
  O31      1.0000 0.98560  0.87960  0.84160  Biso   1.000  O
  O32      1.0000 0.98560  0.12040  0.34160  Biso   1.000  O
  O33      1.0000 0.22010  0.87470  0.96420  Biso   1.000  O
  O34      1.0000 0.22010  0.12530  0.46420  Biso   1.000  O
  O35      1.0000 0.35830  0.94810  0.05350  Biso   1.000  O
  O36      1.0000 0.35830  0.05190  0.55350  Biso   1.000  O
  O37      1.0000 0.09420  0.88580  0.68130  Biso   1.000  O
  O38      1.0000 0.09420  0.11420  0.18130  Biso   1.000  O
  O39      1.0000 0.15930  0.84990  0.78540  Biso   1.000  O
  O40      1.0000 0.15930  0.15010  0.28540  Biso   1.000  O
  O41      1.0000 0.46060  0.90940  0.82060  Biso   1.000  O
  O42      1.0000 0.46060  0.09060  0.32060  Biso   1.000  O
  O43      1.0000 0.38150  0.90740  0.90750  Biso   1.000  O
  O44      1.0000 0.38150  0.09260  0.40750  Biso   1.000  O
  O45      1.0000 0.53120  0.05430  0.78040  Biso   1.000  O
  O46      1.0000 0.53120  0.94570  0.28040  Biso   1.000  O
  O47      1.0000 0.55600  0.18470  0.80920  Biso   1.000  O
  O48      1.0000 0.55600  0.81530  0.30920  Biso   1.000  O
  O49      1.0000 0.16800  0.77450  0.59360  Biso   1.000  O
  O50      1.0000 0.16800  0.22550  0.09360  Biso   1.000  O
  H65      1.0000 0.09410  0.78310  0.55670  Biso   1.000  H
  H66      1.0000 0.09410  0.21690  0.05670  Biso   1.000  H
  H67      1.0000 0.23240  0.77240  0.58240  Biso   1.000  H
  H68      1.0000 0.23240  0.22760  0.08240  Biso   1.000  H
  O51      1.0000 0.78920  0.55350  0.75680  Biso   1.000  O
  O52      1.0000 0.78920  0.44650  0.25680  Biso   1.000  O
  H69      1.0000 0.87860  0.55090  0.77800  Biso   1.000  H
  H70      1.0000 0.87860  0.44910  0.27800  Biso   1.000  H
  H71      1.0000 0.75300  0.51770  0.77190  Biso   1.000  H
  H72      1.0000 0.75300  0.48230  0.27190  Biso   1.000  H
  O53      1.0000 0.52480  0.64730  0.74240  Biso   1.000  O
  O54      1.0000 0.52480  0.35270  0.24240  Biso   1.000  O
  H73      1.0000 0.46920  0.63660  0.70170  Biso   1.000  H
  H74      1.0000 0.46920  0.36340  0.20170  Biso   1.000  H
  H75      1.0000 0.48850  0.68590  0.75510  Biso   1.000  H
  H76      1.0000 0.48850  0.31410  0.25510  Biso   1.000  H
  O55      1.0000 0.87550  0.73520  0.76190  Biso   1.000  O
  O56      1.0000 0.87550  0.26480  0.26190  Biso   1.000  O
  H77      1.0000 0.85770  0.78670  0.75220  Biso   1.000  H
  H78      1.0000 0.85770  0.21330  0.25220  Biso   1.000  H
  H79      1.0000 0.89290  0.71370  0.73250  Biso   1.000  H
  H80      1.0000 0.89290  0.28630  0.23250  Biso   1.000  H
  O57      1.0000 0.49380  0.91750  0.68710  Biso   1.000  O
  O58      1.0000 0.49380  0.08250  0.18710  Biso   1.000  O
  H81      1.0000 0.54580  0.92960  0.66960  Biso   1.000  H
  H82      1.0000 0.54580  0.07040  0.16960  Biso   1.000  H
  H83      1.0000 0.41660  0.94430  0.66740  Biso   1.000  H
  H84      1.0000 0.41660  0.05570  0.16740  Biso   1.000  H
  O59      1.0000 0.21920  0.72610  0.88020  Biso   1.000  O
  O60      1.0000 0.21920  0.27390  0.38020  Biso   1.000  O
  H85      1.0000 0.21040  0.70470  0.84430  Biso   1.000  H
  H86      1.0000 0.21040  0.29530  0.34430  Biso   1.000  H
  H87      1.0000 0.16020  0.70700  0.89170  Biso   1.000  H
  H88      1.0000 0.16020  0.29300  0.39170  Biso   1.000  H
  O61      1.0000 0.52110  0.82190  0.04220  Biso   1.000  O
  O62      1.0000 0.52110  0.17810  0.54220  Biso   1.000  O
  H89      1.0000 0.44770  0.82980  0.00520  Biso   1.000  H
  H90      1.0000 0.44770  0.17020  0.50520  Biso   1.000  H
  H91      1.0000 0.53720  0.77000  0.04090  Biso   1.000  H
  H92      1.0000 0.53720  0.23000  0.54090  Biso   1.000  H
  O63      1.0000 0.55070  0.75390  0.15940  Biso   1.000  O
  O64      1.0000 0.55070  0.24610  0.65940  Biso   1.000  O
  H93      1.0000 0.59610  0.73060  0.14190  Biso   1.000  H
  H94      1.0000 0.59610  0.26940  0.64190  Biso   1.000  H
  H95      1.0000 0.48990  0.71960  0.15890  Biso   1.000  H
  H96      1.0000 0.48990  0.28040  0.65890  Biso   1.000  H
  O65      1.0000 0.65130  0.93220  0.17040  Biso   1.000  O
  O66      1.0000 0.65130  0.06780  0.67040  Biso   1.000  O
  H97      1.0000 0.71550  0.90170  0.16990  Biso   1.000  H
  H98      1.0000 0.71550  0.09830  0.66990  Biso   1.000  H
  H99      1.0000 0.65780  0.92380  0.20860  Biso   1.000  H
  H100     1.0000 0.65780  0.07620  0.70860  Biso   1.000  H
  O67      1.0000 0.35570  0.87500  0.15720  Biso   1.000  O
  O68      1.0000 0.35570  0.12500  0.65720  Biso   1.000  O
  H101     1.0000 0.41370  0.87440  0.19860  Biso   1.000  H
  H102     1.0000 0.41370  0.12560  0.69860  Biso   1.000  H
  H103     1.0000 0.29680  0.83560  0.14920  Biso   1.000  H
  H104     1.0000 0.29680  0.16440  0.64920  Biso   1.000  H
  P1       1.0000 0.38770  0.55090  0.57900  Biso   1.000  P
  P2       1.0000 0.38770  0.44910  0.07900  Biso   1.000  P
  P3       1.0000 0.89280  0.54240  0.58290  Biso   1.000  P
  P4       1.0000 0.89280  0.45760  0.08290  Biso   1.000  P
  P5       1.0000 0.92750  0.94380  0.87120  Biso   1.000  P
  P6       1.0000 0.92750  0.05620  0.37120  Biso   1.000  P
  P7       1.0000 0.42070  0.95960  0.86480  Biso   1.000  P
  P8       1.0000 0.42070  0.04040  0.36480  Biso   1.000  P
  O69      1.0000 0.06720  0.52540  0.82240  Biso   1.000  O
  O70      1.0000 0.06720  0.47460  0.32240  Biso   1.000  O
  H105     1.0000 0.10810  0.55230  0.80420  Biso   1.000  H
  H106     1.0000 0.10810  0.44770  0.30420  Biso   1.000  H
  H107     1.0000 0.97920  0.53490  0.80050  Biso   1.000  H
  H108     1.0000 0.97920  0.46510  0.30050  Biso   1.000  H
  O71      1.0000 0.21460  0.97660  0.62420  Biso   1.000  O
  O72      1.0000 0.21460  0.02340  0.12420  Biso   1.000  O
  H109     1.0000 0.25700  0.97010  0.60120  Biso   1.000  H
  H110     1.0000 0.25700  0.02990  0.10120  Biso   1.000  H
  H111     1.0000 0.19190  0.92890  0.63270  Biso   1.000  H
  H112     1.0000 0.19190  0.07110  0.13270  Biso   1.000  H
  O73      1.0000 0.38240  0.75200  0.77060  Biso   1.000  O
  O74      1.0000 0.38240  0.24800  0.27060  Biso   1.000  O
  H113     1.0000 0.32580  0.72080  0.77690  Biso   1.000  H
  H114     1.0000 0.32580  0.27920  0.27690  Biso   1.000  H
  H115     1.0000 0.39090  0.79830  0.79060  Biso   1.000  H
  H116     1.0000 0.39090  0.20170  0.29060  Biso   1.000  H
  O75      1.0000 0.76700  0.91960  0.68630  Biso   1.000  O
  O76      1.0000 0.76700  0.08040  0.18630  Biso   1.000  O
  H117     1.0000 0.70380  0.88180  0.66990  Biso   1.000  H
  H118     1.0000 0.70380  0.11820  0.16990  Biso   1.000  H
  H119     1.0000 0.77100  0.93610  0.72270  Biso   1.000  H
  H120     1.0000 0.77100  0.06390  0.22270  Biso   1.000  H
  O77      1.0000 0.89370  0.75720  0.65210  Biso   1.000  O
  O78      1.0000 0.89370  0.24280  0.15210  Biso   1.000  O
  H121     1.0000 0.92320  0.79420  0.68240  Biso   1.000  H
  H122     1.0000 0.92320  0.20580  0.18240  Biso   1.000  H
  H123     1.0000 0.86040  0.78170  0.61460  Biso   1.000  H
  H124     1.0000 0.86040  0.21830  0.11460  Biso   1.000  H
  O79      1.0000 0.76300  0.76400  0.26500  Biso   1.000  O
  O80      1.0000 0.76300  0.23600  0.76500  Biso   1.000  O
  H125     1.0000 0.81560  0.72060  0.27470  Biso   1.000  H
  H126     1.0000 0.81560  0.27940  0.77470  Biso   1.000  H
  H127     1.0000 0.71430  0.76080  0.28540  Biso   1.000  H
  H128     1.0000 0.71430  0.23920  0.78540  Biso   1.000  H
  O81      1.0000 0.62100  0.56350  0.26540  Biso   1.000  O
  O82      1.0000 0.62100  0.43650  0.76540  Biso   1.000  O
  H129     1.0000 0.55680  0.54420  0.22890  Biso   1.000  H
  H130     1.0000 0.55680  0.45580  0.72890  Biso   1.000  H
  H131     1.0000 0.60880  0.61580  0.26750  Biso   1.000  H
  H132     1.0000 0.60880  0.38420  0.76750  Biso   1.000  H
  O83      1.0000 0.93700  0.67010  0.26580  Biso   1.000  O
  O84      1.0000 0.93700  0.32990  0.76580  Biso   1.000  O
  H133     1.0000 0.95720  0.64310  0.30130  Biso   1.000  H
  H134     1.0000 0.95720  0.35690  0.80130  Biso   1.000  H
  H135     1.0000 0.88710  0.63900  0.23270  Biso   1.000  H
  H136     1.0000 0.88710  0.36100  0.73270  Biso   1.000  H
