data_image0
_cell_length_a       8.872
_cell_length_b       9.054
_cell_length_c       13.255
_cell_angle_alpha    90
_cell_angle_beta     102.344
_cell_angle_gamma    90

_symmetry_space_group_name_H-M    "P 1"
_symmetry_int_tables_number       1

loop_
  _symmetry_equiv_pos_as_xyz
  'x, y, z'

loop_
  _atom_site_label
  _atom_site_occupancy
  _atom_site_fract_x
  _atom_site_fract_y
  _atom_site_fract_z
  _atom_site_thermal_displace_type
  _atom_site_B_iso_or_equiv
  _atom_site_type_symbol
  Cu1      1.0000 0.17378  0.87391  0.53897  Biso   1.000  Cu
  Cu2      1.0000 0.82622  0.37391  0.46103  Biso   1.000  Cu
  Cu3      1.0000 0.48661  0.37017  0.69894  Biso   1.000  Cu
  Cu4      1.0000 0.51339  0.87017  0.30106  Biso   1.000  Cu
  Cu5      1.0000 0.75655  0.86969  0.67488  Biso   1.000  Cu
  Cu6      1.0000 0.24345  0.36969  0.32512  Biso   1.000  Cu
  P1       1.0000 0.44207  0.71171  0.69047  Biso   1.000  P
  P2       1.0000 0.55793  0.21171  0.30953  Biso   1.000  P
  P3       1.0000 0.80013  0.21419  0.66877  Biso   1.000  P
  P4       1.0000 0.19987  0.71419  0.33123  Biso   1.000  P
  C1       1.0000 0.40860  0.69600  0.81990  Biso   1.000  C
  C2       1.0000 0.59140  0.19600  0.18010  Biso   1.000  C
  C3       1.0000 0.49170  0.78070  0.90050  Biso   1.000  C
  C4       1.0000 0.50830  0.28070  0.09950  Biso   1.000  C
  H1       1.0000 0.56240  0.85010  0.88750  Biso   1.000  H
  H2       1.0000 0.43760  0.35010  0.11250  Biso   1.000  H
  C5       1.0000 0.46970  0.76220  0.00090  Biso   1.000  C
  C6       1.0000 0.53030  0.26220  0.99910  Biso   1.000  C
  H3       1.0000 0.52810  0.81620  0.05510  Biso   1.000  H
  H4       1.0000 0.47190  0.31620  0.94490  Biso   1.000  H
  C7       1.0000 0.36020  0.66290  0.01900  Biso   1.000  C
  C8       1.0000 0.63980  0.16290  0.98100  Biso   1.000  C
  H5       1.0000 0.34490  0.65070  0.08570  Biso   1.000  H
  H6       1.0000 0.65510  0.15070  0.91430  Biso   1.000  H
  C9       1.0000 0.27390  0.58190  0.93960  Biso   1.000  C
  C10      1.0000 0.72610  0.08190  0.06040  Biso   1.000  C
  H7       1.0000 0.19810  0.51800  0.95250  Biso   1.000  H
  H8       1.0000 0.80190  0.01800  0.04750  Biso   1.000  H
  C11      1.0000 0.29960  0.59530  0.84010  Biso   1.000  C
  C12      1.0000 0.70040  0.09530  0.15990  Biso   1.000  C
  C13      1.0000 0.20600  0.49950  0.75540  Biso   1.000  C
  C14      1.0000 0.79400  0.99950  0.24460  Biso   1.000  C
  C15      1.0000 0.94420  0.18530  0.78780  Biso   1.000  C
  C16      1.0000 0.05580  0.68530  0.21220  Biso   1.000  C
  C17      1.0000 0.93930  0.26750  0.87460  Biso   1.000  C
  C18      1.0000 0.06070  0.76750  0.12540  Biso   1.000  C
  H9       1.0000 0.86830  0.34410  0.86990  Biso   1.000  H
  H10      1.0000 0.13170  0.84410  0.13010  Biso   1.000  H
  C19      1.0000 0.03850  0.23840  0.96920  Biso   1.000  C
  C20      1.0000 0.96150  0.73840  0.03080  Biso   1.000  C
  H11      1.0000 0.03020  0.29200  0.02760  Biso   1.000  H
  H12      1.0000 0.96980  0.79200  0.97240  Biso   1.000  H
  C21      1.0000 0.14910  0.12950  0.97560  Biso   1.000  C
  C22      1.0000 0.85090  0.62950  0.02440  Biso   1.000  C
  H13      1.0000 0.21560  0.10960  0.03840  Biso   1.000  H
  H14      1.0000 0.78440  0.60960  0.96160  Biso   1.000  H
  C23      1.0000 0.16120  0.04980  0.88810  Biso   1.000  C
  C24      1.0000 0.83880  0.54980  0.11190  Biso   1.000  C
  H15      1.0000 0.23780  0.97870  0.89190  Biso   1.000  H
  H16      1.0000 0.76220  0.47870  0.10810  Biso   1.000  H
  C25      1.0000 0.05830  0.07670  0.79480  Biso   1.000  C
  C26      1.0000 0.94170  0.57670  0.20520  Biso   1.000  C
  C27      1.0000 0.07420  0.98540  0.70240  Biso   1.000  C
  C28      1.0000 0.92580  0.48540  0.29760  Biso   1.000  C
  O1       1.0000 0.28800  0.71680  0.61540  Biso   1.000  O
  O2       1.0000 0.71200  0.21680  0.38460  Biso   1.000  O
  O3       1.0000 0.54380  0.84620  0.68670  Biso   1.000  O
  O4       1.0000 0.45620  0.34620  0.31330  Biso   1.000  O
  O5       1.0000 0.53220  0.57110  0.67460  Biso   1.000  O
  O6       1.0000 0.46780  0.07110  0.32540  Biso   1.000  O
  O7       1.0000 0.27590  0.40480  0.71120  Biso   1.000  O
  O8       1.0000 0.72410  0.90480  0.28880  Biso   1.000  O
  O9       1.0000 0.06450  0.51680  0.73210  Biso   1.000  O
  O10      1.0000 0.93550  0.01680  0.26790  Biso   1.000  O
  O11      1.0000 0.69960  0.34310  0.68920  Biso   1.000  O
  O12      1.0000 0.30040  0.84310  0.31080  Biso   1.000  O
  O13      1.0000 0.70240  0.07360  0.65230  Biso   1.000  O
  O14      1.0000 0.29760  0.57360  0.34770  Biso   1.000  O
  O15      1.0000 0.88400  0.24390  0.58170  Biso   1.000  O
  O16      1.0000 0.11600  0.74390  0.41830  Biso   1.000  O
  O17      1.0000 0.96850  0.89780  0.66050  Biso   1.000  O
  O18      1.0000 0.03150  0.39780  0.33950  Biso   1.000  O
  O19      1.0000 0.19610  0.99680  0.66960  Biso   1.000  O
  O20      1.0000 0.80390  0.49680  0.33040  Biso   1.000  O
  O21      1.0000 0.37660  0.01250  0.51240  Biso   1.000  O
  O22      1.0000 0.62340  0.51250  0.48760  Biso   1.000  O
  H17      1.0000 0.46050  0.96790  0.53750  Biso   1.000  H
  H18      1.0000 0.53950  0.46790  0.46250  Biso   1.000  H
  H19      1.0000 0.36880  0.02500  0.44790  Biso   1.000  H
  H20      1.0000 0.63120  0.52500  0.55210  Biso   1.000  H
  O23      1.0000 0.02580  0.02120  0.47050  Biso   1.000  O
  O24      1.0000 0.97420  0.52120  0.52950  Biso   1.000  O
  H21      1.0000 0.03620  0.03190  0.40860  Biso   1.000  H
  H22      1.0000 0.96380  0.53190  0.59140  Biso   1.000  H
  H23      1.0000 0.04340  0.10290  0.50230  Biso   1.000  H
  H24      1.0000 0.95660  0.60290  0.49770  Biso   1.000  H
  O25      1.0000 0.46210  0.16430  0.73330  Biso   1.000  O
  O26      1.0000 0.53790  0.66430  0.26670  Biso   1.000  O
  H25      1.0000 0.37070  0.15050  0.74130  Biso   1.000  H
  H26      1.0000 0.62930  0.65050  0.25870  Biso   1.000  H
  H27      1.0000 0.47850  0.10990  0.68450  Biso   1.000  H
  H28      1.0000 0.52150  0.60990  0.31550  Biso   1.000  H
  O27      1.0000 0.68730  0.81320  0.49460  Biso   1.000  O
  O28      1.0000 0.31270  0.31320  0.50540  Biso   1.000  O
  H29      1.0000 0.73390  0.86100  0.45520  Biso   1.000  H
  H30      1.0000 0.26610  0.36100  0.54480  Biso   1.000  H
  H31      1.0000 0.68890  0.72070  0.48390  Biso   1.000  H
  H32      1.0000 0.31110  0.22070  0.51610  Biso   1.000  H
  O29      1.0000 0.81840  0.68030  0.74370  Biso   1.000  O
  O30      1.0000 0.18160  0.18030  0.25630  Biso   1.000  O
  H33      1.0000 0.89440  0.64510  0.72190  Biso   1.000  H
  H34      1.0000 0.10560  0.14510  0.27810  Biso   1.000  H
  H35      1.0000 0.74310  0.62030  0.73010  Biso   1.000  H
  H36      1.0000 0.25690  0.12030  0.26990  Biso   1.000  H
