data_image0
_cell_length_a       22.65
_cell_length_b       8.8845
_cell_length_c       8.9245
_cell_angle_alpha    90
_cell_angle_beta     90
_cell_angle_gamma    90

_symmetry_space_group_name_H-M    "P 1"
_symmetry_int_tables_number       1

loop_
  _symmetry_equiv_pos_as_xyz
  'x, y, z'

loop_
  _atom_site_label
  _atom_site_occupancy
  _atom_site_fract_x
  _atom_site_fract_y
  _atom_site_fract_z
  _atom_site_thermal_displace_type
  _atom_site_B_iso_or_equiv
  _atom_site_type_symbol
  Cu1      1.0000 0.50000  0.38216  0.75000  Biso   1.000  Cu
  Cu2      1.0000 0.00000  0.11784  0.25000  Biso   1.000  Cu
  Cu3      1.0000 0.50000  0.61784  0.25000  Biso   1.000  Cu
  Cu4      1.0000 0.00000  0.88216  0.75000  Biso   1.000  Cu
  Cu5      1.0000 0.43471  0.13637  0.18085  Biso   1.000  Cu
  Cu6      1.0000 0.06529  0.36363  0.68085  Biso   1.000  Cu
  Cu7      1.0000 0.56529  0.13637  0.31915  Biso   1.000  Cu
  Cu8      1.0000 0.93471  0.36363  0.81915  Biso   1.000  Cu
  Cu9      1.0000 0.56529  0.86363  0.81915  Biso   1.000  Cu
  Cu10     1.0000 0.93471  0.63637  0.31915  Biso   1.000  Cu
  Cu11     1.0000 0.43471  0.86363  0.68085  Biso   1.000  Cu
  Cu12     1.0000 0.06529  0.63637  0.18085  Biso   1.000  Cu
  P1       1.0000 0.43386  0.18493  0.52664  Biso   1.000  P
  P2       1.0000 0.06614  0.31507  0.02664  Biso   1.000  P
  P3       1.0000 0.56614  0.18493  0.97336  Biso   1.000  P
  P4       1.0000 0.93386  0.31507  0.47336  Biso   1.000  P
  P5       1.0000 0.56614  0.81507  0.47336  Biso   1.000  P
  P6       1.0000 0.93386  0.68493  0.97336  Biso   1.000  P
  P7       1.0000 0.43386  0.81507  0.02664  Biso   1.000  P
  P8       1.0000 0.06614  0.68493  0.52664  Biso   1.000  P
  C1       1.0000 0.36080  0.25990  0.48620  Biso   1.000  C
  C2       1.0000 0.13920  0.24010  0.98620  Biso   1.000  C
  C3       1.0000 0.63920  0.25990  0.01380  Biso   1.000  C
  C4       1.0000 0.86080  0.24010  0.51380  Biso   1.000  C
  C5       1.0000 0.63920  0.74010  0.51380  Biso   1.000  C
  C6       1.0000 0.86080  0.75990  0.01380  Biso   1.000  C
  C7       1.0000 0.36080  0.74010  0.98620  Biso   1.000  C
  C8       1.0000 0.13920  0.75990  0.48620  Biso   1.000  C
  C9       1.0000 0.31120  0.21020  0.56310  Biso   1.000  C
  C10      1.0000 0.18880  0.28980  0.06310  Biso   1.000  C
  C11      1.0000 0.68880  0.21020  0.93690  Biso   1.000  C
  C12      1.0000 0.81120  0.28980  0.43690  Biso   1.000  C
  C13      1.0000 0.68880  0.78980  0.43690  Biso   1.000  C
  C14      1.0000 0.81120  0.71020  0.93690  Biso   1.000  C
  C15      1.0000 0.31120  0.78980  0.06310  Biso   1.000  C
  C16      1.0000 0.18880  0.71020  0.56310  Biso   1.000  C
  H1       1.0000 0.31510  0.13300  0.63610  Biso   1.000  H
  H2       1.0000 0.18490  0.36700  0.13610  Biso   1.000  H
  H3       1.0000 0.68490  0.13300  0.86390  Biso   1.000  H
  H4       1.0000 0.81510  0.36700  0.36390  Biso   1.000  H
  H5       1.0000 0.68490  0.86700  0.36390  Biso   1.000  H
  H6       1.0000 0.81510  0.63300  0.86390  Biso   1.000  H
  H7       1.0000 0.31510  0.86700  0.13610  Biso   1.000  H
  H8       1.0000 0.18490  0.63300  0.63610  Biso   1.000  H
  C17      1.0000 0.25590  0.27160  0.53510  Biso   1.000  C
  C18      1.0000 0.24410  0.22840  0.03510  Biso   1.000  C
  C19      1.0000 0.74410  0.27160  0.96490  Biso   1.000  C
  C20      1.0000 0.75590  0.22840  0.46490  Biso   1.000  C
  C21      1.0000 0.74410  0.72840  0.46490  Biso   1.000  C
  C22      1.0000 0.75590  0.77160  0.96490  Biso   1.000  C
  C23      1.0000 0.25590  0.72840  0.03510  Biso   1.000  C
  C24      1.0000 0.24410  0.77160  0.53510  Biso   1.000  C
  H9       1.0000 0.22230  0.23410  0.58670  Biso   1.000  H
  H10      1.0000 0.27770  0.26590  0.08670  Biso   1.000  H
  H11      1.0000 0.77770  0.23410  0.91330  Biso   1.000  H
  H12      1.0000 0.72230  0.26590  0.41330  Biso   1.000  H
  H13      1.0000 0.77770  0.76590  0.41330  Biso   1.000  H
  H14      1.0000 0.72230  0.73410  0.91330  Biso   1.000  H
  H15      1.0000 0.22230  0.76590  0.08670  Biso   1.000  H
  H16      1.0000 0.27770  0.73410  0.58670  Biso   1.000  H
  C25      1.0000 0.24960  0.38620  0.43310  Biso   1.000  C
  C26      1.0000 0.25040  0.11380  0.93310  Biso   1.000  C
  C27      1.0000 0.75040  0.38620  0.06690  Biso   1.000  C
  C28      1.0000 0.74960  0.11380  0.56690  Biso   1.000  C
  C29      1.0000 0.75040  0.61380  0.56690  Biso   1.000  C
  C30      1.0000 0.74960  0.88620  0.06690  Biso   1.000  C
  C31      1.0000 0.24960  0.61380  0.93310  Biso   1.000  C
  C32      1.0000 0.25040  0.88620  0.43310  Biso   1.000  C
  H17      1.0000 0.21160  0.42710  0.41360  Biso   1.000  H
  H18      1.0000 0.28840  0.07290  0.91360  Biso   1.000  H
  H19      1.0000 0.78840  0.42710  0.08640  Biso   1.000  H
  H20      1.0000 0.71160  0.07290  0.58640  Biso   1.000  H
  H21      1.0000 0.78840  0.57290  0.58640  Biso   1.000  H
  H22      1.0000 0.71160  0.92710  0.08640  Biso   1.000  H
  H23      1.0000 0.21160  0.57290  0.91360  Biso   1.000  H
  H24      1.0000 0.28840  0.92710  0.41360  Biso   1.000  H
  C33      1.0000 0.29890  0.44260  0.35830  Biso   1.000  C
  C34      1.0000 0.20110  0.05740  0.85830  Biso   1.000  C
  C35      1.0000 0.70110  0.44260  0.14170  Biso   1.000  C
  C36      1.0000 0.79890  0.05740  0.64170  Biso   1.000  C
  C37      1.0000 0.70110  0.55740  0.64170  Biso   1.000  C
  C38      1.0000 0.79890  0.94260  0.14170  Biso   1.000  C
  C39      1.0000 0.29890  0.55740  0.85830  Biso   1.000  C
  C40      1.0000 0.20110  0.94260  0.35830  Biso   1.000  C
  H25      1.0000 0.29500  0.52430  0.29040  Biso   1.000  H
  H26      1.0000 0.20500  0.97570  0.79040  Biso   1.000  H
  H27      1.0000 0.70500  0.52430  0.20960  Biso   1.000  H
  H28      1.0000 0.79500  0.97570  0.70960  Biso   1.000  H
  H29      1.0000 0.70500  0.47570  0.70960  Biso   1.000  H
  H30      1.0000 0.79500  0.02430  0.20960  Biso   1.000  H
  H31      1.0000 0.29500  0.47570  0.79040  Biso   1.000  H
  H32      1.0000 0.20500  0.02430  0.29040  Biso   1.000  H
  C41      1.0000 0.35390  0.37810  0.38400  Biso   1.000  C
  C42      1.0000 0.14610  0.12190  0.88400  Biso   1.000  C
  C43      1.0000 0.64610  0.37810  0.11600  Biso   1.000  C
  C44      1.0000 0.85390  0.12190  0.61600  Biso   1.000  C
  C45      1.0000 0.64610  0.62190  0.61600  Biso   1.000  C
  C46      1.0000 0.85390  0.87810  0.11600  Biso   1.000  C
  C47      1.0000 0.35390  0.62190  0.88400  Biso   1.000  C
  C48      1.0000 0.14610  0.87810  0.38400  Biso   1.000  C
  C49      1.0000 0.40650  0.43710  0.30030  Biso   1.000  C
  C50      1.0000 0.09350  0.06290  0.80030  Biso   1.000  C
  C51      1.0000 0.59350  0.43710  0.19970  Biso   1.000  C
  C52      1.0000 0.90650  0.06290  0.69970  Biso   1.000  C
  C53      1.0000 0.59350  0.56290  0.69970  Biso   1.000  C
  C54      1.0000 0.90650  0.93710  0.19970  Biso   1.000  C
  C55      1.0000 0.40650  0.56290  0.80030  Biso   1.000  C
  C56      1.0000 0.09350  0.93710  0.30030  Biso   1.000  C
  O1       1.0000 0.47425  0.31780  0.55580  Biso   1.000  O
  O2       1.0000 0.02575  0.18220  0.05580  Biso   1.000  O
  O3       1.0000 0.52575  0.31780  0.94420  Biso   1.000  O
  O4       1.0000 0.97425  0.18220  0.44420  Biso   1.000  O
  O5       1.0000 0.52575  0.68220  0.44420  Biso   1.000  O
  O6       1.0000 0.97425  0.81780  0.94420  Biso   1.000  O
  O7       1.0000 0.47425  0.68220  0.05580  Biso   1.000  O
  O8       1.0000 0.02575  0.81780  0.55580  Biso   1.000  O
  O9       1.0000 0.42609  0.07880  0.65890  Biso   1.000  O
  O10      1.0000 0.07391  0.42120  0.15890  Biso   1.000  O
  O11      1.0000 0.57391  0.07880  0.84110  Biso   1.000  O
  O12      1.0000 0.92609  0.42120  0.34110  Biso   1.000  O
  O13      1.0000 0.57391  0.92120  0.34110  Biso   1.000  O
  O14      1.0000 0.92609  0.57880  0.84110  Biso   1.000  O
  O15      1.0000 0.42609  0.92120  0.15890  Biso   1.000  O
  O16      1.0000 0.07391  0.57880  0.65890  Biso   1.000  O
  O17      1.0000 0.45522  0.09860  0.38630  Biso   1.000  O
  O18      1.0000 0.04478  0.40140  0.88630  Biso   1.000  O
  O19      1.0000 0.54478  0.09860  0.11370  Biso   1.000  O
  O20      1.0000 0.95522  0.40140  0.61370  Biso   1.000  O
  O21      1.0000 0.54478  0.90140  0.61370  Biso   1.000  O
  O22      1.0000 0.95522  0.59860  0.11370  Biso   1.000  O
  O23      1.0000 0.45522  0.90140  0.88630  Biso   1.000  O
  O24      1.0000 0.04478  0.59860  0.38630  Biso   1.000  O
  O25      1.0000 0.43579  0.35520  0.21350  Biso   1.000  O
  O26      1.0000 0.06421  0.14480  0.71350  Biso   1.000  O
  O27      1.0000 0.56421  0.35520  0.28650  Biso   1.000  O
  O28      1.0000 0.93579  0.14480  0.78650  Biso   1.000  O
  O29      1.0000 0.56421  0.64480  0.78650  Biso   1.000  O
  O30      1.0000 0.93579  0.85520  0.28650  Biso   1.000  O
  O31      1.0000 0.43579  0.64480  0.71350  Biso   1.000  O
  O32      1.0000 0.06421  0.85520  0.21350  Biso   1.000  O
  O33      1.0000 0.42027  0.57480  0.32320  Biso   1.000  O
  O34      1.0000 0.07973  0.92520  0.82320  Biso   1.000  O
  O35      1.0000 0.57973  0.57480  0.17680  Biso   1.000  O
  O36      1.0000 0.92027  0.92520  0.67680  Biso   1.000  O
  O37      1.0000 0.57973  0.42520  0.67680  Biso   1.000  O
  O38      1.0000 0.92027  0.07480  0.17680  Biso   1.000  O
  O39      1.0000 0.42027  0.42520  0.82320  Biso   1.000  O
  O40      1.0000 0.07973  0.07480  0.32320  Biso   1.000  O
  O41      1.0000 0.40174  0.17030  0.98190  Biso   1.000  O
  O42      1.0000 0.09826  0.32970  0.48190  Biso   1.000  O
  O43      1.0000 0.59826  0.17030  0.51810  Biso   1.000  O
  O44      1.0000 0.90174  0.32970  0.01810  Biso   1.000  O
  O45      1.0000 0.59826  0.82970  0.01810  Biso   1.000  O
  O46      1.0000 0.90174  0.67030  0.51810  Biso   1.000  O
  O47      1.0000 0.40174  0.82970  0.48190  Biso   1.000  O
  O48      1.0000 0.09826  0.67030  0.98190  Biso   1.000  O
  H33      1.0000 0.41670  0.11090  0.91760  Biso   1.000  H
  H34      1.0000 0.08330  0.38910  0.41760  Biso   1.000  H
  H35      1.0000 0.58330  0.11090  0.58240  Biso   1.000  H
  H36      1.0000 0.91670  0.38910  0.08240  Biso   1.000  H
  H37      1.0000 0.58330  0.88910  0.08240  Biso   1.000  H
  H38      1.0000 0.91670  0.61090  0.58240  Biso   1.000  H
  H39      1.0000 0.41670  0.88910  0.41760  Biso   1.000  H
  H40      1.0000 0.08330  0.61090  0.91760  Biso   1.000  H
  H41      1.0000 0.40600  0.26120  0.95430  Biso   1.000  H
  H42      1.0000 0.09400  0.23880  0.45430  Biso   1.000  H
  H43      1.0000 0.59400  0.26120  0.54570  Biso   1.000  H
  H44      1.0000 0.90600  0.23880  0.04570  Biso   1.000  H
  H45      1.0000 0.59400  0.73880  0.04570  Biso   1.000  H
  H46      1.0000 0.90600  0.76120  0.54570  Biso   1.000  H
  H47      1.0000 0.40600  0.73880  0.45430  Biso   1.000  H
  H48      1.0000 0.09400  0.76120  0.95430  Biso   1.000  H
