data_image0
_cell_length_a       10.1274
_cell_length_b       13.0369
_cell_length_c       13.304
_cell_angle_alpha    90
_cell_angle_beta     105.085
_cell_angle_gamma    90

_symmetry_space_group_name_H-M    "P 1"
_symmetry_int_tables_number       1

loop_
  _symmetry_equiv_pos_as_xyz
  'x, y, z'

loop_
  _atom_site_label
  _atom_site_occupancy
  _atom_site_fract_x
  _atom_site_fract_y
  _atom_site_fract_z
  _atom_site_thermal_displace_type
  _atom_site_B_iso_or_equiv
  _atom_site_type_symbol
  Cu1      1.0000 0.00000  0.00000  0.50000  Biso   1.000  Cu
  Cu2      1.0000 0.50000  0.50000  0.50000  Biso   1.000  Cu
  Cu3      1.0000 0.00000  0.00000  0.00000  Biso   1.000  Cu
  Cu4      1.0000 0.50000  0.50000  0.00000  Biso   1.000  Cu
  O1       1.0000 0.79758  0.95989  0.55818  Biso   1.000  O
  O2       1.0000 0.29758  0.45989  0.55818  Biso   1.000  O
  O3       1.0000 0.20242  0.95989  0.94182  Biso   1.000  O
  O4       1.0000 0.70242  0.45989  0.94182  Biso   1.000  O
  O5       1.0000 0.20242  0.04011  0.44182  Biso   1.000  O
  O6       1.0000 0.70242  0.54011  0.44182  Biso   1.000  O
  O7       1.0000 0.79758  0.04011  0.05818  Biso   1.000  O
  O8       1.0000 0.29758  0.54011  0.05818  Biso   1.000  O
  O9       1.0000 0.62340  0.87417  0.45512  Biso   1.000  O
  O10      1.0000 0.12340  0.37417  0.45512  Biso   1.000  O
  O11      1.0000 0.37660  0.87417  0.04488  Biso   1.000  O
  O12      1.0000 0.87660  0.37417  0.04488  Biso   1.000  O
  O13      1.0000 0.37660  0.12583  0.54488  Biso   1.000  O
  O14      1.0000 0.87660  0.62583  0.54488  Biso   1.000  O
  O15      1.0000 0.62340  0.12583  0.95512  Biso   1.000  O
  O16      1.0000 0.12340  0.62583  0.95512  Biso   1.000  O
  N1       1.0000 0.55964  0.78964  0.62093  Biso   1.000  N
  N2       1.0000 0.05964  0.28964  0.62093  Biso   1.000  N
  N3       1.0000 0.44036  0.78964  0.87907  Biso   1.000  N
  N4       1.0000 0.94036  0.28964  0.87907  Biso   1.000  N
  N5       1.0000 0.44036  0.21036  0.37907  Biso   1.000  N
  N6       1.0000 0.94036  0.71036  0.37907  Biso   1.000  N
  N7       1.0000 0.55964  0.21036  0.12093  Biso   1.000  N
  N8       1.0000 0.05964  0.71036  0.12093  Biso   1.000  N
  N9       1.0000 0.50542  0.63247  0.57965  Biso   1.000  N
  N10      1.0000 0.00542  0.13247  0.57965  Biso   1.000  N
  N11      1.0000 0.49458  0.63247  0.92035  Biso   1.000  N
  N12      1.0000 0.99458  0.13247  0.92035  Biso   1.000  N
  N13      1.0000 0.49458  0.36753  0.42035  Biso   1.000  N
  N14      1.0000 0.99458  0.86753  0.42035  Biso   1.000  N
  N15      1.0000 0.50542  0.36753  0.07965  Biso   1.000  N
  N16      1.0000 0.00542  0.86753  0.07965  Biso   1.000  N
  N17      1.0000 0.42700  0.78220  0.62389  Biso   1.000  N
  N18      1.0000 0.92700  0.28220  0.62389  Biso   1.000  N
  N19      1.0000 0.57300  0.78220  0.87611  Biso   1.000  N
  N20      1.0000 0.07300  0.28220  0.87611  Biso   1.000  N
  N21      1.0000 0.57300  0.21780  0.37611  Biso   1.000  N
  N22      1.0000 0.07300  0.71780  0.37611  Biso   1.000  N
  N23      1.0000 0.42700  0.21780  0.12389  Biso   1.000  N
  N24      1.0000 0.92700  0.71780  0.12389  Biso   1.000  N
  N25      1.0000 0.74142  0.88409  0.73154  Biso   1.000  N
  N26      1.0000 0.24142  0.38409  0.73154  Biso   1.000  N
  N27      1.0000 0.25858  0.88409  0.76846  Biso   1.000  N
  N28      1.0000 0.75858  0.38409  0.76846  Biso   1.000  N
  N29      1.0000 0.25858  0.11591  0.26846  Biso   1.000  N
  N30      1.0000 0.75858  0.61591  0.26846  Biso   1.000  N
  N31      1.0000 0.74142  0.11591  0.23154  Biso   1.000  N
  N32      1.0000 0.24142  0.61591  0.23154  Biso   1.000  N
  N33      1.0000 0.82620  0.80212  0.75452  Biso   1.000  N
  N34      1.0000 0.32620  0.30212  0.75452  Biso   1.000  N
  N35      1.0000 0.17380  0.80212  0.74548  Biso   1.000  N
  N36      1.0000 0.67380  0.30212  0.74548  Biso   1.000  N
  N37      1.0000 0.17380  0.19788  0.24548  Biso   1.000  N
  N38      1.0000 0.67380  0.69788  0.24548  Biso   1.000  N
  N39      1.0000 0.82620  0.19788  0.25452  Biso   1.000  N
  N40      1.0000 0.32620  0.69788  0.25452  Biso   1.000  N
  N41      1.0000 0.88955  0.92559  0.87381  Biso   1.000  N
  N42      1.0000 0.38955  0.42559  0.87381  Biso   1.000  N
  N43      1.0000 0.11045  0.92559  0.62619  Biso   1.000  N
  N44      1.0000 0.61045  0.42559  0.62619  Biso   1.000  N
  N45      1.0000 0.11045  0.07441  0.12619  Biso   1.000  N
  N46      1.0000 0.61045  0.57441  0.12619  Biso   1.000  N
  N47      1.0000 0.88955  0.07441  0.37381  Biso   1.000  N
  N48      1.0000 0.38955  0.57441  0.37381  Biso   1.000  N
  C1       1.0000 0.60370  0.70071  0.59442  Biso   1.000  C
  C2       1.0000 0.10370  0.20071  0.59442  Biso   1.000  C
  C3       1.0000 0.39630  0.70071  0.90558  Biso   1.000  C
  C4       1.0000 0.89630  0.20071  0.90558  Biso   1.000  C
  C5       1.0000 0.39630  0.29929  0.40558  Biso   1.000  C
  C6       1.0000 0.89630  0.79929  0.40558  Biso   1.000  C
  C7       1.0000 0.60370  0.29929  0.09442  Biso   1.000  C
  C8       1.0000 0.10370  0.79929  0.09442  Biso   1.000  C
  H1       1.0000 0.69130  0.68840  0.58730  Biso   1.000  H
  H2       1.0000 0.19130  0.18840  0.58730  Biso   1.000  H
  H3       1.0000 0.30870  0.68840  0.91270  Biso   1.000  H
  H4       1.0000 0.80870  0.18840  0.91270  Biso   1.000  H
  H5       1.0000 0.30870  0.31160  0.41270  Biso   1.000  H
  H6       1.0000 0.80870  0.81160  0.41270  Biso   1.000  H
  H7       1.0000 0.69130  0.31160  0.08730  Biso   1.000  H
  H8       1.0000 0.19130  0.81160  0.08730  Biso   1.000  H
  C9       1.0000 0.39920  0.68601  0.59910  Biso   1.000  C
  C10      1.0000 0.89920  0.18601  0.59910  Biso   1.000  C
  C11      1.0000 0.60080  0.68601  0.90090  Biso   1.000  C
  C12      1.0000 0.10080  0.18601  0.90090  Biso   1.000  C
  C13      1.0000 0.60080  0.31399  0.40090  Biso   1.000  C
  C14      1.0000 0.10080  0.81399  0.40090  Biso   1.000  C
  C15      1.0000 0.39920  0.31399  0.09910  Biso   1.000  C
  C16      1.0000 0.89920  0.81399  0.09910  Biso   1.000  C
  H9       1.0000 0.31420  0.65670  0.59510  Biso   1.000  H
  H10      1.0000 0.81420  0.15670  0.59510  Biso   1.000  H
  H11      1.0000 0.68580  0.65670  0.90490  Biso   1.000  H
  H12      1.0000 0.18580  0.15670  0.90490  Biso   1.000  H
  H13      1.0000 0.68580  0.34330  0.40490  Biso   1.000  H
  H14      1.0000 0.18580  0.84330  0.40490  Biso   1.000  H
  H15      1.0000 0.31420  0.34330  0.09510  Biso   1.000  H
  H16      1.0000 0.81420  0.84330  0.09510  Biso   1.000  H
  C17      1.0000 0.63250  0.88652  0.63512  Biso   1.000  C
  C18      1.0000 0.13250  0.38652  0.63512  Biso   1.000  C
  C19      1.0000 0.36750  0.88652  0.86488  Biso   1.000  C
  C20      1.0000 0.86750  0.38652  0.86488  Biso   1.000  C
  C21      1.0000 0.36750  0.11348  0.36488  Biso   1.000  C
  C22      1.0000 0.86750  0.61348  0.36488  Biso   1.000  C
  C23      1.0000 0.63250  0.11348  0.13512  Biso   1.000  C
  C24      1.0000 0.13250  0.61348  0.13512  Biso   1.000  C
  H17      1.0000 0.56820  0.94120  0.64030  Biso   1.000  H
  H18      1.0000 0.06820  0.44120  0.64030  Biso   1.000  H
  H19      1.0000 0.43180  0.94120  0.85970  Biso   1.000  H
  H20      1.0000 0.93180  0.44120  0.85970  Biso   1.000  H
  H21      1.0000 0.43180  0.05880  0.35970  Biso   1.000  H
  H22      1.0000 0.93180  0.55880  0.35970  Biso   1.000  H
  H23      1.0000 0.56820  0.05880  0.14030  Biso   1.000  H
  H24      1.0000 0.06820  0.55880  0.14030  Biso   1.000  H
  C25      1.0000 0.69140  0.90940  0.53901  Biso   1.000  C
  C26      1.0000 0.19140  0.40940  0.53901  Biso   1.000  C
  C27      1.0000 0.30860  0.90940  0.96099  Biso   1.000  C
  C28      1.0000 0.80860  0.40940  0.96099  Biso   1.000  C
  C29      1.0000 0.30860  0.09060  0.46099  Biso   1.000  C
  C30      1.0000 0.80860  0.59060  0.46099  Biso   1.000  C
  C31      1.0000 0.69140  0.09060  0.03901  Biso   1.000  C
  C32      1.0000 0.19140  0.59060  0.03901  Biso   1.000  C
  C33      1.0000 0.77950  0.95594  0.80288  Biso   1.000  C
  C34      1.0000 0.27950  0.45594  0.80288  Biso   1.000  C
  C35      1.0000 0.22050  0.95594  0.69712  Biso   1.000  C
  C36      1.0000 0.72050  0.45594  0.69712  Biso   1.000  C
  C37      1.0000 0.22050  0.04406  0.19712  Biso   1.000  C
  C38      1.0000 0.72050  0.54406  0.19712  Biso   1.000  C
  C39      1.0000 0.77950  0.04406  0.30288  Biso   1.000  C
  C40      1.0000 0.27950  0.54406  0.30288  Biso   1.000  C
  H25      1.0000 0.73540  0.01850  0.80320  Biso   1.000  H
  H26      1.0000 0.23540  0.51850  0.80320  Biso   1.000  H
  H27      1.0000 0.26460  0.01850  0.69680  Biso   1.000  H
  H28      1.0000 0.76460  0.51850  0.69680  Biso   1.000  H
  H29      1.0000 0.26460  0.98150  0.19680  Biso   1.000  H
  H30      1.0000 0.76460  0.48150  0.19680  Biso   1.000  H
  H31      1.0000 0.73540  0.98150  0.30320  Biso   1.000  H
  H32      1.0000 0.23540  0.48150  0.30320  Biso   1.000  H
  C41      1.0000 0.91230  0.83074  0.84170  Biso   1.000  C
  C42      1.0000 0.41230  0.33074  0.84170  Biso   1.000  C
  C43      1.0000 0.08770  0.83074  0.65830  Biso   1.000  C
  C44      1.0000 0.58770  0.33074  0.65830  Biso   1.000  C
  C45      1.0000 0.08770  0.16926  0.15830  Biso   1.000  C
  C46      1.0000 0.58770  0.66926  0.15830  Biso   1.000  C
  C47      1.0000 0.91230  0.16926  0.34170  Biso   1.000  C
  C48      1.0000 0.41230  0.66926  0.34170  Biso   1.000  C
  H33      1.0000 0.98320  0.78910  0.87830  Biso   1.000  H
  H34      1.0000 0.48320  0.28910  0.87830  Biso   1.000  H
  H35      1.0000 0.01680  0.78910  0.62170  Biso   1.000  H
  H36      1.0000 0.51680  0.28910  0.62170  Biso   1.000  H
  H37      1.0000 0.01680  0.21090  0.12170  Biso   1.000  H
  H38      1.0000 0.51680  0.71090  0.12170  Biso   1.000  H
  H39      1.0000 0.98320  0.21090  0.37830  Biso   1.000  H
  H40      1.0000 0.48320  0.71090  0.37830  Biso   1.000  H
  O17      1.0000 0.00000  0.42810  0.25000  Biso   1.000  O
  O18      1.0000 0.50000  0.92810  0.25000  Biso   1.000  O
  O19      1.0000 0.00000  0.57190  0.75000  Biso   1.000  O
  O20      1.0000 0.50000  0.07190  0.75000  Biso   1.000  O
