data_image0
_cell_length_a       8.4296
_cell_length_b       8.4822
_cell_length_c       8.6423
_cell_angle_alpha    74.084
_cell_angle_beta     79.02
_cell_angle_gamma    83.725

_symmetry_space_group_name_H-M    "P 1"
_symmetry_int_tables_number       1

loop_
  _symmetry_equiv_pos_as_xyz
  'x, y, z'

loop_
  _atom_site_label
  _atom_site_occupancy
  _atom_site_fract_x
  _atom_site_fract_y
  _atom_site_fract_z
  _atom_site_thermal_displace_type
  _atom_site_B_iso_or_equiv
  _atom_site_type_symbol
  Cu1      1.0000 0.00000  0.00000  0.50000  Biso   1.000  Cu
  N1       1.0000 0.88100  0.84110  0.13000  Biso   1.000  N
  N2       1.0000 0.11900  0.15890  0.87000  Biso   1.000  N
  N3       1.0000 0.03310  0.76930  0.12170  Biso   1.000  N
  N4       1.0000 0.96690  0.23070  0.87830  Biso   1.000  N
  N5       1.0000 0.98420  0.91430  0.30870  Biso   1.000  N
  N6       1.0000 0.01580  0.08570  0.69130  Biso   1.000  N
  N7       1.0000 0.26510  0.22670  0.37250  Biso   1.000  N
  N8       1.0000 0.73490  0.77330  0.62750  Biso   1.000  N
  N9       1.0000 0.22550  0.06950  0.40300  Biso   1.000  N
  N10      1.0000 0.77450  0.93050  0.59700  Biso   1.000  N
  N11      1.0000 0.34810  0.97770  0.35130  Biso   1.000  N
  N12      1.0000 0.65190  0.02230  0.64870  Biso   1.000  N
  N13      1.0000 0.47400  0.07280  0.28300  Biso   1.000  N
  N14      1.0000 0.52600  0.92720  0.71700  Biso   1.000  N
  C1       1.0000 0.09010  0.81690  0.23250  Biso   1.000  C
  C2       1.0000 0.90990  0.18310  0.76750  Biso   1.000  C
  H1       1.0000 0.19400  0.78620  0.25610  Biso   1.000  H
  H2       1.0000 0.80600  0.21380  0.74390  Biso   1.000  H
  C3       1.0000 0.85240  0.92600  0.24060  Biso   1.000  C
  C4       1.0000 0.14760  0.07400  0.75940  Biso   1.000  C
  H3       1.0000 0.75580  0.98470  0.26690  Biso   1.000  H
  H4       1.0000 0.24420  0.01530  0.73310  Biso   1.000  H
  C5       1.0000 0.76990  0.81230  0.02870  Biso   1.000  C
  C6       1.0000 0.23010  0.18770  0.97130  Biso   1.000  C
  H5       1.0000 0.83090  0.80740  0.92270  Biso   1.000  H
  H6       1.0000 0.16910  0.19260  0.07730  Biso   1.000  H
  H7       1.0000 0.68990  0.90390  0.01180  Biso   1.000  H
  H8       1.0000 0.31010  0.09610  0.98820  Biso   1.000  H
  C7       1.0000 0.68420  0.65470  0.10620  Biso   1.000  C
  C8       1.0000 0.31580  0.34530  0.89380  Biso   1.000  C
  C9       1.0000 0.55460  0.64810  0.23310  Biso   1.000  C
  C10      1.0000 0.44540  0.35190  0.76690  Biso   1.000  C
  H9       1.0000 0.52420  0.73920  0.27460  Biso   1.000  H
  H10      1.0000 0.47580  0.26080  0.72540  Biso   1.000  H
  C11      1.0000 0.47000  0.50660  0.29890  Biso   1.000  C
  C12      1.0000 0.53000  0.49340  0.70110  Biso   1.000  C
  H11      1.0000 0.38320  0.50320  0.38400  Biso   1.000  H
  H12      1.0000 0.61680  0.49680  0.61600  Biso   1.000  H
  C13      1.0000 0.51550  0.36980  0.23690  Biso   1.000  C
  C14      1.0000 0.48450  0.63020  0.76310  Biso   1.000  C
  C15      1.0000 0.64740  0.37420  0.11310  Biso   1.000  C
  C16      1.0000 0.35260  0.62580  0.88690  Biso   1.000  C
  H13      1.0000 0.67970  0.28220  0.07360  Biso   1.000  H
  H14      1.0000 0.32030  0.71780  0.92640  Biso   1.000  H
  C17      1.0000 0.73190  0.51690  0.04770  Biso   1.000  C
  C18      1.0000 0.26810  0.48310  0.95230  Biso   1.000  C
  H15      1.0000 0.82050  0.51950  0.96460  Biso   1.000  H
  H16      1.0000 0.17950  0.48050  0.03540  Biso   1.000  H
  C19      1.0000 0.41860  0.22310  0.29960  Biso   1.000  C
  C20      1.0000 0.58140  0.77690  0.70040  Biso   1.000  C
  O1       1.0000 0.10040  0.71520  0.61900  Biso   1.000  O
  O2       1.0000 0.89960  0.28480  0.38100  Biso   1.000  O
  H17      1.0000 0.09820  0.66890  0.71990  Biso   1.000  H
  H18      1.0000 0.90180  0.33110  0.28010  Biso   1.000  H
  H19      1.0000 0.19680  0.70960  0.56820  Biso   1.000  H
  H20      1.0000 0.80320  0.29040  0.43180  Biso   1.000  H
  O3       1.0000 0.05630  0.47600  0.50140  Biso   1.000  O
  O4       1.0000 0.94370  0.52400  0.49860  Biso   1.000  O
