data_image0
_cell_length_a       4.3965
_cell_length_b       10.2633
_cell_length_c       15.3332
_cell_angle_alpha    86.968
_cell_angle_beta     82.246
_cell_angle_gamma    88.102

_symmetry_space_group_name_H-M    "P 1"
_symmetry_int_tables_number       1

loop_
  _symmetry_equiv_pos_as_xyz
  'x, y, z'

loop_
  _atom_site_label
  _atom_site_occupancy
  _atom_site_fract_x
  _atom_site_fract_y
  _atom_site_fract_z
  _atom_site_thermal_displace_type
  _atom_site_B_iso_or_equiv
  _atom_site_type_symbol
  Cu1      1.0000 0.21701  0.06652  0.12936  Biso   1.000  Cu
  Cu2      1.0000 0.78299  0.93348  0.87064  Biso   1.000  Cu
  Cu3      1.0000 0.25689  0.85692  0.50666  Biso   1.000  Cu
  Cu4      1.0000 0.74311  0.14308  0.49334  Biso   1.000  Cu
  Cu5      1.0000 0.00000  0.50000  0.50000  Biso   1.000  Cu
  N1       1.0000 0.47840  0.22650  0.11730  Biso   1.000  N
  N2       1.0000 0.52160  0.77350  0.88270  Biso   1.000  N
  N3       1.0000 0.99100  0.05460  0.39330  Biso   1.000  N
  N4       1.0000 0.00900  0.94540  0.60670  Biso   1.000  N
  N5       1.0000 0.16260  0.02180  0.25780  Biso   1.000  N
  N6       1.0000 0.83740  0.97820  0.74220  Biso   1.000  N
  N7       1.0000 0.14960  0.93940  0.39390  Biso   1.000  N
  N8       1.0000 0.85040  0.06060  0.60610  Biso   1.000  N
  N9       1.0000 0.77920  0.38110  0.13910  Biso   1.000  N
  N10      1.0000 0.22080  0.61890  0.86090  Biso   1.000  N
  N11      1.0000 0.99660  0.10440  0.31250  Biso   1.000  N
  N12      1.0000 0.00340  0.89560  0.68750  Biso   1.000  N
  N13      1.0000 0.73270  0.64060  0.51840  Biso   1.000  N
  N14      1.0000 0.26730  0.35940  0.48160  Biso   1.000  N
  N15      1.0000 0.03600  0.01200  0.02860  Biso   1.000  N
  N16      1.0000 0.96400  0.98800  0.97140  Biso   1.000  N
  N17      1.0000 0.71050  0.40760  0.05580  Biso   1.000  N
  N18      1.0000 0.28950  0.59240  0.94420  Biso   1.000  N
  C1       1.0000 0.25120  0.92060  0.30850  Biso   1.000  C
  C2       1.0000 0.74880  0.07940  0.69150  Biso   1.000  C
  C3       1.0000 0.43100  0.80620  0.27560  Biso   1.000  C
  C4       1.0000 0.56900  0.19380  0.72440  Biso   1.000  C
  C5       1.0000 0.56020  0.72450  0.51880  Biso   1.000  C
  C6       1.0000 0.43980  0.27550  0.48120  Biso   1.000  C
  C7       1.0000 0.63950  0.27450  0.17430  Biso   1.000  C
  C8       1.0000 0.36050  0.72550  0.82570  Biso   1.000  C
  H1       1.0000 0.65300  0.23890  0.23070  Biso   1.000  H
  H2       1.0000 0.34700  0.76110  0.76930  Biso   1.000  H
  C9       1.0000 0.63960  0.81850  0.19900  Biso   1.000  C
  C10      1.0000 0.36040  0.18150  0.80100  Biso   1.000  C
  H3       1.0000 0.66380  0.89890  0.16840  Biso   1.000  H
  H4       1.0000 0.33620  0.10110  0.83160  Biso   1.000  H
  C11      1.0000 0.53110  0.31090  0.04610  Biso   1.000  C
  C12      1.0000 0.46890  0.68910  0.95390  Biso   1.000  C
  H5       1.0000 0.44680  0.30110  0.99450  Biso   1.000  H
  H6       1.0000 0.55320  0.69890  0.00550  Biso   1.000  H
  C13      1.0000 0.39110  0.68500  0.31920  Biso   1.000  C
  C14      1.0000 0.60890  0.31500  0.68080  Biso   1.000  C
  H7       1.0000 0.24700  0.67580  0.36920  Biso   1.000  H
  H8       1.0000 0.75300  0.32420  0.63080  Biso   1.000  H
  C15      1.0000 0.56240  0.57840  0.28910  Biso   1.000  C
  C16      1.0000 0.43760  0.42160  0.71090  Biso   1.000  C
  H9       1.0000 0.53670  0.49790  0.31960  Biso   1.000  H
  H10      1.0000 0.46330  0.50210  0.68040  Biso   1.000  H
  C17      1.0000 0.81200  0.70990  0.16830  Biso   1.000  C
  C18      1.0000 0.18800  0.29010  0.83170  Biso   1.000  C
  H11      1.0000 0.95260  0.71850  0.11740  Biso   1.000  H
  H12      1.0000 0.04740  0.28150  0.88260  Biso   1.000  H
  C19      1.0000 0.77630  0.59000  0.21250  Biso   1.000  C
  C20      1.0000 0.22370  0.41000  0.78750  Biso   1.000  C
  C21      1.0000 0.96280  0.47190  0.17970  Biso   1.000  C
  C22      1.0000 0.03720  0.52810  0.82030  Biso   1.000  C
  H13      1.0000 0.13330  0.50040  0.13670  Biso   1.000  H
  H14      1.0000 0.86670  0.49960  0.86330  Biso   1.000  H
  H15      1.0000 0.04700  0.42680  0.22860  Biso   1.000  H
  H16      1.0000 0.95300  0.57320  0.77140  Biso   1.000  H
  C23      1.0000 0.08100  0.01600  0.03300  Biso   1.000  C
  C24      1.0000 0.91900  0.98400  0.96700  Biso   1.000  C
