data_image0
_cell_length_a       14.385
_cell_length_b       6.0326
_cell_length_c       14.839
_cell_angle_alpha    90
_cell_angle_beta     116.257
_cell_angle_gamma    90

_symmetry_space_group_name_H-M    "P 1"
_symmetry_int_tables_number       1

loop_
  _symmetry_equiv_pos_as_xyz
  'x, y, z'

loop_
  _atom_site_label
  _atom_site_occupancy
  _atom_site_fract_x
  _atom_site_fract_y
  _atom_site_fract_z
  _atom_site_thermal_displace_type
  _atom_site_B_iso_or_equiv
  _atom_site_type_symbol
  Cu1      1.0000 0.50000  0.00000  0.00000  Biso   1.000  Cu
  Cu2      1.0000 0.00000  0.50000  0.50000  Biso   1.000  Cu
  O1       1.0000 0.62217  0.29590  0.09393  Biso   1.000  O
  O2       1.0000 0.87783  0.79590  0.40607  Biso   1.000  O
  O3       1.0000 0.37783  0.70410  0.90607  Biso   1.000  O
  O4       1.0000 0.12217  0.20410  0.59393  Biso   1.000  O
  H1       1.0000 0.68030  0.23590  0.10750  Biso   1.000  H
  H2       1.0000 0.81970  0.73590  0.39250  Biso   1.000  H
  H3       1.0000 0.31970  0.76410  0.89250  Biso   1.000  H
  H4       1.0000 0.18030  0.26410  0.60750  Biso   1.000  H
  H5       1.0000 0.61890  0.41510  0.06210  Biso   1.000  H
  H6       1.0000 0.88110  0.91510  0.43790  Biso   1.000  H
  H7       1.0000 0.38110  0.58490  0.93790  Biso   1.000  H
  H8       1.0000 0.11890  0.08490  0.56210  Biso   1.000  H
  N1       1.0000 0.54990  0.82930  0.12910  Biso   1.000  N
  N2       1.0000 0.95010  0.32930  0.37090  Biso   1.000  N
  N3       1.0000 0.45010  0.17070  0.87090  Biso   1.000  N
  N4       1.0000 0.04990  0.67070  0.62910  Biso   1.000  N
  N5       1.0000 0.56270  0.58580  0.24150  Biso   1.000  N
  N6       1.0000 0.93730  0.08580  0.25850  Biso   1.000  N
  N7       1.0000 0.43730  0.41420  0.75850  Biso   1.000  N
  N8       1.0000 0.06270  0.91420  0.74150  Biso   1.000  N
  N9       1.0000 0.65800  0.68260  0.27820  Biso   1.000  N
  N10      1.0000 0.84200  0.18260  0.22180  Biso   1.000  N
  N11      1.0000 0.34200  0.31740  0.72180  Biso   1.000  N
  N12      1.0000 0.15800  0.81740  0.77820  Biso   1.000  N
  N13      1.0000 0.16790  0.50600  0.43530  Biso   1.000  N
  N14      1.0000 0.33210  0.00600  0.06470  Biso   1.000  N
  N15      1.0000 0.83210  0.49400  0.56470  Biso   1.000  N
  N16      1.0000 0.66790  0.99400  0.93530  Biso   1.000  N
  N17      1.0000 0.11810  0.62120  0.47780  Biso   1.000  N
  N18      1.0000 0.38190  0.12120  0.02220  Biso   1.000  N
  N19      1.0000 0.88190  0.37880  0.52220  Biso   1.000  N
  N20      1.0000 0.61810  0.87880  0.97780  Biso   1.000  N
  N21      1.0000 0.16090  0.81680  0.50600  Biso   1.000  N
  N22      1.0000 0.33910  0.31680  0.99400  Biso   1.000  N
  N23      1.0000 0.83910  0.18320  0.49400  Biso   1.000  N
  N24      1.0000 0.66090  0.68320  0.00600  Biso   1.000  N
  N25      1.0000 0.24050  0.83400  0.48310  Biso   1.000  N
  N26      1.0000 0.25950  0.33400  0.01690  Biso   1.000  N
  N27      1.0000 0.75950  0.16600  0.51690  Biso   1.000  N
  N28      1.0000 0.74050  0.66600  0.98310  Biso   1.000  N
  C1       1.0000 0.50000  0.67400  0.15420  Biso   1.000  C
  C2       1.0000 0.00000  0.17400  0.34580  Biso   1.000  C
  C3       1.0000 0.50000  0.32600  0.84580  Biso   1.000  C
  C4       1.0000 0.00000  0.82600  0.65420  Biso   1.000  C
  H9       1.0000 0.43110  0.63360  0.11590  Biso   1.000  H
  H10      1.0000 0.06890  0.13360  0.38410  Biso   1.000  H
  H11      1.0000 0.56890  0.36640  0.88410  Biso   1.000  H
  H12      1.0000 0.93110  0.86640  0.61590  Biso   1.000  H
  C5       1.0000 0.64550  0.82530  0.20700  Biso   1.000  C
  C6       1.0000 0.85450  0.32530  0.29300  Biso   1.000  C
  C7       1.0000 0.35450  0.17470  0.79300  Biso   1.000  C
  C8       1.0000 0.14550  0.67470  0.70700  Biso   1.000  C
  H13      1.0000 0.69870  0.91720  0.21000  Biso   1.000  H
  H14      1.0000 0.80130  0.41720  0.29000  Biso   1.000  H
  H15      1.0000 0.30130  0.08280  0.79000  Biso   1.000  H
  H16      1.0000 0.19870  0.58280  0.71000  Biso   1.000  H
  C9       1.0000 0.54150  0.40610  0.29490  Biso   1.000  C
  C10      1.0000 0.95850  0.90610  0.20510  Biso   1.000  C
  C11      1.0000 0.45850  0.59390  0.70510  Biso   1.000  C
  C12      1.0000 0.04150  0.09390  0.79490  Biso   1.000  C
  H17      1.0000 0.60550  0.36290  0.35180  Biso   1.000  H
  H18      1.0000 0.89450  0.86290  0.14820  Biso   1.000  H
  H19      1.0000 0.39450  0.63710  0.64820  Biso   1.000  H
  H20      1.0000 0.10550  0.13710  0.85180  Biso   1.000  H
  H21      1.0000 0.51600  0.27900  0.25060  Biso   1.000  H
  H22      1.0000 0.98400  0.77900  0.24940  Biso   1.000  H
  H23      1.0000 0.48400  0.72100  0.74940  Biso   1.000  H
  H24      1.0000 0.01600  0.22100  0.75060  Biso   1.000  H
  C13      1.0000 0.46260  0.46990  0.33190  Biso   1.000  C
  C14      1.0000 0.03740  0.96990  0.16810  Biso   1.000  C
  C15      1.0000 0.53740  0.53010  0.66810  Biso   1.000  C
  C16      1.0000 0.96260  0.03010  0.83190  Biso   1.000  C
  C17      1.0000 0.46840  0.67240  0.37790  Biso   1.000  C
  C18      1.0000 0.03160  0.17240  0.12210  Biso   1.000  C
  C19      1.0000 0.53160  0.32760  0.62210  Biso   1.000  C
  C20      1.0000 0.96840  0.82760  0.87790  Biso   1.000  C
  H25      1.0000 0.52060  0.77180  0.38490  Biso   1.000  H
  H26      1.0000 0.97940  0.27180  0.11510  Biso   1.000  H
  H27      1.0000 0.47940  0.22820  0.61510  Biso   1.000  H
  H28      1.0000 0.02060  0.72820  0.88490  Biso   1.000  H
  C21      1.0000 0.38390  0.32720  0.32020  Biso   1.000  C
  C22      1.0000 0.11610  0.82720  0.17980  Biso   1.000  C
  C23      1.0000 0.61610  0.67280  0.67980  Biso   1.000  C
  C24      1.0000 0.88390  0.17280  0.82020  Biso   1.000  C
  H29      1.0000 0.37800  0.19250  0.28760  Biso   1.000  H
  H30      1.0000 0.12200  0.69250  0.21240  Biso   1.000  H
  H31      1.0000 0.62200  0.80750  0.71240  Biso   1.000  H
  H32      1.0000 0.87800  0.30750  0.78760  Biso   1.000  H
  C25      1.0000 0.24210  0.64110  0.43950  Biso   1.000  C
  C26      1.0000 0.25790  0.14110  0.06050  Biso   1.000  C
  C27      1.0000 0.75790  0.35890  0.56050  Biso   1.000  C
  C28      1.0000 0.74210  0.85890  0.93950  Biso   1.000  C
  C29      1.0000 0.31870  0.58350  0.40260  Biso   1.000  C
  C30      1.0000 0.18130  0.08350  0.09740  Biso   1.000  C
  C31      1.0000 0.68130  0.41650  0.59740  Biso   1.000  C
  C32      1.0000 0.81870  0.91650  0.90260  Biso   1.000  C
  C33      1.0000 0.39730  0.72860  0.41350  Biso   1.000  C
  C34      1.0000 0.10270  0.22860  0.08650  Biso   1.000  C
  C35      1.0000 0.60270  0.27140  0.58650  Biso   1.000  C
  C36      1.0000 0.89730  0.77140  0.91350  Biso   1.000  C
  H33      1.0000 0.40250  0.86460  0.44490  Biso   1.000  H
  H34      1.0000 0.09750  0.36460  0.05510  Biso   1.000  H
  H35      1.0000 0.59750  0.13540  0.55510  Biso   1.000  H
  H36      1.0000 0.90250  0.63540  0.94490  Biso   1.000  H
  C37      1.0000 0.31340  0.38110  0.35630  Biso   1.000  C
  C38      1.0000 0.18660  0.88110  0.14370  Biso   1.000  C
  C39      1.0000 0.68660  0.61890  0.64370  Biso   1.000  C
  C40      1.0000 0.81340  0.11890  0.85630  Biso   1.000  C
  H37      1.0000 0.26160  0.28060  0.34950  Biso   1.000  H
  H38      1.0000 0.23840  0.78060  0.15050  Biso   1.000  H
  H39      1.0000 0.73840  0.71940  0.65050  Biso   1.000  H
  H40      1.0000 0.76160  0.21940  0.84950  Biso   1.000  H
