data_image0
_cell_length_a       8.226
_cell_length_b       12.49
_cell_length_c       31.207
_cell_angle_alpha    90
_cell_angle_beta     90
_cell_angle_gamma    90

_symmetry_space_group_name_H-M    "P 1"
_symmetry_int_tables_number       1

loop_
  _symmetry_equiv_pos_as_xyz
  'x, y, z'

loop_
  _atom_site_label
  _atom_site_occupancy
  _atom_site_fract_x
  _atom_site_fract_y
  _atom_site_fract_z
  _atom_site_thermal_displace_type
  _atom_site_B_iso_or_equiv
  _atom_site_type_symbol
  Cu1      1.0000 0.23891  0.65425  0.02245  Biso   1.000  Cu
  Cu2      1.0000 0.26109  0.34575  0.52245  Biso   1.000  Cu
  Cu3      1.0000 0.76109  0.15425  0.47755  Biso   1.000  Cu
  Cu4      1.0000 0.73891  0.84575  0.97755  Biso   1.000  Cu
  Cu5      1.0000 0.76109  0.34575  0.97755  Biso   1.000  Cu
  Cu6      1.0000 0.73891  0.65425  0.47755  Biso   1.000  Cu
  Cu7      1.0000 0.23891  0.84575  0.52245  Biso   1.000  Cu
  Cu8      1.0000 0.26109  0.15425  0.02245  Biso   1.000  Cu
  Cl1      1.0000 0.97079  0.75859  0.00346  Biso   1.000  Cl
  Cl2      1.0000 0.52921  0.24141  0.50346  Biso   1.000  Cl
  Cl3      1.0000 0.02921  0.25859  0.49654  Biso   1.000  Cl
  Cl4      1.0000 0.47079  0.74141  0.99654  Biso   1.000  Cl
  Cl5      1.0000 0.02921  0.24141  0.99654  Biso   1.000  Cl
  Cl6      1.0000 0.47079  0.75859  0.49654  Biso   1.000  Cl
  Cl7      1.0000 0.97079  0.74141  0.50346  Biso   1.000  Cl
  Cl8      1.0000 0.52921  0.25859  0.00346  Biso   1.000  Cl
  Cl9      1.0000 0.17245  0.50356  0.06095  Biso   1.000  Cl
  Cl10     1.0000 0.32755  0.49644  0.56095  Biso   1.000  Cl
  Cl11     1.0000 0.82755  0.00356  0.43905  Biso   1.000  Cl
  Cl12     1.0000 0.67245  0.99644  0.93905  Biso   1.000  Cl
  Cl13     1.0000 0.82755  0.49644  0.93905  Biso   1.000  Cl
  Cl14     1.0000 0.67245  0.50356  0.43905  Biso   1.000  Cl
  Cl15     1.0000 0.17245  0.99644  0.56095  Biso   1.000  Cl
  Cl16     1.0000 0.32755  0.00356  0.06095  Biso   1.000  Cl
  N1       1.0000 0.23620  0.74230  0.07531  Biso   1.000  N
  N2       1.0000 0.26380  0.25770  0.57531  Biso   1.000  N
  N3       1.0000 0.76380  0.24230  0.42469  Biso   1.000  N
  N4       1.0000 0.73620  0.75770  0.92469  Biso   1.000  N
  N5       1.0000 0.76380  0.25770  0.92469  Biso   1.000  N
  N6       1.0000 0.73620  0.74230  0.42469  Biso   1.000  N
  N7       1.0000 0.23620  0.75770  0.57531  Biso   1.000  N
  N8       1.0000 0.26380  0.24230  0.07531  Biso   1.000  N
  H1       1.0000 0.23780  0.81150  0.06730  Biso   1.000  H
  H2       1.0000 0.26220  0.18850  0.56730  Biso   1.000  H
  H3       1.0000 0.76220  0.31150  0.43270  Biso   1.000  H
  H4       1.0000 0.73780  0.68850  0.93270  Biso   1.000  H
  H5       1.0000 0.76220  0.18850  0.93270  Biso   1.000  H
  H6       1.0000 0.73780  0.81150  0.43270  Biso   1.000  H
  H7       1.0000 0.23780  0.68850  0.56730  Biso   1.000  H
  H8       1.0000 0.26220  0.31150  0.06730  Biso   1.000  H
  H9       1.0000 0.14060  0.73080  0.08850  Biso   1.000  H
  H10      1.0000 0.35940  0.26920  0.58850  Biso   1.000  H
  H11      1.0000 0.85940  0.23080  0.41150  Biso   1.000  H
  H12      1.0000 0.64060  0.76920  0.91150  Biso   1.000  H
  H13      1.0000 0.85940  0.26920  0.91150  Biso   1.000  H
  H14      1.0000 0.64060  0.73080  0.41150  Biso   1.000  H
  H15      1.0000 0.14060  0.76920  0.58850  Biso   1.000  H
  H16      1.0000 0.35940  0.23080  0.08850  Biso   1.000  H
  N9       1.0000 0.20990  0.58390  0.96597  Biso   1.000  N
  N10      1.0000 0.29010  0.41610  0.46597  Biso   1.000  N
  N11      1.0000 0.79010  0.08390  0.53403  Biso   1.000  N
  N12      1.0000 0.70990  0.91610  0.03403  Biso   1.000  N
  N13      1.0000 0.79010  0.41610  0.03403  Biso   1.000  N
  N14      1.0000 0.70990  0.58390  0.53403  Biso   1.000  N
  N15      1.0000 0.20990  0.91610  0.46597  Biso   1.000  N
  N16      1.0000 0.29010  0.08390  0.96597  Biso   1.000  N
  H17      1.0000 0.10860  0.55680  0.96500  Biso   1.000  H
  H18      1.0000 0.39140  0.44320  0.46500  Biso   1.000  H
  H19      1.0000 0.89140  0.05680  0.53500  Biso   1.000  H
  H20      1.0000 0.60860  0.94320  0.03500  Biso   1.000  H
  H21      1.0000 0.89140  0.44320  0.03500  Biso   1.000  H
  H22      1.0000 0.60860  0.55680  0.53500  Biso   1.000  H
  H23      1.0000 0.10860  0.94320  0.46500  Biso   1.000  H
  H24      1.0000 0.39140  0.05680  0.96500  Biso   1.000  H
  H25      1.0000 0.21600  0.63490  0.94560  Biso   1.000  H
  H26      1.0000 0.28400  0.36510  0.44560  Biso   1.000  H
  H27      1.0000 0.78400  0.13490  0.55440  Biso   1.000  H
  H28      1.0000 0.71600  0.86510  0.05440  Biso   1.000  H
  H29      1.0000 0.78400  0.36510  0.05440  Biso   1.000  H
  H30      1.0000 0.71600  0.63490  0.55440  Biso   1.000  H
  H31      1.0000 0.21600  0.86510  0.44560  Biso   1.000  H
  H32      1.0000 0.28400  0.13490  0.94560  Biso   1.000  H
  C1       1.0000 0.36680  0.72680  0.10744  Biso   1.000  C
  C2       1.0000 0.13320  0.27320  0.60744  Biso   1.000  C
  C3       1.0000 0.63320  0.22680  0.39256  Biso   1.000  C
  C4       1.0000 0.86680  0.77320  0.89256  Biso   1.000  C
  C5       1.0000 0.63320  0.27320  0.89256  Biso   1.000  C
  C6       1.0000 0.86680  0.72680  0.39256  Biso   1.000  C
  C7       1.0000 0.36680  0.77320  0.60744  Biso   1.000  C
  C8       1.0000 0.13320  0.22680  0.10744  Biso   1.000  C
  H33      1.0000 0.46550  0.76050  0.09710  Biso   1.000  H
  H34      1.0000 0.03450  0.23950  0.59710  Biso   1.000  H
  H35      1.0000 0.53450  0.26050  0.40290  Biso   1.000  H
  H36      1.0000 0.96550  0.73950  0.90290  Biso   1.000  H
  H37      1.0000 0.53450  0.23950  0.90290  Biso   1.000  H
  H38      1.0000 0.96550  0.76050  0.40290  Biso   1.000  H
  H39      1.0000 0.46550  0.73950  0.59710  Biso   1.000  H
  H40      1.0000 0.03450  0.26050  0.09710  Biso   1.000  H
  H41      1.0000 0.38820  0.65080  0.11040  Biso   1.000  H
  H42      1.0000 0.11180  0.34920  0.61040  Biso   1.000  H
  H43      1.0000 0.61180  0.15080  0.38960  Biso   1.000  H
  H44      1.0000 0.88820  0.84920  0.88960  Biso   1.000  H
  H45      1.0000 0.61180  0.34920  0.88960  Biso   1.000  H
  H46      1.0000 0.88820  0.65080  0.38960  Biso   1.000  H
  H47      1.0000 0.38820  0.84920  0.61040  Biso   1.000  H
  H48      1.0000 0.11180  0.15080  0.11040  Biso   1.000  H
  C9       1.0000 0.32560  0.77220  0.15069  Biso   1.000  C
  C10      1.0000 0.17440  0.22780  0.65069  Biso   1.000  C
  C11      1.0000 0.67440  0.27220  0.34931  Biso   1.000  C
  C12      1.0000 0.82560  0.72780  0.84931  Biso   1.000  C
  C13      1.0000 0.67440  0.22780  0.84931  Biso   1.000  C
  C14      1.0000 0.82560  0.77220  0.34931  Biso   1.000  C
  C15      1.0000 0.32560  0.72780  0.65069  Biso   1.000  C
  C16      1.0000 0.17440  0.27220  0.15069  Biso   1.000  C
  C17      1.0000 0.39380  0.86670  0.16536  Biso   1.000  C
  C18      1.0000 0.10620  0.13330  0.66536  Biso   1.000  C
  C19      1.0000 0.60620  0.36670  0.33464  Biso   1.000  C
  C20      1.0000 0.89380  0.63330  0.83464  Biso   1.000  C
  C21      1.0000 0.60620  0.13330  0.83464  Biso   1.000  C
  C22      1.0000 0.89380  0.86670  0.33464  Biso   1.000  C
  C23      1.0000 0.39380  0.63330  0.66536  Biso   1.000  C
  C24      1.0000 0.10620  0.36670  0.16536  Biso   1.000  C
  H49      1.0000 0.46740  0.90360  0.14830  Biso   1.000  H
  H50      1.0000 0.03260  0.09640  0.64830  Biso   1.000  H
  H51      1.0000 0.53260  0.40360  0.35170  Biso   1.000  H
  H52      1.0000 0.96740  0.59640  0.85170  Biso   1.000  H
  H53      1.0000 0.53260  0.09640  0.85170  Biso   1.000  H
  H54      1.0000 0.96740  0.90360  0.35170  Biso   1.000  H
  H55      1.0000 0.46740  0.59640  0.64830  Biso   1.000  H
  H56      1.0000 0.03260  0.40360  0.14830  Biso   1.000  H
  C25      1.0000 0.35280  0.90670  0.20550  Biso   1.000  C
  C26      1.0000 0.14720  0.09330  0.70550  Biso   1.000  C
  C27      1.0000 0.64720  0.40670  0.29450  Biso   1.000  C
  C28      1.0000 0.85280  0.59330  0.79450  Biso   1.000  C
  C29      1.0000 0.64720  0.09330  0.79450  Biso   1.000  C
  C30      1.0000 0.85280  0.90670  0.29450  Biso   1.000  C
  C31      1.0000 0.35280  0.59330  0.70550  Biso   1.000  C
  C32      1.0000 0.14720  0.40670  0.20550  Biso   1.000  C
  H57      1.0000 0.40160  0.96920  0.21540  Biso   1.000  H
  H58      1.0000 0.09840  0.03080  0.71540  Biso   1.000  H
  H59      1.0000 0.59840  0.46920  0.28460  Biso   1.000  H
  H60      1.0000 0.90160  0.53080  0.78460  Biso   1.000  H
  H61      1.0000 0.59840  0.03080  0.78460  Biso   1.000  H
  H62      1.0000 0.90160  0.96920  0.28460  Biso   1.000  H
  H63      1.0000 0.40160  0.53080  0.71540  Biso   1.000  H
  H64      1.0000 0.09840  0.46920  0.21540  Biso   1.000  H
  C33      1.0000 0.24070  0.85480  0.23064  Biso   1.000  C
  C34      1.0000 0.25930  0.14520  0.73064  Biso   1.000  C
  C35      1.0000 0.75930  0.35480  0.26936  Biso   1.000  C
  C36      1.0000 0.74070  0.64520  0.76936  Biso   1.000  C
  C37      1.0000 0.75930  0.14520  0.76936  Biso   1.000  C
  C38      1.0000 0.74070  0.85480  0.26936  Biso   1.000  C
  C39      1.0000 0.24070  0.64520  0.73064  Biso   1.000  C
  C40      1.0000 0.25930  0.35480  0.23064  Biso   1.000  C
  H65      1.0000 0.21260  0.88250  0.25730  Biso   1.000  H
  H66      1.0000 0.28740  0.11750  0.75730  Biso   1.000  H
  H67      1.0000 0.78740  0.38250  0.24270  Biso   1.000  H
  H68      1.0000 0.71260  0.61750  0.74270  Biso   1.000  H
  H69      1.0000 0.78740  0.11750  0.74270  Biso   1.000  H
  H70      1.0000 0.71260  0.88250  0.24270  Biso   1.000  H
  H71      1.0000 0.21260  0.61750  0.75730  Biso   1.000  H
  H72      1.0000 0.28740  0.38250  0.25730  Biso   1.000  H
  C41      1.0000 0.17050  0.76210  0.21630  Biso   1.000  C
  C42      1.0000 0.32950  0.23790  0.71630  Biso   1.000  C
  C43      1.0000 0.82950  0.26210  0.28370  Biso   1.000  C
  C44      1.0000 0.67050  0.73790  0.78370  Biso   1.000  C
  C45      1.0000 0.82950  0.23790  0.78370  Biso   1.000  C
  C46      1.0000 0.67050  0.76210  0.28370  Biso   1.000  C
  C47      1.0000 0.17050  0.73790  0.71630  Biso   1.000  C
  C48      1.0000 0.32950  0.26210  0.21630  Biso   1.000  C
  H73      1.0000 0.09350  0.72690  0.23300  Biso   1.000  H
  H74      1.0000 0.40650  0.27310  0.73300  Biso   1.000  H
  H75      1.0000 0.90650  0.22690  0.26700  Biso   1.000  H
  H76      1.0000 0.59350  0.77310  0.76700  Biso   1.000  H
  H77      1.0000 0.90650  0.27310  0.76700  Biso   1.000  H
  H78      1.0000 0.59350  0.72690  0.26700  Biso   1.000  H
  H79      1.0000 0.09350  0.77310  0.73300  Biso   1.000  H
  H80      1.0000 0.40650  0.22690  0.23300  Biso   1.000  H
  C49      1.0000 0.21540  0.72120  0.17666  Biso   1.000  C
  C50      1.0000 0.28460  0.27880  0.67666  Biso   1.000  C
  C51      1.0000 0.78460  0.22120  0.32334  Biso   1.000  C
  C52      1.0000 0.71540  0.77880  0.82334  Biso   1.000  C
  C53      1.0000 0.78460  0.27880  0.82334  Biso   1.000  C
  C54      1.0000 0.71540  0.72120  0.32334  Biso   1.000  C
  C55      1.0000 0.21540  0.77880  0.67666  Biso   1.000  C
  C56      1.0000 0.28460  0.22120  0.17666  Biso   1.000  C
  H81      1.0000 0.16940  0.65720  0.16740  Biso   1.000  H
  H82      1.0000 0.33060  0.34280  0.66740  Biso   1.000  H
  H83      1.0000 0.83060  0.15720  0.33260  Biso   1.000  H
  H84      1.0000 0.66940  0.84280  0.83260  Biso   1.000  H
  H85      1.0000 0.83060  0.34280  0.83260  Biso   1.000  H
  H86      1.0000 0.66940  0.65720  0.33260  Biso   1.000  H
  H87      1.0000 0.16940  0.84280  0.66740  Biso   1.000  H
  H88      1.0000 0.33060  0.15720  0.16740  Biso   1.000  H
  C57      1.0000 0.32240  0.49870  0.95431  Biso   1.000  C
  C58      1.0000 0.17760  0.50130  0.45431  Biso   1.000  C
  C59      1.0000 0.67760  0.99870  0.54569  Biso   1.000  C
  C60      1.0000 0.82240  0.00130  0.04569  Biso   1.000  C
  C61      1.0000 0.67760  0.50130  0.04569  Biso   1.000  C
  C62      1.0000 0.82240  0.49870  0.54569  Biso   1.000  C
  C63      1.0000 0.32240  0.00130  0.45431  Biso   1.000  C
  C64      1.0000 0.17760  0.99870  0.95431  Biso   1.000  C
  H89      1.0000 0.29900  0.43590  0.97150  Biso   1.000  H
  H90      1.0000 0.20100  0.56410  0.47150  Biso   1.000  H
  H91      1.0000 0.70100  0.93590  0.52850  Biso   1.000  H
  H92      1.0000 0.79900  0.06410  0.02850  Biso   1.000  H
  H93      1.0000 0.70100  0.56410  0.02850  Biso   1.000  H
  H94      1.0000 0.79900  0.43590  0.52850  Biso   1.000  H
  H95      1.0000 0.29900  0.06410  0.47150  Biso   1.000  H
  H96      1.0000 0.20100  0.93590  0.97150  Biso   1.000  H
  H97      1.0000 0.43250  0.52140  0.96080  Biso   1.000  H
  H98      1.0000 0.06750  0.47860  0.46080  Biso   1.000  H
  H99      1.0000 0.56750  0.02140  0.53920  Biso   1.000  H
  H100     1.0000 0.93250  0.97860  0.03920  Biso   1.000  H
  H101     1.0000 0.56750  0.47860  0.03920  Biso   1.000  H
  H102     1.0000 0.93250  0.52140  0.53920  Biso   1.000  H
  H103     1.0000 0.43250  0.97860  0.46080  Biso   1.000  H
  H104     1.0000 0.06750  0.02140  0.96080  Biso   1.000  H
  C65      1.0000 0.31190  0.46880  0.90700  Biso   1.000  C
  C66      1.0000 0.18810  0.53120  0.40700  Biso   1.000  C
  C67      1.0000 0.68810  0.96880  0.59300  Biso   1.000  C
  C68      1.0000 0.81190  0.03120  0.09300  Biso   1.000  C
  C69      1.0000 0.68810  0.53120  0.09300  Biso   1.000  C
  C70      1.0000 0.81190  0.46880  0.59300  Biso   1.000  C
  C71      1.0000 0.31190  0.03120  0.40700  Biso   1.000  C
  C72      1.0000 0.18810  0.96880  0.90700  Biso   1.000  C
  C73      1.0000 0.22260  0.38110  0.89501  Biso   1.000  C
  C74      1.0000 0.27740  0.61890  0.39501  Biso   1.000  C
  C75      1.0000 0.77740  0.88110  0.60499  Biso   1.000  C
  C76      1.0000 0.72260  0.11890  0.10499  Biso   1.000  C
  C77      1.0000 0.77740  0.61890  0.10499  Biso   1.000  C
  C78      1.0000 0.72260  0.38110  0.60499  Biso   1.000  C
  C79      1.0000 0.22260  0.11890  0.39501  Biso   1.000  C
  C80      1.0000 0.27740  0.88110  0.89501  Biso   1.000  C
  H105     1.0000 0.16550  0.34210  0.91550  Biso   1.000  H
  H106     1.0000 0.33450  0.65790  0.41550  Biso   1.000  H
  H107     1.0000 0.83450  0.84210  0.58450  Biso   1.000  H
  H108     1.0000 0.66550  0.15790  0.08450  Biso   1.000  H
  H109     1.0000 0.83450  0.65790  0.08450  Biso   1.000  H
  H110     1.0000 0.66550  0.34210  0.58450  Biso   1.000  H
  H111     1.0000 0.16550  0.15790  0.41550  Biso   1.000  H
  H112     1.0000 0.33450  0.84210  0.91550  Biso   1.000  H
  C81      1.0000 0.21760  0.35050  0.85210  Biso   1.000  C
  C82      1.0000 0.28240  0.64950  0.35210  Biso   1.000  C
  C83      1.0000 0.78240  0.85050  0.64790  Biso   1.000  C
  C84      1.0000 0.71760  0.14950  0.14790  Biso   1.000  C
  C85      1.0000 0.78240  0.64950  0.14790  Biso   1.000  C
  C86      1.0000 0.71760  0.35050  0.64790  Biso   1.000  C
  C87      1.0000 0.21760  0.14950  0.35210  Biso   1.000  C
  C88      1.0000 0.28240  0.85050  0.85210  Biso   1.000  C
  H113     1.0000 0.15870  0.29050  0.84370  Biso   1.000  H
  H114     1.0000 0.34130  0.70950  0.34370  Biso   1.000  H
  H115     1.0000 0.84130  0.79050  0.65630  Biso   1.000  H
  H116     1.0000 0.65870  0.20950  0.15630  Biso   1.000  H
  H117     1.0000 0.84130  0.70950  0.15630  Biso   1.000  H
  H118     1.0000 0.65870  0.29050  0.65630  Biso   1.000  H
  H119     1.0000 0.15870  0.20950  0.34370  Biso   1.000  H
  H120     1.0000 0.34130  0.79050  0.84370  Biso   1.000  H
  C89      1.0000 0.30210  0.41100  0.82190  Biso   1.000  C
  C90      1.0000 0.19790  0.58900  0.32190  Biso   1.000  C
  C91      1.0000 0.69790  0.91100  0.67810  Biso   1.000  C
  C92      1.0000 0.80210  0.08900  0.17810  Biso   1.000  C
  C93      1.0000 0.69790  0.58900  0.17810  Biso   1.000  C
  C94      1.0000 0.80210  0.41100  0.67810  Biso   1.000  C
  C95      1.0000 0.30210  0.08900  0.32190  Biso   1.000  C
  C96      1.0000 0.19790  0.91100  0.82190  Biso   1.000  C
  H121     1.0000 0.29730  0.39250  0.79310  Biso   1.000  H
  H122     1.0000 0.20270  0.60750  0.29310  Biso   1.000  H
  H123     1.0000 0.70270  0.89250  0.70690  Biso   1.000  H
  H124     1.0000 0.79730  0.10750  0.20690  Biso   1.000  H
  H125     1.0000 0.70270  0.60750  0.20690  Biso   1.000  H
  H126     1.0000 0.79730  0.39250  0.70690  Biso   1.000  H
  H127     1.0000 0.29730  0.10750  0.29310  Biso   1.000  H
  H128     1.0000 0.20270  0.89250  0.79310  Biso   1.000  H
  C97      1.0000 0.39050  0.49610  0.83430  Biso   1.000  C
  C98      1.0000 0.10950  0.50390  0.33430  Biso   1.000  C
  C99      1.0000 0.60950  0.99610  0.66570  Biso   1.000  C
  C100     1.0000 0.89050  0.00390  0.16570  Biso   1.000  C
  C101     1.0000 0.60950  0.50390  0.16570  Biso   1.000  C
  C102     1.0000 0.89050  0.49610  0.66570  Biso   1.000  C
  C103     1.0000 0.39050  0.00390  0.33430  Biso   1.000  C
  C104     1.0000 0.10950  0.99610  0.83430  Biso   1.000  C
  H129     1.0000 0.44840  0.53530  0.81410  Biso   1.000  H
  H130     1.0000 0.05160  0.46470  0.31410  Biso   1.000  H
  H131     1.0000 0.55160  0.03530  0.68590  Biso   1.000  H
  H132     1.0000 0.94840  0.96470  0.18590  Biso   1.000  H
  H133     1.0000 0.55160  0.46470  0.18590  Biso   1.000  H
  H134     1.0000 0.94840  0.53530  0.68590  Biso   1.000  H
  H135     1.0000 0.44840  0.96470  0.31410  Biso   1.000  H
  H136     1.0000 0.05160  0.03530  0.81410  Biso   1.000  H
  C105     1.0000 0.39570  0.52540  0.87650  Biso   1.000  C
  C106     1.0000 0.10430  0.47460  0.37650  Biso   1.000  C
  C107     1.0000 0.60430  0.02540  0.62350  Biso   1.000  C
  C108     1.0000 0.89570  0.97460  0.12350  Biso   1.000  C
  C109     1.0000 0.60430  0.47460  0.12350  Biso   1.000  C
  C110     1.0000 0.89570  0.52540  0.62350  Biso   1.000  C
  C111     1.0000 0.39570  0.97460  0.37650  Biso   1.000  C
  C112     1.0000 0.10430  0.02540  0.87650  Biso   1.000  C
  H137     1.0000 0.45700  0.58460  0.88460  Biso   1.000  H
  H138     1.0000 0.04300  0.41540  0.38460  Biso   1.000  H
  H139     1.0000 0.54300  0.08460  0.61540  Biso   1.000  H
  H140     1.0000 0.95700  0.91540  0.11540  Biso   1.000  H
  H141     1.0000 0.54300  0.41540  0.11540  Biso   1.000  H
  H142     1.0000 0.95700  0.58460  0.61540  Biso   1.000  H
  H143     1.0000 0.45700  0.91540  0.38460  Biso   1.000  H
  H144     1.0000 0.04300  0.08460  0.88460  Biso   1.000  H
