data_image0
_cell_length_a       6.6222
_cell_length_b       10.5537
_cell_length_c       13.2204
_cell_angle_alpha    90
_cell_angle_beta     102.718
_cell_angle_gamma    90

_symmetry_space_group_name_H-M    "P 1"
_symmetry_int_tables_number       1

loop_
  _symmetry_equiv_pos_as_xyz
  'x, y, z'

loop_
  _atom_site_label
  _atom_site_occupancy
  _atom_site_fract_x
  _atom_site_fract_y
  _atom_site_fract_z
  _atom_site_thermal_displace_type
  _atom_site_B_iso_or_equiv
  _atom_site_type_symbol
  Cu1      1.0000 0.50000  0.50000  0.50000  Biso   1.000  Cu
  Cu2      1.0000 0.00000  0.00000  0.00000  Biso   1.000  Cu
  O1       1.0000 0.33460  0.63120  0.42340  Biso   1.000  O
  O2       1.0000 0.16540  0.13120  0.07660  Biso   1.000  O
  O3       1.0000 0.66540  0.36880  0.57660  Biso   1.000  O
  O4       1.0000 0.83460  0.86880  0.92340  Biso   1.000  O
  C1       1.0000 0.18100  0.68470  0.44480  Biso   1.000  C
  C2       1.0000 0.31900  0.18470  0.05520  Biso   1.000  C
  C3       1.0000 0.81900  0.31530  0.55520  Biso   1.000  C
  C4       1.0000 0.68100  0.81530  0.94480  Biso   1.000  C
  C5       1.0000 0.09410  0.66230  0.53240  Biso   1.000  C
  C6       1.0000 0.40590  0.16230  0.96760  Biso   1.000  C
  C7       1.0000 0.90590  0.33770  0.46760  Biso   1.000  C
  C8       1.0000 0.59410  0.83770  0.03240  Biso   1.000  C
  C9       1.0000 0.18930  0.57290  0.60790  Biso   1.000  C
  C10      1.0000 0.31070  0.07290  0.89210  Biso   1.000  C
  C11      1.0000 0.81070  0.42710  0.39210  Biso   1.000  C
  C12      1.0000 0.68930  0.92710  0.10790  Biso   1.000  C
  O5       1.0000 0.35000  0.50990  0.60900  Biso   1.000  O
  O6       1.0000 0.15000  0.00990  0.89100  Biso   1.000  O
  O7       1.0000 0.65000  0.49010  0.39100  Biso   1.000  O
  O8       1.0000 0.85000  0.99010  0.10900  Biso   1.000  O
  O9       1.0000 0.08270  0.77140  0.37730  Biso   1.000  O
  O10      1.0000 0.41730  0.27140  0.12270  Biso   1.000  O
  O11      1.0000 0.91730  0.22860  0.62270  Biso   1.000  O
  O12      1.0000 0.58270  0.72860  0.87730  Biso   1.000  O
  C13      1.0000 0.17080  0.79330  0.28700  Biso   1.000  C
  C14      1.0000 0.32920  0.29330  0.21300  Biso   1.000  C
  C15      1.0000 0.82920  0.20670  0.71300  Biso   1.000  C
  C16      1.0000 0.67080  0.70670  0.78700  Biso   1.000  C
  O13      1.0000 0.09960  0.55990  0.68920  Biso   1.000  O
  O14      1.0000 0.40040  0.05990  0.81080  Biso   1.000  O
  O15      1.0000 0.90040  0.44010  0.31080  Biso   1.000  O
  O16      1.0000 0.59960  0.94010  0.18920  Biso   1.000  O
  C17      1.0000 0.20040  0.47460  0.77020  Biso   1.000  C
  C18      1.0000 0.29960  0.97460  0.72980  Biso   1.000  C
  C19      1.0000 0.79960  0.52540  0.22980  Biso   1.000  C
  C20      1.0000 0.70040  0.02540  0.27020  Biso   1.000  C
  C21      1.0000 0.90630  0.72880  0.54690  Biso   1.000  C
  C22      1.0000 0.59370  0.22880  0.95310  Biso   1.000  C
  C23      1.0000 0.09370  0.27120  0.45310  Biso   1.000  C
  C24      1.0000 0.40630  0.77120  0.04690  Biso   1.000  C
  O17      1.0000 0.75630  0.68040  0.57030  Biso   1.000  O
  O18      1.0000 0.74370  0.18040  0.92970  Biso   1.000  O
  O19      1.0000 0.24370  0.31960  0.42970  Biso   1.000  O
  O20      1.0000 0.25630  0.81960  0.07030  Biso   1.000  O
  O21      1.0000 0.91910  0.85490  0.53380  Biso   1.000  O
  O22      1.0000 0.58090  0.35490  0.96620  Biso   1.000  O
  O23      1.0000 0.08090  0.14510  0.46620  Biso   1.000  O
  O24      1.0000 0.41910  0.64510  0.03380  Biso   1.000  O
  C25      1.0000 0.73700  0.92610  0.54010  Biso   1.000  C
  C26      1.0000 0.76300  0.42610  0.95990  Biso   1.000  C
  C27      1.0000 0.26300  0.07390  0.45990  Biso   1.000  C
  C28      1.0000 0.23700  0.57390  0.04010  Biso   1.000  C
