data_image0
_cell_length_a       7.3003
_cell_length_b       6.8114
_cell_length_c       15.6135
_cell_angle_alpha    90
_cell_angle_beta     90
_cell_angle_gamma    90

_symmetry_space_group_name_H-M    "P 1"
_symmetry_int_tables_number       1

loop_
  _symmetry_equiv_pos_as_xyz
  'x, y, z'

loop_
  _atom_site_label
  _atom_site_occupancy
  _atom_site_fract_x
  _atom_site_fract_y
  _atom_site_fract_z
  _atom_site_thermal_displace_type
  _atom_site_B_iso_or_equiv
  _atom_site_type_symbol
  Cu1      1.0000 0.06517  0.75000  0.67554  Biso   1.000  Cu
  Cu2      1.0000 0.56517  0.75000  0.82446  Biso   1.000  Cu
  Cu3      1.0000 0.43483  0.25000  0.17554  Biso   1.000  Cu
  Cu4      1.0000 0.93483  0.25000  0.32446  Biso   1.000  Cu
  C1       1.0000 0.63680  0.75000  0.58450  Biso   1.000  C
  C2       1.0000 0.13680  0.75000  0.91550  Biso   1.000  C
  C3       1.0000 0.86320  0.25000  0.08450  Biso   1.000  C
  C4       1.0000 0.36320  0.25000  0.41550  Biso   1.000  C
  C5       1.0000 0.51290  0.75000  0.50730  Biso   1.000  C
  C6       1.0000 0.01290  0.75000  0.99270  Biso   1.000  C
  C7       1.0000 0.98710  0.25000  0.00730  Biso   1.000  C
  C8       1.0000 0.48710  0.25000  0.49270  Biso   1.000  C
  C9       1.0000 0.35600  0.75000  0.56712  Biso   1.000  C
  C10      1.0000 0.85600  0.75000  0.93288  Biso   1.000  C
  C11      1.0000 0.14400  0.25000  0.06712  Biso   1.000  C
  C12      1.0000 0.64400  0.25000  0.43288  Biso   1.000  C
  C13      1.0000 0.47430  0.75000  0.63930  Biso   1.000  C
  C14      1.0000 0.97430  0.75000  0.86070  Biso   1.000  C
  C15      1.0000 0.02570  0.25000  0.13930  Biso   1.000  C
  C16      1.0000 0.52570  0.25000  0.36070  Biso   1.000  C
  O1       1.0000 0.80440  0.75000  0.59402  Biso   1.000  O
  O2       1.0000 0.30440  0.75000  0.90598  Biso   1.000  O
  O3       1.0000 0.69560  0.25000  0.09402  Biso   1.000  O
  O4       1.0000 0.19560  0.25000  0.40598  Biso   1.000  O
  O5       1.0000 0.53480  0.75000  0.42983  Biso   1.000  O
  O6       1.0000 0.03480  0.75000  0.07017  Biso   1.000  O
  O7       1.0000 0.96520  0.25000  0.92983  Biso   1.000  O
  O8       1.0000 0.46520  0.25000  0.57017  Biso   1.000  O
  O9       1.0000 0.18240  0.75000  0.56144  Biso   1.000  O
  O10      1.0000 0.68240  0.75000  0.93856  Biso   1.000  O
  O11      1.0000 0.31760  0.25000  0.06144  Biso   1.000  O
  O12      1.0000 0.81760  0.25000  0.43856  Biso   1.000  O
  O13      1.0000 0.42800  0.75000  0.71845  Biso   1.000  O
  O14      1.0000 0.92800  0.75000  0.78155  Biso   1.000  O
  O15      1.0000 0.07200  0.25000  0.21845  Biso   1.000  O
  O16      1.0000 0.57200  0.25000  0.28155  Biso   1.000  O
  N1       1.0000 0.08320  0.45380  0.67893  Biso   1.000  N
  N2       1.0000 0.58320  0.45380  0.82107  Biso   1.000  N
  N3       1.0000 0.08320  0.04620  0.67893  Biso   1.000  N
  N4       1.0000 0.41680  0.95380  0.17893  Biso   1.000  N
  N5       1.0000 0.91680  0.54620  0.32107  Biso   1.000  N
  N6       1.0000 0.41680  0.54620  0.17893  Biso   1.000  N
  N7       1.0000 0.91680  0.95380  0.32107  Biso   1.000  N
  N8       1.0000 0.58320  0.04620  0.82107  Biso   1.000  N
  C17      1.0000 0.03770  0.35150  0.60956  Biso   1.000  C
  C18      1.0000 0.53770  0.35150  0.89044  Biso   1.000  C
  C19      1.0000 0.03770  0.14850  0.60956  Biso   1.000  C
  C20      1.0000 0.46230  0.85150  0.10956  Biso   1.000  C
  C21      1.0000 0.96230  0.64850  0.39044  Biso   1.000  C
  C22      1.0000 0.46230  0.64850  0.10956  Biso   1.000  C
  C23      1.0000 0.96230  0.85150  0.39044  Biso   1.000  C
  C24      1.0000 0.53770  0.14850  0.89044  Biso   1.000  C
  H1       1.0000 0.00500  0.41810  0.55990  Biso   1.000  H
  H2       1.0000 0.50500  0.41810  0.94010  Biso   1.000  H
  H3       1.0000 0.00500  0.08190  0.55990  Biso   1.000  H
  H4       1.0000 0.49500  0.91810  0.05990  Biso   1.000  H
  H5       1.0000 0.99500  0.58190  0.44010  Biso   1.000  H
  H6       1.0000 0.49500  0.58190  0.05990  Biso   1.000  H
  H7       1.0000 0.99500  0.91810  0.44010  Biso   1.000  H
  H8       1.0000 0.50500  0.08190  0.94010  Biso   1.000  H
  C25      1.0000 0.12910  0.35220  0.74890  Biso   1.000  C
  C26      1.0000 0.62910  0.35220  0.75110  Biso   1.000  C
  C27      1.0000 0.12910  0.14780  0.74890  Biso   1.000  C
  C28      1.0000 0.37090  0.85220  0.24890  Biso   1.000  C
  C29      1.0000 0.87090  0.64780  0.25110  Biso   1.000  C
  C30      1.0000 0.37090  0.64780  0.24890  Biso   1.000  C
  C31      1.0000 0.87090  0.85220  0.25110  Biso   1.000  C
  C32      1.0000 0.62910  0.14780  0.75110  Biso   1.000  C
  H9       1.0000 0.16160  0.41920  0.79850  Biso   1.000  H
  H10      1.0000 0.66160  0.41920  0.70150  Biso   1.000  H
  H11      1.0000 0.16160  0.08080  0.79850  Biso   1.000  H
  H12      1.0000 0.33840  0.91920  0.29850  Biso   1.000  H
  H13      1.0000 0.83840  0.58080  0.20150  Biso   1.000  H
  H14      1.0000 0.33840  0.58080  0.29850  Biso   1.000  H
  H15      1.0000 0.83840  0.91920  0.20150  Biso   1.000  H
  H16      1.0000 0.66160  0.08080  0.70150  Biso   1.000  H
