data_image0
_cell_length_a       27.1219
_cell_length_b       12.9625
_cell_length_c       17.0236
_cell_angle_alpha    90
_cell_angle_beta     90
_cell_angle_gamma    90

_symmetry_space_group_name_H-M    "P 1"
_symmetry_int_tables_number       1

loop_
  _symmetry_equiv_pos_as_xyz
  'x, y, z'

loop_
  _atom_site_label
  _atom_site_occupancy
  _atom_site_fract_x
  _atom_site_fract_y
  _atom_site_fract_z
  _atom_site_thermal_displace_type
  _atom_site_B_iso_or_equiv
  _atom_site_type_symbol
  Cu1      1.0000 0.12879  0.68844  0.72831  Biso   1.000  Cu
  Cu2      1.0000 0.37121  0.81156  0.22831  Biso   1.000  Cu
  Cu3      1.0000 0.87121  0.68844  0.77169  Biso   1.000  Cu
  Cu4      1.0000 0.62879  0.81156  0.27169  Biso   1.000  Cu
  Cu5      1.0000 0.87121  0.31156  0.27169  Biso   1.000  Cu
  Cu6      1.0000 0.62879  0.18844  0.77169  Biso   1.000  Cu
  Cu7      1.0000 0.12879  0.31156  0.22831  Biso   1.000  Cu
  Cu8      1.0000 0.37121  0.18844  0.72831  Biso   1.000  Cu
  O1       1.0000 0.18003  0.61794  0.66898  Biso   1.000  O
  O2       1.0000 0.31997  0.88206  0.16898  Biso   1.000  O
  O3       1.0000 0.81997  0.61794  0.83102  Biso   1.000  O
  O4       1.0000 0.68003  0.88206  0.33102  Biso   1.000  O
  O5       1.0000 0.81997  0.38206  0.33102  Biso   1.000  O
  O6       1.0000 0.68003  0.11794  0.83102  Biso   1.000  O
  O7       1.0000 0.18003  0.38206  0.16898  Biso   1.000  O
  O8       1.0000 0.31997  0.11794  0.66898  Biso   1.000  O
  O9       1.0000 0.15366  0.80570  0.78817  Biso   1.000  O
  O10      1.0000 0.34634  0.69430  0.28817  Biso   1.000  O
  O11      1.0000 0.84634  0.80570  0.71183  Biso   1.000  O
  O12      1.0000 0.65366  0.69430  0.21183  Biso   1.000  O
  O13      1.0000 0.84634  0.19430  0.21183  Biso   1.000  O
  O14      1.0000 0.65366  0.30570  0.71183  Biso   1.000  O
  O15      1.0000 0.15366  0.19430  0.28817  Biso   1.000  O
  O16      1.0000 0.34634  0.30570  0.78817  Biso   1.000  O
  H1       1.0000 0.12786  0.86113  0.77900  Biso   1.000  H
  H2       1.0000 0.37214  0.63887  0.27900  Biso   1.000  H
  H3       1.0000 0.87214  0.86113  0.72100  Biso   1.000  H
  H4       1.0000 0.62786  0.63887  0.22100  Biso   1.000  H
  H5       1.0000 0.87214  0.13887  0.22100  Biso   1.000  H
  H6       1.0000 0.62786  0.36113  0.72100  Biso   1.000  H
  H7       1.0000 0.12786  0.13887  0.27900  Biso   1.000  H
  H8       1.0000 0.37214  0.36113  0.77900  Biso   1.000  H
  N1       1.0000 0.37667  0.42360  0.45347  Biso   1.000  N
  N2       1.0000 0.12333  0.07640  0.95347  Biso   1.000  N
  N3       1.0000 0.62333  0.42360  0.04653  Biso   1.000  N
  N4       1.0000 0.87667  0.07640  0.54653  Biso   1.000  N
  N5       1.0000 0.62333  0.57640  0.54653  Biso   1.000  N
  N6       1.0000 0.87667  0.92360  0.04653  Biso   1.000  N
  N7       1.0000 0.37667  0.57640  0.95347  Biso   1.000  N
  N8       1.0000 0.12333  0.92360  0.45347  Biso   1.000  N
  N9       1.0000 0.57447  0.73490  0.32997  Biso   1.000  N
  N10      1.0000 0.92553  0.76510  0.82997  Biso   1.000  N
  N11      1.0000 0.42553  0.73490  0.17003  Biso   1.000  N
  N12      1.0000 0.07447  0.76510  0.67003  Biso   1.000  N
  N13      1.0000 0.42553  0.26510  0.67003  Biso   1.000  N
  N14      1.0000 0.07447  0.23490  0.17003  Biso   1.000  N
  N15      1.0000 0.57447  0.26510  0.82997  Biso   1.000  N
  N16      1.0000 0.92553  0.23490  0.32997  Biso   1.000  N
  O17      1.0000 0.40822  0.91930  0.28161  Biso   1.000  O
  O18      1.0000 0.09178  0.58070  0.78161  Biso   1.000  O
  O19      1.0000 0.59178  0.91930  0.21839  Biso   1.000  O
  O20      1.0000 0.90822  0.58070  0.71839  Biso   1.000  O
  O21      1.0000 0.59178  0.08070  0.71839  Biso   1.000  O
  O22      1.0000 0.90822  0.41930  0.21839  Biso   1.000  O
  O23      1.0000 0.40822  0.08070  0.78161  Biso   1.000  O
  O24      1.0000 0.09178  0.41930  0.28161  Biso   1.000  O
  O25      1.0000 0.19290  0.77270  0.61994  Biso   1.000  O
  O26      1.0000 0.30710  0.72730  0.11994  Biso   1.000  O
  O27      1.0000 0.80710  0.77270  0.88006  Biso   1.000  O
  O28      1.0000 0.69290  0.72730  0.38006  Biso   1.000  O
  O29      1.0000 0.80710  0.22730  0.38006  Biso   1.000  O
  O30      1.0000 0.69290  0.27270  0.88006  Biso   1.000  O
  O31      1.0000 0.19290  0.22730  0.11994  Biso   1.000  O
  O32      1.0000 0.30710  0.27270  0.61994  Biso   1.000  O
  C1       1.0000 0.49678  0.61320  0.38298  Biso   1.000  C
  C2       1.0000 0.00322  0.88680  0.88298  Biso   1.000  C
  C3       1.0000 0.50322  0.61320  0.11702  Biso   1.000  C
  C4       1.0000 0.99678  0.88680  0.61702  Biso   1.000  C
  C5       1.0000 0.50322  0.38680  0.61702  Biso   1.000  C
  C6       1.0000 0.99678  0.11320  0.11702  Biso   1.000  C
  C7       1.0000 0.49678  0.38680  0.88298  Biso   1.000  C
  C8       1.0000 0.00322  0.11320  0.38298  Biso   1.000  C
  C9       1.0000 0.37556  0.52600  0.46510  Biso   1.000  C
  C10      1.0000 0.12444  0.97400  0.96510  Biso   1.000  C
  C11      1.0000 0.62444  0.52600  0.03490  Biso   1.000  C
  C12      1.0000 0.87556  0.97400  0.53490  Biso   1.000  C
  C13      1.0000 0.62444  0.47400  0.53490  Biso   1.000  C
  C14      1.0000 0.87556  0.02600  0.03490  Biso   1.000  C
  C15      1.0000 0.37556  0.47400  0.96510  Biso   1.000  C
  C16      1.0000 0.12444  0.02600  0.46510  Biso   1.000  C
  C17      1.0000 0.41617  0.38240  0.41854  Biso   1.000  C
  C18      1.0000 0.08383  0.11760  0.91854  Biso   1.000  C
  C19      1.0000 0.58383  0.38240  0.08146  Biso   1.000  C
  C20      1.0000 0.91617  0.11760  0.58146  Biso   1.000  C
  C21      1.0000 0.58383  0.61760  0.58146  Biso   1.000  C
  C22      1.0000 0.91617  0.88240  0.08146  Biso   1.000  C
  C23      1.0000 0.41617  0.61760  0.91854  Biso   1.000  C
  C24      1.0000 0.08383  0.88240  0.41854  Biso   1.000  C
  C25      1.0000 0.33037  0.56670  0.50340  Biso   1.000  C
  C26      1.0000 0.16963  0.93330  0.00340  Biso   1.000  C
  C27      1.0000 0.66963  0.56670  0.99660  Biso   1.000  C
  C28      1.0000 0.83037  0.93330  0.49660  Biso   1.000  C
  C29      1.0000 0.66963  0.43330  0.49660  Biso   1.000  C
  C30      1.0000 0.83037  0.06670  0.99660  Biso   1.000  C
  C31      1.0000 0.33037  0.43330  0.00340  Biso   1.000  C
  C32      1.0000 0.16963  0.06670  0.50340  Biso   1.000  C
  C33      1.0000 0.45618  0.44110  0.39600  Biso   1.000  C
  C34      1.0000 0.04382  0.05890  0.89600  Biso   1.000  C
  C35      1.0000 0.54382  0.44110  0.10400  Biso   1.000  C
  C36      1.0000 0.95618  0.05890  0.60400  Biso   1.000  C
  C37      1.0000 0.54382  0.55890  0.60400  Biso   1.000  C
  C38      1.0000 0.95618  0.94110  0.10400  Biso   1.000  C
  C39      1.0000 0.45618  0.55890  0.89600  Biso   1.000  C
  C40      1.0000 0.04382  0.94110  0.39600  Biso   1.000  C
  H9       1.0000 0.48351  0.40997  0.37303  Biso   1.000  H
  H10      1.0000 0.01649  0.09003  0.87303  Biso   1.000  H
  H11      1.0000 0.51649  0.40997  0.12697  Biso   1.000  H
  H12      1.0000 0.98351  0.09003  0.62697  Biso   1.000  H
  H13      1.0000 0.51649  0.59003  0.62697  Biso   1.000  H
  H14      1.0000 0.98351  0.90997  0.12697  Biso   1.000  H
  H15      1.0000 0.48351  0.59003  0.87303  Biso   1.000  H
  H16      1.0000 0.01649  0.90997  0.37303  Biso   1.000  H
  C41      1.0000 0.45529  0.54740  0.40776  Biso   1.000  C
  C42      1.0000 0.04471  0.95260  0.90776  Biso   1.000  C
  C43      1.0000 0.54471  0.54740  0.09224  Biso   1.000  C
  C44      1.0000 0.95529  0.95260  0.59224  Biso   1.000  C
  C45      1.0000 0.54471  0.45260  0.59224  Biso   1.000  C
  C46      1.0000 0.95529  0.04740  0.09224  Biso   1.000  C
  C47      1.0000 0.45529  0.45260  0.90776  Biso   1.000  C
  C48      1.0000 0.04471  0.04740  0.40776  Biso   1.000  C
  C49      1.0000 0.24642  0.64000  0.58056  Biso   1.000  C
  C50      1.0000 0.25358  0.86000  0.08056  Biso   1.000  C
  C51      1.0000 0.75358  0.64000  0.91944  Biso   1.000  C
  C52      1.0000 0.74642  0.86000  0.41944  Biso   1.000  C
  C53      1.0000 0.75358  0.36000  0.41944  Biso   1.000  C
  C54      1.0000 0.74642  0.14000  0.91944  Biso   1.000  C
  C55      1.0000 0.24642  0.36000  0.08056  Biso   1.000  C
  C56      1.0000 0.25358  0.14000  0.58056  Biso   1.000  C
  C57      1.0000 0.41378  0.59000  0.44288  Biso   1.000  C
  C58      1.0000 0.08622  0.91000  0.94288  Biso   1.000  C
  C59      1.0000 0.58622  0.59000  0.05712  Biso   1.000  C
  C60      1.0000 0.91378  0.91000  0.55712  Biso   1.000  C
  C61      1.0000 0.58622  0.41000  0.55712  Biso   1.000  C
  C62      1.0000 0.91378  0.09000  0.05712  Biso   1.000  C
  C63      1.0000 0.41378  0.41000  0.94288  Biso   1.000  C
  C64      1.0000 0.08622  0.09000  0.44288  Biso   1.000  C
  H17      1.0000 0.41176  0.66072  0.45133  Biso   1.000  H
  H18      1.0000 0.08824  0.83928  0.95133  Biso   1.000  H
  H19      1.0000 0.58824  0.66072  0.04867  Biso   1.000  H
  H20      1.0000 0.91176  0.83928  0.54867  Biso   1.000  H
  H21      1.0000 0.58824  0.33928  0.54867  Biso   1.000  H
  H22      1.0000 0.91176  0.16072  0.04867  Biso   1.000  H
  H23      1.0000 0.41176  0.33928  0.95133  Biso   1.000  H
  H24      1.0000 0.08824  0.16072  0.45133  Biso   1.000  H
  C65      1.0000 0.20325  0.68110  0.62500  Biso   1.000  C
  C66      1.0000 0.29675  0.81890  0.12500  Biso   1.000  C
  C67      1.0000 0.79675  0.68110  0.87500  Biso   1.000  C
  C68      1.0000 0.70325  0.81890  0.37500  Biso   1.000  C
  C69      1.0000 0.79675  0.31890  0.37500  Biso   1.000  C
  C70      1.0000 0.70325  0.18110  0.87500  Biso   1.000  C
  C71      1.0000 0.20325  0.31890  0.12500  Biso   1.000  C
  C72      1.0000 0.29675  0.18110  0.62500  Biso   1.000  C
  C73      1.0000 0.41366  0.26920  0.40430  Biso   1.000  C
  C74      1.0000 0.08634  0.23080  0.90430  Biso   1.000  C
  C75      1.0000 0.58634  0.26920  0.09570  Biso   1.000  C
  C76      1.0000 0.91366  0.23080  0.59570  Biso   1.000  C
  C77      1.0000 0.58634  0.73080  0.59570  Biso   1.000  C
  C78      1.0000 0.91366  0.76920  0.09570  Biso   1.000  C
  C79      1.0000 0.41366  0.73080  0.90430  Biso   1.000  C
  C80      1.0000 0.08634  0.76920  0.40430  Biso   1.000  C
  C81      1.0000 0.31730  0.67060  0.49850  Biso   1.000  C
  C82      1.0000 0.18270  0.82940  0.99850  Biso   1.000  C
  C83      1.0000 0.68270  0.67060  0.00150  Biso   1.000  C
  C84      1.0000 0.81730  0.82940  0.50150  Biso   1.000  C
  C85      1.0000 0.68270  0.32940  0.50150  Biso   1.000  C
  C86      1.0000 0.81730  0.17060  0.00150  Biso   1.000  C
  C87      1.0000 0.31730  0.32940  0.99850  Biso   1.000  C
  C88      1.0000 0.18270  0.17060  0.49850  Biso   1.000  C
  H25      1.0000 0.33671  0.71614  0.46977  Biso   1.000  H
  H26      1.0000 0.16329  0.78386  0.96977  Biso   1.000  H
  H27      1.0000 0.66329  0.71614  0.03023  Biso   1.000  H
  H28      1.0000 0.83671  0.78386  0.53023  Biso   1.000  H
  H29      1.0000 0.66329  0.28386  0.53023  Biso   1.000  H
  H30      1.0000 0.83671  0.21614  0.03023  Biso   1.000  H
  H31      1.0000 0.33671  0.28386  0.96977  Biso   1.000  H
  H32      1.0000 0.16329  0.21614  0.46977  Biso   1.000  H
  C89      1.0000 0.40216  0.05960  0.37040  Biso   1.000  C
  C90      1.0000 0.09784  0.44040  0.87040  Biso   1.000  C
  C91      1.0000 0.59784  0.05960  0.12960  Biso   1.000  C
  C92      1.0000 0.90216  0.44040  0.62960  Biso   1.000  C
  C93      1.0000 0.59784  0.94040  0.62960  Biso   1.000  C
  C94      1.0000 0.90216  0.55960  0.12960  Biso   1.000  C
  C95      1.0000 0.40216  0.94040  0.87040  Biso   1.000  C
  C96      1.0000 0.09784  0.55960  0.37040  Biso   1.000  C
  C97      1.0000 0.30025  0.50020  0.54600  Biso   1.000  C
  C98      1.0000 0.19975  0.99980  0.04600  Biso   1.000  C
  C99      1.0000 0.69975  0.50020  0.95400  Biso   1.000  C
  C100     1.0000 0.80025  0.99980  0.45400  Biso   1.000  C
  C101     1.0000 0.69975  0.49980  0.45400  Biso   1.000  C
  C102     1.0000 0.80025  0.00020  0.95400  Biso   1.000  C
  C103     1.0000 0.30025  0.49980  0.04600  Biso   1.000  C
  C104     1.0000 0.19975  0.00020  0.54600  Biso   1.000  C
  H33      1.0000 0.30800  0.43036  0.54858  Biso   1.000  H
  H34      1.0000 0.19200  0.06964  0.04858  Biso   1.000  H
  H35      1.0000 0.69200  0.43036  0.95142  Biso   1.000  H
  H36      1.0000 0.80800  0.06964  0.45142  Biso   1.000  H
  H37      1.0000 0.69200  0.56964  0.45142  Biso   1.000  H
  H38      1.0000 0.80800  0.93036  0.95142  Biso   1.000  H
  H39      1.0000 0.30800  0.56964  0.04858  Biso   1.000  H
  H40      1.0000 0.19200  0.93036  0.54858  Biso   1.000  H
  C105     1.0000 0.25896  0.53680  0.58450  Biso   1.000  C
  C106     1.0000 0.24104  0.96320  0.08450  Biso   1.000  C
  C107     1.0000 0.74104  0.53680  0.91550  Biso   1.000  C
  C108     1.0000 0.75896  0.96320  0.41550  Biso   1.000  C
  C109     1.0000 0.74104  0.46320  0.41550  Biso   1.000  C
  C110     1.0000 0.75896  0.03680  0.91550  Biso   1.000  C
  C111     1.0000 0.25896  0.46320  0.08450  Biso   1.000  C
  C112     1.0000 0.24104  0.03680  0.58450  Biso   1.000  C
  H41      1.0000 0.23942  0.49152  0.61323  Biso   1.000  H
  H42      1.0000 0.26058  0.00848  0.11323  Biso   1.000  H
  H43      1.0000 0.76058  0.49152  0.88677  Biso   1.000  H
  H44      1.0000 0.73942  0.00848  0.38677  Biso   1.000  H
  H45      1.0000 0.76058  0.50848  0.38677  Biso   1.000  H
  H46      1.0000 0.73942  0.99152  0.88677  Biso   1.000  H
  H47      1.0000 0.23942  0.50848  0.11323  Biso   1.000  H
  H48      1.0000 0.26058  0.99152  0.61323  Biso   1.000  H
  C113     1.0000 0.27576  0.70570  0.53620  Biso   1.000  C
  C114     1.0000 0.22424  0.79430  0.03620  Biso   1.000  C
  C115     1.0000 0.72424  0.70570  0.96380  Biso   1.000  C
  C116     1.0000 0.77576  0.79430  0.46380  Biso   1.000  C
  C117     1.0000 0.72424  0.29430  0.46380  Biso   1.000  C
  C118     1.0000 0.77576  0.20570  0.96380  Biso   1.000  C
  C119     1.0000 0.27576  0.29430  0.03620  Biso   1.000  C
  C120     1.0000 0.22424  0.20570  0.53620  Biso   1.000  C
  H49      1.0000 0.26711  0.77492  0.53185  Biso   1.000  H
  H50      1.0000 0.23289  0.72508  0.03185  Biso   1.000  H
  H51      1.0000 0.73289  0.77492  0.96815  Biso   1.000  H
  H52      1.0000 0.76711  0.72508  0.46815  Biso   1.000  H
  H53      1.0000 0.73289  0.22508  0.46815  Biso   1.000  H
  H54      1.0000 0.76711  0.27492  0.96815  Biso   1.000  H
  H55      1.0000 0.26711  0.22508  0.03185  Biso   1.000  H
  H56      1.0000 0.23289  0.27492  0.53185  Biso   1.000  H
  C121     1.0000 0.54390  0.57520  0.37850  Biso   1.000  C
  C122     1.0000 0.95610  0.92480  0.87850  Biso   1.000  C
  C123     1.0000 0.45610  0.57520  0.12150  Biso   1.000  C
  C124     1.0000 0.04390  0.92480  0.62150  Biso   1.000  C
  C125     1.0000 0.45610  0.42480  0.62150  Biso   1.000  C
  C126     1.0000 0.04390  0.07520  0.12150  Biso   1.000  C
  C127     1.0000 0.54390  0.42480  0.87850  Biso   1.000  C
  C128     1.0000 0.95610  0.07520  0.37850  Biso   1.000  C
  H57      1.0000 0.55046  0.50730  0.39289  Biso   1.000  H
  H58      1.0000 0.94954  0.99270  0.89289  Biso   1.000  H
  H59      1.0000 0.44954  0.50730  0.10711  Biso   1.000  H
  H60      1.0000 0.05046  0.99270  0.60711  Biso   1.000  H
  H61      1.0000 0.44954  0.49270  0.60711  Biso   1.000  H
  H62      1.0000 0.05046  0.00730  0.10711  Biso   1.000  H
  H63      1.0000 0.55046  0.49270  0.89289  Biso   1.000  H
  H64      1.0000 0.94954  0.00730  0.39289  Biso   1.000  H
  C129     1.0000 0.58121  0.63780  0.35280  Biso   1.000  C
  C130     1.0000 0.91879  0.86220  0.85280  Biso   1.000  C
  C131     1.0000 0.41879  0.63780  0.14720  Biso   1.000  C
  C132     1.0000 0.08121  0.86220  0.64720  Biso   1.000  C
  C133     1.0000 0.41879  0.36220  0.64720  Biso   1.000  C
  C134     1.0000 0.08121  0.13780  0.14720  Biso   1.000  C
  C135     1.0000 0.58121  0.36220  0.85280  Biso   1.000  C
  C136     1.0000 0.91879  0.13780  0.35280  Biso   1.000  C
  H65      1.0000 0.61300  0.61091  0.35120  Biso   1.000  H
  H66      1.0000 0.88700  0.88909  0.85120  Biso   1.000  H
  H67      1.0000 0.38700  0.61091  0.14880  Biso   1.000  H
  H68      1.0000 0.11300  0.88909  0.64880  Biso   1.000  H
  H69      1.0000 0.38700  0.38909  0.64880  Biso   1.000  H
  H70      1.0000 0.11300  0.11091  0.14880  Biso   1.000  H
  H71      1.0000 0.61300  0.38909  0.85120  Biso   1.000  H
  H72      1.0000 0.88700  0.11091  0.35120  Biso   1.000  H
  C137     1.0000 0.38304  0.20840  0.44940  Biso   1.000  C
  C138     1.0000 0.11696  0.29160  0.94940  Biso   1.000  C
  C139     1.0000 0.61696  0.20840  0.05060  Biso   1.000  C
  C140     1.0000 0.88304  0.29160  0.55060  Biso   1.000  C
  C141     1.0000 0.61696  0.79160  0.55060  Biso   1.000  C
  C142     1.0000 0.88304  0.70840  0.05060  Biso   1.000  C
  C143     1.0000 0.38304  0.79160  0.94940  Biso   1.000  C
  C144     1.0000 0.11696  0.70840  0.44940  Biso   1.000  C
  H73      1.0000 0.36596  0.23740  0.49134  Biso   1.000  H
  H74      1.0000 0.13404  0.26260  0.99134  Biso   1.000  H
  H75      1.0000 0.63404  0.23740  0.00866  Biso   1.000  H
  H76      1.0000 0.86596  0.26260  0.50866  Biso   1.000  H
  H77      1.0000 0.63404  0.76260  0.50866  Biso   1.000  H
  H78      1.0000 0.86596  0.73740  0.00866  Biso   1.000  H
  H79      1.0000 0.36596  0.76260  0.99134  Biso   1.000  H
  H80      1.0000 0.13404  0.73740  0.49134  Biso   1.000  H
  C145     1.0000 0.52913  0.77240  0.33680  Biso   1.000  C
  C146     1.0000 0.97087  0.72760  0.83680  Biso   1.000  C
  C147     1.0000 0.47087  0.77240  0.16320  Biso   1.000  C
  C148     1.0000 0.02913  0.72760  0.66320  Biso   1.000  C
  C149     1.0000 0.47087  0.22760  0.66320  Biso   1.000  C
  C150     1.0000 0.02913  0.27240  0.16320  Biso   1.000  C
  C151     1.0000 0.52913  0.22760  0.83680  Biso   1.000  C
  C152     1.0000 0.97087  0.27240  0.33680  Biso   1.000  C
  H81      1.0000 0.52375  0.84105  0.32340  Biso   1.000  H
  H82      1.0000 0.97625  0.65895  0.82340  Biso   1.000  H
  H83      1.0000 0.47625  0.84105  0.17660  Biso   1.000  H
  H84      1.0000 0.02375  0.65895  0.67660  Biso   1.000  H
  H85      1.0000 0.47625  0.15895  0.67660  Biso   1.000  H
  H86      1.0000 0.02375  0.34105  0.17660  Biso   1.000  H
  H87      1.0000 0.52375  0.15895  0.82340  Biso   1.000  H
  H88      1.0000 0.97625  0.34105  0.32340  Biso   1.000  H
  O33      1.0000 0.36430  0.89770  0.38980  Biso   1.000  O
  O34      1.0000 0.13570  0.60230  0.88980  Biso   1.000  O
  O35      1.0000 0.63570  0.89770  0.11020  Biso   1.000  O
  O36      1.0000 0.86430  0.60230  0.61020  Biso   1.000  O
  O37      1.0000 0.63570  0.10230  0.61020  Biso   1.000  O
  O38      1.0000 0.86430  0.39770  0.11020  Biso   1.000  O
  O39      1.0000 0.36430  0.10230  0.88980  Biso   1.000  O
  O40      1.0000 0.13570  0.39770  0.38980  Biso   1.000  O
  C153     1.0000 0.48995  0.71530  0.36240  Biso   1.000  C
  C154     1.0000 0.01005  0.78470  0.86240  Biso   1.000  C
  C155     1.0000 0.51005  0.71530  0.13760  Biso   1.000  C
  C156     1.0000 0.98995  0.78470  0.63760  Biso   1.000  C
  C157     1.0000 0.51005  0.28470  0.63760  Biso   1.000  C
  C158     1.0000 0.98995  0.21530  0.13760  Biso   1.000  C
  C159     1.0000 0.48995  0.28470  0.86240  Biso   1.000  C
  C160     1.0000 0.01005  0.21530  0.36240  Biso   1.000  C
  H89      1.0000 0.45882  0.74504  0.36589  Biso   1.000  H
  H90      1.0000 0.04118  0.75496  0.86589  Biso   1.000  H
  H91      1.0000 0.54118  0.74504  0.13411  Biso   1.000  H
  H92      1.0000 0.95882  0.75496  0.63411  Biso   1.000  H
  H93      1.0000 0.54118  0.25496  0.63411  Biso   1.000  H
  H94      1.0000 0.95882  0.24504  0.13411  Biso   1.000  H
  H95      1.0000 0.45882  0.25496  0.86589  Biso   1.000  H
  H96      1.0000 0.04118  0.24504  0.36589  Biso   1.000  H
  C161     1.0000 0.44069  0.22250  0.34410  Biso   1.000  C
  C162     1.0000 0.05931  0.27750  0.84410  Biso   1.000  C
  C163     1.0000 0.55931  0.22250  0.15590  Biso   1.000  C
  C164     1.0000 0.94069  0.27750  0.65590  Biso   1.000  C
  C165     1.0000 0.55931  0.77750  0.65590  Biso   1.000  C
  C166     1.0000 0.94069  0.72250  0.15590  Biso   1.000  C
  C167     1.0000 0.44069  0.77750  0.84410  Biso   1.000  C
  C168     1.0000 0.05931  0.72250  0.34410  Biso   1.000  C
  H97      1.0000 0.46320  0.26146  0.31543  Biso   1.000  H
  H98      1.0000 0.03680  0.23854  0.81543  Biso   1.000  H
  H99      1.0000 0.53680  0.26146  0.18457  Biso   1.000  H
  H100     1.0000 0.96320  0.23854  0.68457  Biso   1.000  H
  H101     1.0000 0.53680  0.73854  0.68457  Biso   1.000  H
  H102     1.0000 0.96320  0.76146  0.18457  Biso   1.000  H
  H103     1.0000 0.46320  0.73854  0.81543  Biso   1.000  H
  H104     1.0000 0.03680  0.76146  0.31543  Biso   1.000  H
  C169     1.0000 0.37757  0.10480  0.43280  Biso   1.000  C
  C170     1.0000 0.12243  0.39520  0.93280  Biso   1.000  C
  C171     1.0000 0.62243  0.10480  0.06720  Biso   1.000  C
  C172     1.0000 0.87757  0.39520  0.56720  Biso   1.000  C
  C173     1.0000 0.62243  0.89520  0.56720  Biso   1.000  C
  C174     1.0000 0.87757  0.60480  0.06720  Biso   1.000  C
  C175     1.0000 0.37757  0.89520  0.93280  Biso   1.000  C
  C176     1.0000 0.12243  0.60480  0.43280  Biso   1.000  C
  H105     1.0000 0.35700  0.06463  0.46406  Biso   1.000  H
  H106     1.0000 0.14300  0.43537  0.96406  Biso   1.000  H
  H107     1.0000 0.64300  0.06463  0.03594  Biso   1.000  H
  H108     1.0000 0.85700  0.43537  0.53594  Biso   1.000  H
  H109     1.0000 0.64300  0.93537  0.53594  Biso   1.000  H
  H110     1.0000 0.85700  0.56463  0.03594  Biso   1.000  H
  H111     1.0000 0.35700  0.93537  0.96406  Biso   1.000  H
  H112     1.0000 0.14300  0.56463  0.46406  Biso   1.000  H
  C177     1.0000 0.39073  0.94970  0.34750  Biso   1.000  C
  C178     1.0000 0.10927  0.55030  0.84750  Biso   1.000  C
  C179     1.0000 0.60927  0.94970  0.15250  Biso   1.000  C
  C180     1.0000 0.89073  0.55030  0.65250  Biso   1.000  C
  C181     1.0000 0.60927  0.05030  0.65250  Biso   1.000  C
  C182     1.0000 0.89073  0.44970  0.15250  Biso   1.000  C
  C183     1.0000 0.39073  0.05030  0.84750  Biso   1.000  C
  C184     1.0000 0.10927  0.44970  0.34750  Biso   1.000  C
  C185     1.0000 0.43437  0.11940  0.32650  Biso   1.000  C
  C186     1.0000 0.06563  0.38060  0.82650  Biso   1.000  C
  C187     1.0000 0.56563  0.11940  0.17350  Biso   1.000  C
  C188     1.0000 0.93437  0.38060  0.67350  Biso   1.000  C
  C189     1.0000 0.56563  0.88060  0.67350  Biso   1.000  C
  C190     1.0000 0.93437  0.61940  0.17350  Biso   1.000  C
  C191     1.0000 0.43437  0.88060  0.82650  Biso   1.000  C
  C192     1.0000 0.06563  0.61940  0.32650  Biso   1.000  C
  H113     1.0000 0.45178  0.08998  0.28517  Biso   1.000  H
  H114     1.0000 0.04822  0.41002  0.78517  Biso   1.000  H
  H115     1.0000 0.54822  0.08998  0.21483  Biso   1.000  H
  H116     1.0000 0.95178  0.41002  0.71483  Biso   1.000  H
  H117     1.0000 0.54822  0.91002  0.71483  Biso   1.000  H
  H118     1.0000 0.95178  0.58998  0.21483  Biso   1.000  H
  H119     1.0000 0.45178  0.91002  0.78517  Biso   1.000  H
  H120     1.0000 0.04822  0.58998  0.28517  Biso   1.000  H
  C193     1.0000 0.20040  0.82350  0.80320  Biso   1.000  C
  C194     1.0000 0.29960  0.67650  0.30320  Biso   1.000  C
  C195     1.0000 0.79960  0.82350  0.69680  Biso   1.000  C
  C196     1.0000 0.70040  0.67650  0.19680  Biso   1.000  C
  C197     1.0000 0.79960  0.17650  0.19680  Biso   1.000  C
  C198     1.0000 0.70040  0.32350  0.69680  Biso   1.000  C
  C199     1.0000 0.20040  0.17650  0.30320  Biso   1.000  C
  C200     1.0000 0.29960  0.32350  0.80320  Biso   1.000  C
  H121     1.0000 0.22041  0.79225  0.76323  Biso   1.000  H
  H122     1.0000 0.27959  0.70775  0.26323  Biso   1.000  H
  H123     1.0000 0.77959  0.79225  0.73677  Biso   1.000  H
  H124     1.0000 0.72041  0.70775  0.23677  Biso   1.000  H
  H125     1.0000 0.77959  0.20775  0.23677  Biso   1.000  H
  H126     1.0000 0.72041  0.29225  0.73677  Biso   1.000  H
  H127     1.0000 0.22041  0.20775  0.26323  Biso   1.000  H
  H128     1.0000 0.27959  0.29225  0.76323  Biso   1.000  H
  H129     1.0000 0.20877  0.79465  0.85341  Biso   1.000  H
  H130     1.0000 0.29123  0.70535  0.35341  Biso   1.000  H
  H131     1.0000 0.79123  0.79465  0.64659  Biso   1.000  H
  H132     1.0000 0.70877  0.70535  0.14659  Biso   1.000  H
  H133     1.0000 0.79123  0.20535  0.14659  Biso   1.000  H
  H134     1.0000 0.70877  0.29465  0.64659  Biso   1.000  H
  H135     1.0000 0.20877  0.20535  0.35341  Biso   1.000  H
  H136     1.0000 0.29123  0.29465  0.85341  Biso   1.000  H
  H137     1.0000 0.20619  0.89655  0.80398  Biso   1.000  H
  H138     1.0000 0.29381  0.60345  0.30398  Biso   1.000  H
  H139     1.0000 0.79381  0.89655  0.69602  Biso   1.000  H
  H140     1.0000 0.70619  0.60345  0.19602  Biso   1.000  H
  H141     1.0000 0.79381  0.10345  0.19602  Biso   1.000  H
  H142     1.0000 0.70619  0.39655  0.69602  Biso   1.000  H
  H143     1.0000 0.20619  0.10345  0.30398  Biso   1.000  H
  H144     1.0000 0.29381  0.39655  0.80398  Biso   1.000  H
