data_image0
_cell_length_a       8.2003
_cell_length_b       9.4047
_cell_length_c       19.9483
_cell_angle_alpha    90
_cell_angle_beta     96.603
_cell_angle_gamma    90

_symmetry_space_group_name_H-M    "P 1"
_symmetry_int_tables_number       1

loop_
  _symmetry_equiv_pos_as_xyz
  'x, y, z'

loop_
  _atom_site_label
  _atom_site_occupancy
  _atom_site_fract_x
  _atom_site_fract_y
  _atom_site_fract_z
  _atom_site_thermal_displace_type
  _atom_site_B_iso_or_equiv
  _atom_site_type_symbol
  Cu1      1.0000 0.88910  0.38350  0.10860  Biso   1.000  Cu
  Cu2      1.0000 0.61090  0.88350  0.39140  Biso   1.000  Cu
  Cu3      1.0000 0.11090  0.61650  0.89140  Biso   1.000  Cu
  Cu4      1.0000 0.38910  0.11650  0.60860  Biso   1.000  Cu
  V1       1.0000 0.80200  0.83960  0.25040  Biso   1.000  V
  V2       1.0000 0.69800  0.33960  0.24960  Biso   1.000  V
  V3       1.0000 0.19800  0.16040  0.74960  Biso   1.000  V
  V4       1.0000 0.30200  0.66040  0.75040  Biso   1.000  V
  P1       1.0000 0.53540  0.61780  0.29980  Biso   1.000  P
  P2       1.0000 0.96460  0.11780  0.20020  Biso   1.000  P
  P3       1.0000 0.46460  0.38220  0.70020  Biso   1.000  P
  P4       1.0000 0.03540  0.88220  0.79980  Biso   1.000  P
  P5       1.0000 0.00630  0.53680  0.24740  Biso   1.000  P
  P6       1.0000 0.49370  0.03680  0.25260  Biso   1.000  P
  P7       1.0000 0.99370  0.46320  0.75260  Biso   1.000  P
  P8       1.0000 0.50630  0.96320  0.74740  Biso   1.000  P
  O1       1.0000 0.95880  0.69260  0.23340  Biso   1.000  O
  O2       1.0000 0.54120  0.19260  0.26660  Biso   1.000  O
  O3       1.0000 0.04120  0.30740  0.76660  Biso   1.000  O
  O4       1.0000 0.45880  0.80740  0.73340  Biso   1.000  O
  O5       1.0000 0.03480  0.46110  0.18170  Biso   1.000  O
  O6       1.0000 0.46520  0.96110  0.31830  Biso   1.000  O
  O7       1.0000 0.96520  0.53890  0.81830  Biso   1.000  O
  O8       1.0000 0.53480  0.03890  0.68170  Biso   1.000  O
  O9       1.0000 0.88610  0.45870  0.28770  Biso   1.000  O
  O10      1.0000 0.61390  0.95870  0.21230  Biso   1.000  O
  O11      1.0000 0.11390  0.54130  0.71230  Biso   1.000  O
  O12      1.0000 0.38610  0.04130  0.78770  Biso   1.000  O
  O13      1.0000 0.65780  0.38640  0.17170  Biso   1.000  O
  O14      1.0000 0.84220  0.88640  0.32830  Biso   1.000  O
  O15      1.0000 0.34220  0.61360  0.82830  Biso   1.000  O
  O16      1.0000 0.15780  0.11360  0.67170  Biso   1.000  O
  O17      1.0000 0.56850  0.45710  0.30530  Biso   1.000  O
  O18      1.0000 0.93150  0.95710  0.19470  Biso   1.000  O
  O19      1.0000 0.43150  0.54290  0.69470  Biso   1.000  O
  O20      1.0000 0.06850  0.04290  0.80530  Biso   1.000  O
  O21      1.0000 0.55840  0.68630  0.36970  Biso   1.000  O
  O22      1.0000 0.94160  0.18630  0.13030  Biso   1.000  O
  O23      1.0000 0.44160  0.31370  0.63030  Biso   1.000  O
  O24      1.0000 0.05840  0.81370  0.86970  Biso   1.000  O
  O25      1.0000 0.63710  0.68940  0.24960  Biso   1.000  O
  O26      1.0000 0.86290  0.18940  0.25040  Biso   1.000  O
  O27      1.0000 0.36290  0.31060  0.75040  Biso   1.000  O
  O28      1.0000 0.13710  0.81060  0.74960  Biso   1.000  O
  N1       1.0000 0.86420  0.57170  0.05870  Biso   1.000  N
  N2       1.0000 0.63580  0.07170  0.44130  Biso   1.000  N
  N3       1.0000 0.13580  0.42830  0.94130  Biso   1.000  N
  N4       1.0000 0.36420  0.92830  0.55870  Biso   1.000  N
  N5       1.0000 0.74520  0.32210  0.02560  Biso   1.000  N
  N6       1.0000 0.75480  0.82210  0.47440  Biso   1.000  N
  N7       1.0000 0.25480  0.67790  0.97440  Biso   1.000  N
  N8       1.0000 0.24520  0.17790  0.52560  Biso   1.000  N
  C1       1.0000 0.32440  0.63370  0.26380  Biso   1.000  C
  C2       1.0000 0.17560  0.13370  0.23620  Biso   1.000  C
  C3       1.0000 0.67560  0.36630  0.73620  Biso   1.000  C
  C4       1.0000 0.82440  0.86630  0.76380  Biso   1.000  C
  C5       1.0000 0.20230  0.54340  0.29810  Biso   1.000  C
  C6       1.0000 0.29770  0.04340  0.20190  Biso   1.000  C
  C7       1.0000 0.79770  0.45660  0.70190  Biso   1.000  C
  C8       1.0000 0.70230  0.95660  0.79810  Biso   1.000  C
  C9       1.0000 0.59780  0.39800  0.92050  Biso   1.000  C
  C10      1.0000 0.90220  0.89800  0.57950  Biso   1.000  C
  C11      1.0000 0.40220  0.60200  0.07950  Biso   1.000  C
  C12      1.0000 0.09780  0.10200  0.42050  Biso   1.000  C
  C13      1.0000 0.74970  0.68570  0.95640  Biso   1.000  C
  C14      1.0000 0.75030  0.18570  0.54360  Biso   1.000  C
  C15      1.0000 0.25030  0.31430  0.04360  Biso   1.000  C
  C16      1.0000 0.24970  0.81430  0.45640  Biso   1.000  C
  C17      1.0000 0.70080  0.42520  0.97950  Biso   1.000  C
  C18      1.0000 0.79920  0.92520  0.52050  Biso   1.000  C
  C19      1.0000 0.29920  0.57480  0.02050  Biso   1.000  C
  C20      1.0000 0.20080  0.07480  0.47950  Biso   1.000  C
  C21      1.0000 0.68760  0.18950  0.01380  Biso   1.000  C
  C22      1.0000 0.81240  0.68950  0.48620  Biso   1.000  C
  C23      1.0000 0.31240  0.81050  0.98620  Biso   1.000  C
  C24      1.0000 0.18760  0.31050  0.51380  Biso   1.000  C
  C25      1.0000 0.90920  0.82020  0.04260  Biso   1.000  C
  C26      1.0000 0.59080  0.32020  0.45740  Biso   1.000  C
  C27      1.0000 0.09080  0.17980  0.95740  Biso   1.000  C
  C28      1.0000 0.40920  0.67980  0.54260  Biso   1.000  C
  C29      1.0000 0.81950  0.81400  0.97950  Biso   1.000  C
  C30      1.0000 0.68050  0.31400  0.52050  Biso   1.000  C
  C31      1.0000 0.18050  0.18600  0.02050  Biso   1.000  C
  C32      1.0000 0.31950  0.68600  0.47950  Biso   1.000  C
  C33      1.0000 0.77190  0.56670  0.99780  Biso   1.000  C
  C34      1.0000 0.72810  0.06670  0.50220  Biso   1.000  C
  C35      1.0000 0.22810  0.43330  0.00220  Biso   1.000  C
  C36      1.0000 0.27190  0.93330  0.49780  Biso   1.000  C
  C37      1.0000 0.58680  0.15480  0.95520  Biso   1.000  C
  C38      1.0000 0.91320  0.65480  0.54480  Biso   1.000  C
  C39      1.0000 0.41320  0.84520  0.04480  Biso   1.000  C
  C40      1.0000 0.08680  0.34520  0.45520  Biso   1.000  C
  C41      1.0000 0.93160  0.69590  0.08050  Biso   1.000  C
  C42      1.0000 0.56840  0.19590  0.41950  Biso   1.000  C
  C43      1.0000 0.06840  0.30410  0.91950  Biso   1.000  C
  C44      1.0000 0.43160  0.80410  0.58050  Biso   1.000  C
  C45      1.0000 0.54210  0.26030  0.90790  Biso   1.000  C
  C46      1.0000 0.95790  0.76030  0.59210  Biso   1.000  C
  C47      1.0000 0.45790  0.73970  0.09210  Biso   1.000  C
  C48      1.0000 0.04210  0.23970  0.40790  Biso   1.000  C
  H1       1.0000 0.29210  0.73270  0.26590  Biso   1.000  H
  H2       1.0000 0.20790  0.23270  0.23410  Biso   1.000  H
  H3       1.0000 0.70790  0.26730  0.73410  Biso   1.000  H
  H4       1.0000 0.79210  0.76730  0.76590  Biso   1.000  H
  H5       1.0000 0.31680  0.60720  0.21660  Biso   1.000  H
  H6       1.0000 0.18320  0.10720  0.28340  Biso   1.000  H
  H7       1.0000 0.68320  0.39280  0.78340  Biso   1.000  H
  H8       1.0000 0.81680  0.89280  0.71660  Biso   1.000  H
  H9       1.0000 0.18890  0.58350  0.34190  Biso   1.000  H
  H10      1.0000 0.31110  0.08350  0.15810  Biso   1.000  H
  H11      1.0000 0.81110  0.41650  0.65810  Biso   1.000  H
  H12      1.0000 0.68890  0.91650  0.84190  Biso   1.000  H
  H13      1.0000 0.24510  0.44770  0.30500  Biso   1.000  H
  H14      1.0000 0.25490  0.94770  0.19500  Biso   1.000  H
  H15      1.0000 0.75490  0.55230  0.69500  Biso   1.000  H
  H16      1.0000 0.74510  0.05230  0.80500  Biso   1.000  H
  H17      1.0000 0.56680  0.47070  0.89010  Biso   1.000  H
  H18      1.0000 0.93320  0.97070  0.60990  Biso   1.000  H
  H19      1.0000 0.43320  0.52930  0.10990  Biso   1.000  H
  H20      1.0000 0.06680  0.02930  0.39010  Biso   1.000  H
  H21      1.0000 0.68930  0.67960  0.91410  Biso   1.000  H
  H22      1.0000 0.81070  0.17960  0.58590  Biso   1.000  H
  H23      1.0000 0.31070  0.32040  0.08590  Biso   1.000  H
  H24      1.0000 0.18930  0.82040  0.41410  Biso   1.000  H
  H25      1.0000 0.71590  0.11900  0.04570  Biso   1.000  H
  H26      1.0000 0.78410  0.61900  0.45430  Biso   1.000  H
  H27      1.0000 0.28410  0.88100  0.95430  Biso   1.000  H
  H28      1.0000 0.21590  0.38100  0.54570  Biso   1.000  H
  H29      1.0000 0.95370  0.90580  0.05940  Biso   1.000  H
  H30      1.0000 0.54630  0.40580  0.44060  Biso   1.000  H
  H31      1.0000 0.04630  0.09420  0.94060  Biso   1.000  H
  H32      1.0000 0.45370  0.59420  0.55940  Biso   1.000  H
  H33      1.0000 0.80600  0.89510  0.95270  Biso   1.000  H
  H34      1.0000 0.69400  0.39510  0.54730  Biso   1.000  H
  H35      1.0000 0.19400  0.10490  0.04730  Biso   1.000  H
  H36      1.0000 0.30600  0.60490  0.45270  Biso   1.000  H
  H37      1.0000 0.54980  0.06200  0.94780  Biso   1.000  H
  H38      1.0000 0.95020  0.56200  0.55220  Biso   1.000  H
  H39      1.0000 0.45020  0.93800  0.05220  Biso   1.000  H
  H40      1.0000 0.04980  0.43800  0.44780  Biso   1.000  H
  H41      1.0000 0.99520  0.69900  0.12210  Biso   1.000  H
  H42      1.0000 0.50480  0.19900  0.37790  Biso   1.000  H
  H43      1.0000 0.00480  0.30100  0.87790  Biso   1.000  H
  H44      1.0000 0.49520  0.80100  0.62210  Biso   1.000  H
  H45      1.0000 0.47550  0.23890  0.86830  Biso   1.000  H
  H46      1.0000 0.02450  0.73890  0.63170  Biso   1.000  H
  H47      1.0000 0.52450  0.76110  0.13170  Biso   1.000  H
  H48      1.0000 0.97550  0.26110  0.36830  Biso   1.000  H
