data_image0
_cell_length_a       11.616
_cell_length_b       10.755
_cell_length_c       12.3
_cell_angle_alpha    90
_cell_angle_beta     90
_cell_angle_gamma    90

_symmetry_space_group_name_H-M    "P 1"
_symmetry_int_tables_number       1

loop_
  _symmetry_equiv_pos_as_xyz
  'x, y, z'

loop_
  _atom_site_label
  _atom_site_occupancy
  _atom_site_fract_x
  _atom_site_fract_y
  _atom_site_fract_z
  _atom_site_thermal_displace_type
  _atom_site_B_iso_or_equiv
  _atom_site_type_symbol
  Cu1      1.0000 0.95800  0.74330  0.37180  Biso   1.000  Cu
  Cu2      1.0000 0.04200  0.25670  0.87180  Biso   1.000  Cu
  Cu3      1.0000 0.54200  0.74330  0.87180  Biso   1.000  Cu
  Cu4      1.0000 0.45800  0.25670  0.37180  Biso   1.000  Cu
  V1       1.0000 0.27290  0.88800  0.16760  Biso   1.000  V
  V2       1.0000 0.72710  0.11200  0.66760  Biso   1.000  V
  V3       1.0000 0.22710  0.88800  0.66760  Biso   1.000  V
  V4       1.0000 0.77290  0.11200  0.16760  Biso   1.000  V
  P1       1.0000 0.01090  0.97980  0.23320  Biso   1.000  P
  P2       1.0000 0.98910  0.02020  0.73320  Biso   1.000  P
  P3       1.0000 0.48910  0.97980  0.73320  Biso   1.000  P
  P4       1.0000 0.51090  0.02020  0.23320  Biso   1.000  P
  P5       1.0000 0.17100  0.91970  0.40990  Biso   1.000  P
  P6       1.0000 0.82900  0.08030  0.90990  Biso   1.000  P
  P7       1.0000 0.32900  0.91970  0.90990  Biso   1.000  P
  P8       1.0000 0.67100  0.08030  0.40990  Biso   1.000  P
  O1       1.0000 0.93950  0.86370  0.25410  Biso   1.000  O
  O2       1.0000 0.06050  0.13630  0.75410  Biso   1.000  O
  O3       1.0000 0.56050  0.86370  0.75410  Biso   1.000  O
  O4       1.0000 0.43950  0.13630  0.25410  Biso   1.000  O
  O5       1.0000 0.10970  0.79410  0.41870  Biso   1.000  O
  O6       1.0000 0.89030  0.20590  0.91870  Biso   1.000  O
  O7       1.0000 0.39030  0.79410  0.91870  Biso   1.000  O
  O8       1.0000 0.60970  0.20590  0.41870  Biso   1.000  O
  O9       1.0000 0.87940  0.83790  0.51360  Biso   1.000  O
  O10      1.0000 0.12060  0.16210  0.01360  Biso   1.000  O
  O11      1.0000 0.62060  0.83790  0.01360  Biso   1.000  O
  O12      1.0000 0.37940  0.16210  0.51360  Biso   1.000  O
  O13      1.0000 0.26920  0.91660  0.32700  Biso   1.000  O
  O14      1.0000 0.73080  0.08340  0.82700  Biso   1.000  O
  O15      1.0000 0.23080  0.91660  0.82700  Biso   1.000  O
  O16      1.0000 0.76920  0.08340  0.32700  Biso   1.000  O
  O17      1.0000 0.11540  0.95400  0.16130  Biso   1.000  O
  O18      1.0000 0.88460  0.04600  0.66130  Biso   1.000  O
  O19      1.0000 0.38460  0.95400  0.66130  Biso   1.000  O
  O20      1.0000 0.61540  0.04600  0.16130  Biso   1.000  O
  O21      1.0000 0.26150  0.74200  0.14840  Biso   1.000  O
  O22      1.0000 0.73850  0.25800  0.64840  Biso   1.000  O
  O23      1.0000 0.23850  0.74200  0.64840  Biso   1.000  O
  O24      1.0000 0.76150  0.25800  0.14840  Biso   1.000  O
  O25      1.0000 0.21770  0.96430  0.51910  Biso   1.000  O
  O26      1.0000 0.78230  0.03570  0.01910  Biso   1.000  O
  O27      1.0000 0.28230  0.96430  0.01910  Biso   1.000  O
  O28      1.0000 0.71770  0.03570  0.51910  Biso   1.000  O
  O29      1.0000 0.94220  0.08350  0.17810  Biso   1.000  O
  O30      1.0000 0.05780  0.91650  0.67810  Biso   1.000  O
  O31      1.0000 0.55780  0.08350  0.67810  Biso   1.000  O
  O32      1.0000 0.44220  0.91650  0.17810  Biso   1.000  O
  C1       1.0000 0.06790  0.54610  0.51320  Biso   1.000  C
  C2       1.0000 0.93210  0.45390  0.01320  Biso   1.000  C
  C3       1.0000 0.43210  0.54610  0.01320  Biso   1.000  C
  C4       1.0000 0.56790  0.45390  0.51320  Biso   1.000  C
  C5       1.0000 0.08340  0.42490  0.54940  Biso   1.000  C
  C6       1.0000 0.91660  0.57510  0.04940  Biso   1.000  C
  C7       1.0000 0.41660  0.42490  0.04940  Biso   1.000  C
  C8       1.0000 0.58340  0.57510  0.54940  Biso   1.000  C
  C9       1.0000 0.00480  0.33420  0.51870  Biso   1.000  C
  C10      1.0000 0.99520  0.66580  0.01870  Biso   1.000  C
  C11      1.0000 0.49520  0.33420  0.01870  Biso   1.000  C
  C12      1.0000 0.50480  0.66580  0.51870  Biso   1.000  C
  C13      1.0000 0.91360  0.36520  0.45140  Biso   1.000  C
  C14      1.0000 0.08640  0.63480  0.95140  Biso   1.000  C
  C15      1.0000 0.58640  0.36520  0.95140  Biso   1.000  C
  C16      1.0000 0.41360  0.63480  0.45140  Biso   1.000  C
  C17      1.0000 0.90380  0.48790  0.41600  Biso   1.000  C
  C18      1.0000 0.09620  0.51210  0.91600  Biso   1.000  C
  C19      1.0000 0.59620  0.48790  0.91600  Biso   1.000  C
  C20      1.0000 0.40380  0.51210  0.41600  Biso   1.000  C
  C21      1.0000 0.81020  0.53300  0.34460  Biso   1.000  C
  C22      1.0000 0.18980  0.46700  0.84460  Biso   1.000  C
  C23      1.0000 0.68980  0.53300  0.84460  Biso   1.000  C
  C24      1.0000 0.31020  0.46700  0.34460  Biso   1.000  C
  C25      1.0000 0.72130  0.45880  0.30690  Biso   1.000  C
  C26      1.0000 0.27870  0.54120  0.80690  Biso   1.000  C
  C27      1.0000 0.77870  0.45880  0.80690  Biso   1.000  C
  C28      1.0000 0.22130  0.54120  0.30690  Biso   1.000  C
  C29      1.0000 0.63620  0.51300  0.24260  Biso   1.000  C
  C30      1.0000 0.36380  0.48700  0.74260  Biso   1.000  C
  C31      1.0000 0.86380  0.51300  0.74260  Biso   1.000  C
  C32      1.0000 0.13620  0.48700  0.24260  Biso   1.000  C
  C33      1.0000 0.64180  0.63840  0.21880  Biso   1.000  C
  C34      1.0000 0.35820  0.36160  0.71880  Biso   1.000  C
  C35      1.0000 0.85820  0.63840  0.71880  Biso   1.000  C
  C36      1.0000 0.14180  0.36160  0.21880  Biso   1.000  C
  C37      1.0000 0.73600  0.70690  0.25620  Biso   1.000  C
  C38      1.0000 0.26400  0.29310  0.75620  Biso   1.000  C
  C39      1.0000 0.76400  0.70690  0.75620  Biso   1.000  C
  C40      1.0000 0.23600  0.29310  0.25620  Biso   1.000  C
  C41      1.0000 0.06610  0.03180  0.36290  Biso   1.000  C
  C42      1.0000 0.93390  0.96820  0.86290  Biso   1.000  C
  C43      1.0000 0.43390  0.03180  0.86290  Biso   1.000  C
  C44      1.0000 0.56610  0.96820  0.36290  Biso   1.000  C
  N1       1.0000 0.98010  0.57660  0.44680  Biso   1.000  N
  N2       1.0000 0.01990  0.42340  0.94680  Biso   1.000  N
  N3       1.0000 0.51990  0.57660  0.94680  Biso   1.000  N
  N4       1.0000 0.48010  0.42340  0.44680  Biso   1.000  N
  N5       1.0000 0.81780  0.65570  0.31760  Biso   1.000  N
  N6       1.0000 0.18220  0.34430  0.81760  Biso   1.000  N
  N7       1.0000 0.68220  0.65570  0.81760  Biso   1.000  N
  N8       1.0000 0.31780  0.34430  0.31760  Biso   1.000  N
  H1       1.0000 0.11930  0.60750  0.53510  Biso   1.000  H
  H2       1.0000 0.88070  0.39250  0.03510  Biso   1.000  H
  H3       1.0000 0.38070  0.60750  0.03510  Biso   1.000  H
  H4       1.0000 0.61930  0.39250  0.53510  Biso   1.000  H
  H5       1.0000 0.14560  0.40480  0.59370  Biso   1.000  H
  H6       1.0000 0.85440  0.59520  0.09370  Biso   1.000  H
  H7       1.0000 0.35440  0.40480  0.09370  Biso   1.000  H
  H8       1.0000 0.64560  0.59520  0.59370  Biso   1.000  H
  H9       1.0000 0.01330  0.25290  0.54320  Biso   1.000  H
  H10      1.0000 0.98670  0.74710  0.04320  Biso   1.000  H
  H11      1.0000 0.48670  0.25290  0.04320  Biso   1.000  H
  H12      1.0000 0.51330  0.74710  0.54320  Biso   1.000  H
  H13      1.0000 0.86010  0.30550  0.43040  Biso   1.000  H
  H14      1.0000 0.13990  0.69450  0.93040  Biso   1.000  H
  H15      1.0000 0.63990  0.30550  0.93040  Biso   1.000  H
  H16      1.0000 0.36010  0.69450  0.43040  Biso   1.000  H
  H17      1.0000 0.71850  0.37460  0.32400  Biso   1.000  H
  H18      1.0000 0.28150  0.62540  0.82400  Biso   1.000  H
  H19      1.0000 0.78150  0.37460  0.82400  Biso   1.000  H
  H20      1.0000 0.21850  0.62540  0.32400  Biso   1.000  H
  H21      1.0000 0.57580  0.46510  0.21600  Biso   1.000  H
  H22      1.0000 0.42420  0.53490  0.71600  Biso   1.000  H
  H23      1.0000 0.92420  0.46510  0.71600  Biso   1.000  H
  H24      1.0000 0.07580  0.53490  0.21600  Biso   1.000  H
  H25      1.0000 0.58400  0.67650  0.17850  Biso   1.000  H
  H26      1.0000 0.41600  0.32350  0.67850  Biso   1.000  H
  H27      1.0000 0.91600  0.67650  0.67850  Biso   1.000  H
  H28      1.0000 0.08400  0.32350  0.17850  Biso   1.000  H
  H29      1.0000 0.74180  0.79060  0.23770  Biso   1.000  H
  H30      1.0000 0.25820  0.20940  0.73770  Biso   1.000  H
  H31      1.0000 0.75820  0.79060  0.73770  Biso   1.000  H
  H32      1.0000 0.24180  0.20940  0.23770  Biso   1.000  H
  H33      1.0000 0.00600  0.03850  0.41320  Biso   1.000  H
  H34      1.0000 0.99400  0.96150  0.91320  Biso   1.000  H
  H35      1.0000 0.49400  0.03850  0.91320  Biso   1.000  H
  H36      1.0000 0.50600  0.96150  0.41320  Biso   1.000  H
  H37      1.0000 0.10050  0.11000  0.35540  Biso   1.000  H
  H38      1.0000 0.89950  0.89000  0.85540  Biso   1.000  H
  H39      1.0000 0.39950  0.11000  0.85540  Biso   1.000  H
  H40      1.0000 0.60050  0.89000  0.35540  Biso   1.000  H
