data_image0
_cell_length_a       9.9137
_cell_length_b       17.678
_cell_length_c       20.876
_cell_angle_alpha    90
_cell_angle_beta     103.167
_cell_angle_gamma    90

_symmetry_space_group_name_H-M    "P 1"
_symmetry_int_tables_number       1

loop_
  _symmetry_equiv_pos_as_xyz
  'x, y, z'

loop_
  _atom_site_label
  _atom_site_occupancy
  _atom_site_fract_x
  _atom_site_fract_y
  _atom_site_fract_z
  _atom_site_thermal_displace_type
  _atom_site_B_iso_or_equiv
  _atom_site_type_symbol
  Cu1      1.0000 0.03680  0.66220  0.37230  Biso   1.000  Cu
  Cu2      1.0000 0.96320  0.16220  0.12770  Biso   1.000  Cu
  Cu3      1.0000 0.96320  0.33780  0.62770  Biso   1.000  Cu
  Cu4      1.0000 0.03680  0.83780  0.87230  Biso   1.000  Cu
  Cu5      1.0000 0.59320  0.01270  0.39640  Biso   1.000  Cu
  Cu6      1.0000 0.40680  0.51270  0.10360  Biso   1.000  Cu
  Cu7      1.0000 0.40680  0.98730  0.60360  Biso   1.000  Cu
  Cu8      1.0000 0.59320  0.48730  0.89640  Biso   1.000  Cu
  V1       1.0000 0.18400  0.57640  0.19570  Biso   1.000  V
  V2       1.0000 0.81600  0.07640  0.30430  Biso   1.000  V
  V3       1.0000 0.81600  0.42360  0.80430  Biso   1.000  V
  V4       1.0000 0.18400  0.92360  0.69570  Biso   1.000  V
  V5       1.0000 0.72480  0.59330  0.28360  Biso   1.000  V
  V6       1.0000 0.27520  0.09330  0.21640  Biso   1.000  V
  V7       1.0000 0.27520  0.40670  0.71640  Biso   1.000  V
  V8       1.0000 0.72480  0.90670  0.78360  Biso   1.000  V
  P1       1.0000 0.98830  0.00700  0.20980  Biso   1.000  P
  P2       1.0000 0.01170  0.50700  0.29020  Biso   1.000  P
  P3       1.0000 0.01170  0.99300  0.79020  Biso   1.000  P
  P4       1.0000 0.98830  0.49300  0.70980  Biso   1.000  P
  P5       1.0000 0.94080  0.69360  0.22100  Biso   1.000  P
  P6       1.0000 0.05920  0.19360  0.27900  Biso   1.000  P
  P7       1.0000 0.05920  0.30640  0.77900  Biso   1.000  P
  P8       1.0000 0.94080  0.80640  0.72100  Biso   1.000  P
  P9       1.0000 0.45360  0.66700  0.18530  Biso   1.000  P
  P10      1.0000 0.54640  0.16700  0.31470  Biso   1.000  P
  P11      1.0000 0.54640  0.33300  0.81470  Biso   1.000  P
  P12      1.0000 0.45360  0.83300  0.68530  Biso   1.000  P
  P13      1.0000 0.53720  0.97950  0.24320  Biso   1.000  P
  P14      1.0000 0.46280  0.47950  0.25680  Biso   1.000  P
  P15      1.0000 0.46280  0.02050  0.75680  Biso   1.000  P
  P16      1.0000 0.53720  0.52050  0.74320  Biso   1.000  P
  O1       1.0000 0.91620  0.07130  0.16650  Biso   1.000  O
  O2       1.0000 0.08380  0.57130  0.33350  Biso   1.000  O
  O3       1.0000 0.08380  0.92870  0.83350  Biso   1.000  O
  O4       1.0000 0.91620  0.42870  0.66650  Biso   1.000  O
  O5       1.0000 0.01230  0.71790  0.29060  Biso   1.000  O
  O6       1.0000 0.98770  0.21790  0.20940  Biso   1.000  O
  O7       1.0000 0.98770  0.28210  0.70940  Biso   1.000  O
  O8       1.0000 0.01230  0.78210  0.79060  Biso   1.000  O
  O9       1.0000 0.80720  0.64860  0.21960  Biso   1.000  O
  O10      1.0000 0.19280  0.14860  0.28040  Biso   1.000  O
  O11      1.0000 0.19280  0.35140  0.78040  Biso   1.000  O
  O12      1.0000 0.80720  0.85140  0.71960  Biso   1.000  O
  O13      1.0000 0.79160  0.63040  0.35380  Biso   1.000  O
  O14      1.0000 0.20840  0.13040  0.14620  Biso   1.000  O
  O15      1.0000 0.20840  0.36960  0.64620  Biso   1.000  O
  O16      1.0000 0.79160  0.86960  0.85380  Biso   1.000  O
  O17      1.0000 0.55540  0.65310  0.25130  Biso   1.000  O
  O18      1.0000 0.44460  0.15310  0.24870  Biso   1.000  O
  O19      1.0000 0.44460  0.34690  0.74870  Biso   1.000  O
  O20      1.0000 0.55540  0.84690  0.75130  Biso   1.000  O
  O21      1.0000 0.40420  0.01260  0.19990  Biso   1.000  O
  O22      1.0000 0.59580  0.51260  0.30010  Biso   1.000  O
  O23      1.0000 0.59580  0.98740  0.80010  Biso   1.000  O
  O24      1.0000 0.40420  0.48740  0.69990  Biso   1.000  O
  O25      1.0000 0.14680  0.00890  0.22080  Biso   1.000  O
  O26      1.0000 0.85320  0.50890  0.27920  Biso   1.000  O
  O27      1.0000 0.85320  0.99110  0.77920  Biso   1.000  O
  O28      1.0000 0.14680  0.49110  0.72080  Biso   1.000  O
  O29      1.0000 0.30410  0.66700  0.19460  Biso   1.000  O
  O30      1.0000 0.69590  0.16700  0.30540  Biso   1.000  O
  O31      1.0000 0.69590  0.33300  0.80540  Biso   1.000  O
  O32      1.0000 0.30410  0.83300  0.69460  Biso   1.000  O
  O33      1.0000 0.47360  0.61280  0.13130  Biso   1.000  O
  O34      1.0000 0.52640  0.11280  0.36870  Biso   1.000  O
  O35      1.0000 0.52640  0.38720  0.86870  Biso   1.000  O
  O36      1.0000 0.47360  0.88720  0.63130  Biso   1.000  O
  O37      1.0000 0.81300  0.04090  0.37530  Biso   1.000  O
  O38      1.0000 0.18700  0.54090  0.12470  Biso   1.000  O
  O39      1.0000 0.18700  0.95910  0.62470  Biso   1.000  O
  O40      1.0000 0.81300  0.45910  0.87530  Biso   1.000  O
  O41      1.0000 0.52250  0.96370  0.31310  Biso   1.000  O
  O42      1.0000 0.47750  0.46370  0.18690  Biso   1.000  O
  O43      1.0000 0.47750  0.03630  0.68690  Biso   1.000  O
  O44      1.0000 0.52250  0.53630  0.81310  Biso   1.000  O
  O45      1.0000 0.03690  0.65210  0.18540  Biso   1.000  O
  O46      1.0000 0.96310  0.15210  0.31460  Biso   1.000  O
  O47      1.0000 0.96310  0.34790  0.81460  Biso   1.000  O
  O48      1.0000 0.03690  0.84790  0.68540  Biso   1.000  O
  O49      1.0000 0.94290  0.00440  0.27510  Biso   1.000  O
  O50      1.0000 0.05710  0.50440  0.22490  Biso   1.000  O
  O51      1.0000 0.05710  0.99560  0.72490  Biso   1.000  O
  O52      1.0000 0.94290  0.49560  0.77510  Biso   1.000  O
  O53      1.0000 0.66290  0.02990  0.24190  Biso   1.000  O
  O54      1.0000 0.33710  0.52990  0.25810  Biso   1.000  O
  O55      1.0000 0.33710  0.97010  0.75810  Biso   1.000  O
  O56      1.0000 0.66290  0.47010  0.74190  Biso   1.000  O
  O57      1.0000 0.32030  0.70630  0.33530  Biso   1.000  O
  O58      1.0000 0.67970  0.20630  0.16470  Biso   1.000  O
  O59      1.0000 0.67970  0.29370  0.66470  Biso   1.000  O
  O60      1.0000 0.32030  0.79370  0.83530  Biso   1.000  O
  O61      1.0000 0.45840  0.56950  0.40590  Biso   1.000  O
  O62      1.0000 0.54160  0.06950  0.09410  Biso   1.000  O
  O63      1.0000 0.54160  0.43050  0.59410  Biso   1.000  O
  O64      1.0000 0.45840  0.93050  0.90590  Biso   1.000  O
  O65      1.0000 0.39400  0.41720  0.46110  Biso   1.000  O
  O66      1.0000 0.60600  0.91720  0.03890  Biso   1.000  O
  O67      1.0000 0.60600  0.58280  0.53890  Biso   1.000  O
  O68      1.0000 0.39400  0.08280  0.96110  Biso   1.000  O
  N1       1.0000 0.01490  0.75660  0.42120  Biso   1.000  N
  N2       1.0000 0.98510  0.25660  0.07880  Biso   1.000  N
  N3       1.0000 0.98510  0.24340  0.57880  Biso   1.000  N
  N4       1.0000 0.01490  0.74340  0.92120  Biso   1.000  N
  N5       1.0000 0.11070  0.62500  0.46380  Biso   1.000  N
  N6       1.0000 0.88930  0.12500  0.03620  Biso   1.000  N
  N7       1.0000 0.88930  0.37500  0.53620  Biso   1.000  N
  N8       1.0000 0.11070  0.87500  0.96380  Biso   1.000  N
  N9       1.0000 0.63740  0.91060  0.43920  Biso   1.000  N
  N10      1.0000 0.36260  0.41060  0.06080  Biso   1.000  N
  N11      1.0000 0.36260  0.08940  0.56080  Biso   1.000  N
  N12      1.0000 0.63740  0.58940  0.93920  Biso   1.000  N
  N13      1.0000 0.65140  0.04460  0.49120  Biso   1.000  N
  N14      1.0000 0.34860  0.54460  0.00880  Biso   1.000  N
  N15      1.0000 0.34860  0.95540  0.50880  Biso   1.000  N
  N16      1.0000 0.65140  0.45540  0.99120  Biso   1.000  N
  C1       1.0000 0.96440  0.82180  0.39390  Biso   1.000  C
  C2       1.0000 0.03560  0.32180  0.10610  Biso   1.000  C
  C3       1.0000 0.03560  0.17820  0.60610  Biso   1.000  C
  C4       1.0000 0.96440  0.67820  0.89390  Biso   1.000  C
  C5       1.0000 0.95870  0.88670  0.43070  Biso   1.000  C
  C6       1.0000 0.04130  0.38670  0.06930  Biso   1.000  C
  C7       1.0000 0.04130  0.11330  0.56930  Biso   1.000  C
  C8       1.0000 0.95870  0.61330  0.93070  Biso   1.000  C
  C9       1.0000 0.00540  0.88260  0.49850  Biso   1.000  C
  C10      1.0000 0.99460  0.38260  0.00150  Biso   1.000  C
  C11      1.0000 0.99460  0.11740  0.50150  Biso   1.000  C
  C12      1.0000 0.00540  0.61740  0.99850  Biso   1.000  C
  C13      1.0000 0.05830  0.81440  0.52780  Biso   1.000  C
  C14      1.0000 0.94170  0.31440  0.97220  Biso   1.000  C
  C15      1.0000 0.94170  0.18560  0.47220  Biso   1.000  C
  C16      1.0000 0.05830  0.68560  0.02780  Biso   1.000  C
  C17      1.0000 0.06060  0.75270  0.48750  Biso   1.000  C
  C18      1.0000 0.93940  0.25270  0.01250  Biso   1.000  C
  C19      1.0000 0.93940  0.24730  0.51250  Biso   1.000  C
  C20      1.0000 0.06060  0.74730  0.98750  Biso   1.000  C
  C21      1.0000 0.11440  0.67640  0.51150  Biso   1.000  C
  C22      1.0000 0.88560  0.17640  0.98850  Biso   1.000  C
  C23      1.0000 0.88560  0.32360  0.48850  Biso   1.000  C
  C24      1.0000 0.11440  0.82360  0.01150  Biso   1.000  C
  C25      1.0000 0.16390  0.65950  0.57730  Biso   1.000  C
  C26      1.0000 0.83610  0.15950  0.92270  Biso   1.000  C
  C27      1.0000 0.83610  0.34050  0.42270  Biso   1.000  C
  C28      1.0000 0.16390  0.84050  0.07730  Biso   1.000  C
  C29      1.0000 0.20850  0.58600  0.59450  Biso   1.000  C
  C30      1.0000 0.79150  0.08600  0.90550  Biso   1.000  C
  C31      1.0000 0.79150  0.41400  0.40550  Biso   1.000  C
  C32      1.0000 0.20850  0.91400  0.09450  Biso   1.000  C
  C33      1.0000 0.20580  0.53330  0.54560  Biso   1.000  C
  C34      1.0000 0.79420  0.03330  0.95440  Biso   1.000  C
  C35      1.0000 0.79420  0.46670  0.45440  Biso   1.000  C
  C36      1.0000 0.20580  0.96670  0.04560  Biso   1.000  C
  C37      1.0000 0.15740  0.55480  0.48050  Biso   1.000  C
  C38      1.0000 0.84260  0.05480  0.01950  Biso   1.000  C
  C39      1.0000 0.84260  0.44520  0.51950  Biso   1.000  C
  C40      1.0000 0.15740  0.94520  0.98050  Biso   1.000  C
  C41      1.0000 0.62320  0.84440  0.40770  Biso   1.000  C
  C42      1.0000 0.37680  0.34440  0.09230  Biso   1.000  C
  C43      1.0000 0.37680  0.15560  0.59230  Biso   1.000  C
  C44      1.0000 0.62320  0.65560  0.90770  Biso   1.000  C
  C45      1.0000 0.64500  0.77560  0.44050  Biso   1.000  C
  C46      1.0000 0.35500  0.27560  0.05950  Biso   1.000  C
  C47      1.0000 0.35500  0.22440  0.55950  Biso   1.000  C
  C48      1.0000 0.64500  0.72440  0.94050  Biso   1.000  C
  C49      1.0000 0.68120  0.77600  0.50880  Biso   1.000  C
  C50      1.0000 0.31880  0.27600  0.99120  Biso   1.000  C
  C51      1.0000 0.31880  0.22400  0.49120  Biso   1.000  C
  C52      1.0000 0.68120  0.72400  0.00880  Biso   1.000  C
  C53      1.0000 0.69800  0.84480  0.54190  Biso   1.000  C
  C54      1.0000 0.30200  0.34480  0.95810  Biso   1.000  C
  C55      1.0000 0.30200  0.15520  0.45810  Biso   1.000  C
  C56      1.0000 0.69800  0.65520  0.04190  Biso   1.000  C
  C57      1.0000 0.67660  0.91130  0.50560  Biso   1.000  C
  C58      1.0000 0.32340  0.41130  0.99440  Biso   1.000  C
  C59      1.0000 0.32340  0.08870  0.49440  Biso   1.000  C
  C60      1.0000 0.67660  0.58870  0.00560  Biso   1.000  C
  C61      1.0000 0.69130  0.98790  0.53510  Biso   1.000  C
  C62      1.0000 0.30870  0.48790  0.96490  Biso   1.000  C
  C63      1.0000 0.30870  0.01210  0.46490  Biso   1.000  C
  C64      1.0000 0.69130  0.51210  0.03510  Biso   1.000  C
  C65      1.0000 0.73830  0.00210  0.60230  Biso   1.000  C
  C66      1.0000 0.26170  0.50210  0.89770  Biso   1.000  C
  C67      1.0000 0.26170  0.99790  0.39770  Biso   1.000  C
  C68      1.0000 0.73830  0.49790  0.10230  Biso   1.000  C
  C69      1.0000 0.74090  0.07620  0.62460  Biso   1.000  C
  C70      1.0000 0.25910  0.57620  0.87540  Biso   1.000  C
  C71      1.0000 0.25910  0.92380  0.37540  Biso   1.000  C
  C72      1.0000 0.74090  0.42380  0.12460  Biso   1.000  C
  C73      1.0000 0.69820  0.13410  0.57970  Biso   1.000  C
  C74      1.0000 0.30180  0.63410  0.92030  Biso   1.000  C
  C75      1.0000 0.30180  0.86590  0.42030  Biso   1.000  C
  C76      1.0000 0.69820  0.36590  0.07970  Biso   1.000  C
  C77      1.0000 0.65490  0.11650  0.51340  Biso   1.000  C
  C78      1.0000 0.34510  0.61650  0.98660  Biso   1.000  C
  C79      1.0000 0.34510  0.88350  0.48660  Biso   1.000  C
  C80      1.0000 0.65490  0.38350  0.01340  Biso   1.000  C
  C81      1.0000 0.92770  0.92150  0.16650  Biso   1.000  C
  C82      1.0000 0.07230  0.42150  0.33350  Biso   1.000  C
  C83      1.0000 0.07230  0.07850  0.83350  Biso   1.000  C
  C84      1.0000 0.92770  0.57850  0.66650  Biso   1.000  C
  C85      1.0000 0.97830  0.84910  0.20510  Biso   1.000  C
  C86      1.0000 0.02170  0.34910  0.29490  Biso   1.000  C
  C87      1.0000 0.02170  0.15090  0.79490  Biso   1.000  C
  C88      1.0000 0.97830  0.65090  0.70510  Biso   1.000  C
  C89      1.0000 0.89360  0.77960  0.17560  Biso   1.000  C
  C90      1.0000 0.10640  0.27960  0.32440  Biso   1.000  C
  C91      1.0000 0.10640  0.22040  0.82440  Biso   1.000  C
  C92      1.0000 0.89360  0.72040  0.67560  Biso   1.000  C
  C93      1.0000 0.56720  0.89210  0.20430  Biso   1.000  C
  C94      1.0000 0.43280  0.39210  0.29570  Biso   1.000  C
  C95      1.0000 0.43280  0.10790  0.79570  Biso   1.000  C
  C96      1.0000 0.56720  0.60790  0.70430  Biso   1.000  C
  C97      1.0000 0.47770  0.82270  0.21170  Biso   1.000  C
  C98      1.0000 0.52230  0.32270  0.28830  Biso   1.000  C
  C99      1.0000 0.52230  0.17730  0.78830  Biso   1.000  C
  C100     1.0000 0.47770  0.67730  0.71170  Biso   1.000  C
  C101     1.0000 0.48890  0.76120  0.16080  Biso   1.000  C
  C102     1.0000 0.51110  0.26120  0.33920  Biso   1.000  C
  C103     1.0000 0.51110  0.23880  0.83920  Biso   1.000  C
  C104     1.0000 0.48890  0.73880  0.66080  Biso   1.000  C
