data_image0
_cell_length_a       8.5997
_cell_length_b       11.1264
_cell_length_c       11.6962
_cell_angle_alpha    85.02
_cell_angle_beta     85.72
_cell_angle_gamma    74.647

_symmetry_space_group_name_H-M    "P 1"
_symmetry_int_tables_number       1

loop_
  _symmetry_equiv_pos_as_xyz
  'x, y, z'

loop_
  _atom_site_label
  _atom_site_occupancy
  _atom_site_fract_x
  _atom_site_fract_y
  _atom_site_fract_z
  _atom_site_thermal_displace_type
  _atom_site_B_iso_or_equiv
  _atom_site_type_symbol
  C1       1.0000 0.32900  0.77888  0.07033  Biso   1.000  C
  C2       1.0000 0.67100  0.22112  0.92967  Biso   1.000  C
  H1       1.0000 0.27240  0.83780  0.01410  Biso   1.000  H
  H2       1.0000 0.72760  0.16220  0.98590  Biso   1.000  H
  C3       1.0000 0.32520  0.65569  0.07011  Biso   1.000  C
  C4       1.0000 0.67480  0.34431  0.92989  Biso   1.000  C
  H3       1.0000 0.26780  0.63110  0.01390  Biso   1.000  H
  H4       1.0000 0.73220  0.36890  0.98610  Biso   1.000  H
  C5       1.0000 0.40580  0.56697  0.15264  Biso   1.000  C
  C6       1.0000 0.59420  0.43303  0.84736  Biso   1.000  C
  C7       1.0000 0.48620  0.60964  0.23363  Biso   1.000  C
  C8       1.0000 0.51380  0.39036  0.76637  Biso   1.000  C
  H5       1.0000 0.54060  0.55340  0.29250  Biso   1.000  H
  H6       1.0000 0.45940  0.44660  0.70750  Biso   1.000  H
  C9       1.0000 0.48600  0.73492  0.22753  Biso   1.000  C
  C10      1.0000 0.51400  0.26508  0.77247  Biso   1.000  C
  H7       1.0000 0.54230  0.76230  0.28270  Biso   1.000  H
  H8       1.0000 0.45770  0.23770  0.71730  Biso   1.000  H
  C11      1.0000 0.40590  0.43335  0.15306  Biso   1.000  C
  C12      1.0000 0.59410  0.56665  0.84694  Biso   1.000  C
  C13      1.0000 0.29710  0.39649  0.09054  Biso   1.000  C
  C14      1.0000 0.70290  0.60351  0.90946  Biso   1.000  C
  H9       1.0000 0.22010  0.45730  0.04750  Biso   1.000  H
  H10      1.0000 0.77990  0.54270  0.95250  Biso   1.000  H
  C15      1.0000 0.30110  0.27117  0.09106  Biso   1.000  C
  C16      1.0000 0.69890  0.72883  0.90894  Biso   1.000  C
  H11      1.0000 0.22560  0.24790  0.04800  Biso   1.000  H
  H12      1.0000 0.77440  0.75210  0.95200  Biso   1.000  H
  C17      1.0000 0.51240  0.21556  0.21152  Biso   1.000  C
  C18      1.0000 0.48760  0.78444  0.78848  Biso   1.000  C
  H13      1.0000 0.58740  0.15280  0.25430  Biso   1.000  H
  H14      1.0000 0.41260  0.84720  0.74570  Biso   1.000  H
  C19      1.0000 0.51550  0.33907  0.21498  Biso   1.000  C
  C20      1.0000 0.48450  0.66093  0.78502  Biso   1.000  C
  H15      1.0000 0.59180  0.35970  0.25920  Biso   1.000  H
  H16      1.0000 0.40820  0.64030  0.74080  Biso   1.000  H
  C21      1.0000 0.15140  0.04433  0.28875  Biso   1.000  C
  C22      1.0000 0.84860  0.95567  0.71125  Biso   1.000  C
  C23      1.0000 0.97860  0.08560  0.33420  Biso   1.000  C
  C24      1.0000 0.02140  0.91440  0.66580  Biso   1.000  C
  H17      1.0000 0.97560  0.09950  0.41600  Biso   1.000  H
  H18      1.0000 0.02440  0.90050  0.58400  Biso   1.000  H
  H19      1.0000 0.92360  0.02080  0.32420  Biso   1.000  H
  H20      1.0000 0.07640  0.97920  0.67580  Biso   1.000  H
  H21      1.0000 0.92400  0.16350  0.29190  Biso   1.000  H
  H22      1.0000 0.07600  0.83650  0.70810  Biso   1.000  H
  C25      1.0000 0.74200  0.92482  0.13950  Biso   1.000  C
  C26      1.0000 0.25800  0.07518  0.86050  Biso   1.000  C
  C27      1.0000 0.91280  0.88580  0.08973  Biso   1.000  C
  C28      1.0000 0.08720  0.11420  0.91027  Biso   1.000  C
  H23      1.0000 0.98170  0.92300  0.13090  Biso   1.000  H
  H24      1.0000 0.01830  0.07700  0.86910  Biso   1.000  H
  H25      1.0000 0.91590  0.91450  0.00820  Biso   1.000  H
  H26      1.0000 0.08410  0.08550  0.99180  Biso   1.000  H
  H27      1.0000 0.95210  0.79460  0.09770  Biso   1.000  H
  H28      1.0000 0.04790  0.20540  0.90230  Biso   1.000  H
  N1       1.0000 0.40990  0.81902  0.14720  Biso   1.000  N
  N2       1.0000 0.59010  0.18098  0.85280  Biso   1.000  N
  N3       1.0000 0.40760  0.18126  0.15010  Biso   1.000  N
  N4       1.0000 0.59240  0.81874  0.84990  Biso   1.000  N
  O1       1.0000 0.17622  0.04564  0.18014  Biso   1.000  O
  O2       1.0000 0.82378  0.95436  0.81986  Biso   1.000  O
  O3       1.0000 0.26360  0.01075  0.35565  Biso   1.000  O
  O4       1.0000 0.73640  0.98925  0.64435  Biso   1.000  O
  O5       1.0000 0.62988  0.96371  0.06744  Biso   1.000  O
  O6       1.0000 0.37012  0.03629  0.93256  Biso   1.000  O
  O7       1.0000 0.71288  0.91743  0.24466  Biso   1.000  O
  O8       1.0000 0.28712  0.08257  0.75534  Biso   1.000  O
  Cu1      1.0000 0.40800  0.00157  0.13693  Biso   1.000  Cu
  Cu2      1.0000 0.59200  0.99843  0.86307  Biso   1.000  Cu
  C29      1.0000 0.77090  0.41810  0.53230  Biso   1.000  C
  C30      1.0000 0.22910  0.58190  0.46770  Biso   1.000  C
  C31      1.0000 0.87450  0.32100  0.59573  Biso   1.000  C
  C32      1.0000 0.12550  0.67900  0.40427  Biso   1.000  C
  H29      1.0000 0.87750  0.23660  0.58570  Biso   1.000  H
  H30      1.0000 0.12250  0.76340  0.41430  Biso   1.000  H
  C33      1.0000 0.97230  0.34830  0.67288  Biso   1.000  C
  C34      1.0000 0.02770  0.65170  0.32712  Biso   1.000  C
  H31      1.0000 0.04350  0.28300  0.71590  Biso   1.000  H
  H32      1.0000 0.95650  0.71700  0.28410  Biso   1.000  H
  C35      1.0000 0.96510  0.47230  0.68673  Biso   1.000  C
  C36      1.0000 0.03490  0.52770  0.31327  Biso   1.000  C
  C37      1.0000 0.86630  0.57000  0.62192  Biso   1.000  C
  C38      1.0000 0.13370  0.43000  0.37808  Biso   1.000  C
  H33      1.0000 0.86610  0.65420  0.63050  Biso   1.000  H
  H34      1.0000 0.13390  0.34580  0.36950  Biso   1.000  H
  C39      1.0000 0.76910  0.54230  0.54517  Biso   1.000  C
  C40      1.0000 0.23090  0.45770  0.45483  Biso   1.000  C
  H35      1.0000 0.70040  0.60790  0.50080  Biso   1.000  H
  H36      1.0000 0.29960  0.39210  0.49920  Biso   1.000  H
  N5       1.0000 0.06230  0.50077  0.77231  Biso   1.000  N
  N6       1.0000 0.93770  0.49923  0.22769  Biso   1.000  N
  O9       1.0000 0.67180  0.39693  0.45734  Biso   1.000  O
  O10      1.0000 0.32820  0.60307  0.54266  Biso   1.000  O
  H37      1.0000 0.65240  0.32740  0.47540  Biso   1.000  H
  H38      1.0000 0.34760  0.67260  0.52460  Biso   1.000  H
  O11      1.0000 0.06950  0.60947  0.77630  Biso   1.000  O
  O12      1.0000 0.93050  0.39053  0.22370  Biso   1.000  O
  O13      1.0000 0.13160  0.41520  0.83938  Biso   1.000  O
  O14      1.0000 0.86840  0.58480  0.16062  Biso   1.000  O
  O15      1.0000 0.31360  0.15819  0.52155  Biso   1.000  O
  O16      1.0000 0.68640  0.84181  0.47845  Biso   1.000  O
  H39      1.0000 0.30500  0.12600  0.58700  Biso   1.000  H
  H40      1.0000 0.69500  0.87400  0.41300  Biso   1.000  H
  H41      1.0000 0.29300  0.11300  0.47700  Biso   1.000  H
  H42      1.0000 0.70700  0.88700  0.52300  Biso   1.000  H
  O17      1.0000 0.62270  0.17469  0.47748  Biso   1.000  O
  O18      1.0000 0.37730  0.82531  0.52252  Biso   1.000  O
  H43      1.0000 0.67700  0.12100  0.52300  Biso   1.000  H
  H44      1.0000 0.32300  0.87900  0.47700  Biso   1.000  H
  H45      1.0000 0.52800  0.17600  0.49300  Biso   1.000  H
  H46      1.0000 0.47200  0.82400  0.50700  Biso   1.000  H
