data_image0
_cell_length_a       12.552
_cell_length_b       11.6557
_cell_length_c       9.4003
_cell_angle_alpha    90
_cell_angle_beta     90
_cell_angle_gamma    90

_symmetry_space_group_name_H-M    "P 1"
_symmetry_int_tables_number       1

loop_
  _symmetry_equiv_pos_as_xyz
  'x, y, z'

loop_
  _atom_site_label
  _atom_site_occupancy
  _atom_site_fract_x
  _atom_site_fract_y
  _atom_site_fract_z
  _atom_site_thermal_displace_type
  _atom_site_B_iso_or_equiv
  _atom_site_type_symbol
  Cu1      1.0000 0.00000  0.50000  0.00000  Biso   1.000  Cu
  Cu2      1.0000 0.50000  0.50000  0.50000  Biso   1.000  Cu
  Cu3      1.0000 0.50000  0.00000  0.50000  Biso   1.000  Cu
  Cu4      1.0000 0.00000  0.00000  0.00000  Biso   1.000  Cu
  N1       1.0000 0.85160  0.45015  0.03764  Biso   1.000  N
  N2       1.0000 0.35160  0.45015  0.46236  Biso   1.000  N
  N3       1.0000 0.64840  0.95015  0.53764  Biso   1.000  N
  N4       1.0000 0.85160  0.04985  0.03764  Biso   1.000  N
  N5       1.0000 0.14840  0.54985  0.96236  Biso   1.000  N
  N6       1.0000 0.64840  0.54985  0.53764  Biso   1.000  N
  N7       1.0000 0.35160  0.04985  0.46236  Biso   1.000  N
  N8       1.0000 0.14840  0.95015  0.96236  Biso   1.000  N
  C1       1.0000 0.76221  0.43811  0.05620  Biso   1.000  C
  C2       1.0000 0.26221  0.43811  0.44380  Biso   1.000  C
  C3       1.0000 0.73779  0.93811  0.55620  Biso   1.000  C
  C4       1.0000 0.76221  0.06189  0.05620  Biso   1.000  C
  C5       1.0000 0.23779  0.56189  0.94380  Biso   1.000  C
  C6       1.0000 0.73779  0.56189  0.55620  Biso   1.000  C
  C7       1.0000 0.26221  0.06189  0.44380  Biso   1.000  C
  C8       1.0000 0.23779  0.93811  0.94380  Biso   1.000  C
  N9       1.0000 0.65720  0.43750  0.05780  Biso   1.000  N
  N10      1.0000 0.15720  0.43750  0.44220  Biso   1.000  N
  N11      1.0000 0.84280  0.93750  0.55780  Biso   1.000  N
  N12      1.0000 0.65720  0.06250  0.05780  Biso   1.000  N
  N13      1.0000 0.34280  0.56250  0.94220  Biso   1.000  N
  N14      1.0000 0.84280  0.56250  0.55780  Biso   1.000  N
  N15      1.0000 0.15720  0.06250  0.44220  Biso   1.000  N
  N16      1.0000 0.34280  0.93750  0.94220  Biso   1.000  N
  N17      1.0000 0.17410  0.37600  0.41400  Biso   1.000  N
  N18      1.0000 0.67410  0.37600  0.08600  Biso   1.000  N
  N19      1.0000 0.32590  0.87600  0.91400  Biso   1.000  N
  N20      1.0000 0.17410  0.12400  0.41400  Biso   1.000  N
  N21      1.0000 0.82590  0.62400  0.58600  Biso   1.000  N
  N22      1.0000 0.32590  0.62400  0.91400  Biso   1.000  N
  N23      1.0000 0.67410  0.12400  0.08600  Biso   1.000  N
  N24      1.0000 0.82590  0.87600  0.58600  Biso   1.000  N
  C9       1.0000 0.60909  0.41764  0.18290  Biso   1.000  C
  C10      1.0000 0.10909  0.41764  0.31710  Biso   1.000  C
  C11      1.0000 0.89091  0.91764  0.68290  Biso   1.000  C
  C12      1.0000 0.60909  0.08236  0.18290  Biso   1.000  C
  C13      1.0000 0.39091  0.58236  0.81710  Biso   1.000  C
  C14      1.0000 0.89091  0.58236  0.68290  Biso   1.000  C
  C15      1.0000 0.10909  0.08236  0.31710  Biso   1.000  C
  C16      1.0000 0.39091  0.91764  0.81710  Biso   1.000  C
  N25      1.0000 0.55560  0.41257  0.28061  Biso   1.000  N
  N26      1.0000 0.05560  0.41257  0.21939  Biso   1.000  N
  N27      1.0000 0.94440  0.91257  0.78061  Biso   1.000  N
  N28      1.0000 0.55560  0.08743  0.28061  Biso   1.000  N
  N29      1.0000 0.44440  0.58743  0.71939  Biso   1.000  N
  N30      1.0000 0.94440  0.58743  0.78061  Biso   1.000  N
  N31      1.0000 0.05560  0.08743  0.21939  Biso   1.000  N
  N32      1.0000 0.44440  0.91257  0.71939  Biso   1.000  N
  N33      1.0000 0.97070  0.64888  0.10639  Biso   1.000  N
  N34      1.0000 0.47070  0.64888  0.39361  Biso   1.000  N
  N35      1.0000 0.52930  0.14888  0.60639  Biso   1.000  N
  N36      1.0000 0.97070  0.85112  0.10639  Biso   1.000  N
  N37      1.0000 0.02930  0.35112  0.89361  Biso   1.000  N
  N38      1.0000 0.52930  0.35112  0.60639  Biso   1.000  N
  N39      1.0000 0.47070  0.85112  0.39361  Biso   1.000  N
  N40      1.0000 0.02930  0.14888  0.89361  Biso   1.000  N
  C17      1.0000 0.99050  0.75000  0.04650  Biso   1.000  C
  C18      1.0000 0.49050  0.75000  0.45350  Biso   1.000  C
  C19      1.0000 0.50950  0.25000  0.54650  Biso   1.000  C
  C20      1.0000 0.00950  0.25000  0.95350  Biso   1.000  C
  H1       1.0000 0.02000  0.75000  0.94900  Biso   1.000  H
  H2       1.0000 0.52000  0.75000  0.55100  Biso   1.000  H
  H3       1.0000 0.48000  0.25000  0.44900  Biso   1.000  H
  H4       1.0000 0.98000  0.25000  0.05100  Biso   1.000  H
  C21      1.0000 0.90780  0.75000  0.30810  Biso   1.000  C
  C22      1.0000 0.40780  0.75000  0.19190  Biso   1.000  C
  C23      1.0000 0.59220  0.25000  0.80810  Biso   1.000  C
  C24      1.0000 0.09220  0.25000  0.69190  Biso   1.000  C
  H5       1.0000 0.87600  0.75000  0.40400  Biso   1.000  H
  H6       1.0000 0.37600  0.75000  0.09600  Biso   1.000  H
  H7       1.0000 0.62400  0.25000  0.90400  Biso   1.000  H
  H8       1.0000 0.12400  0.25000  0.59600  Biso   1.000  H
  C25      1.0000 0.92953  0.64916  0.23803  Biso   1.000  C
  C26      1.0000 0.42953  0.64916  0.26197  Biso   1.000  C
  C27      1.0000 0.57047  0.14916  0.73803  Biso   1.000  C
  C28      1.0000 0.92953  0.85084  0.23803  Biso   1.000  C
  C29      1.0000 0.07047  0.35084  0.76197  Biso   1.000  C
  C30      1.0000 0.57047  0.35084  0.73803  Biso   1.000  C
  C31      1.0000 0.42953  0.85084  0.26197  Biso   1.000  C
  C32      1.0000 0.07047  0.14916  0.76197  Biso   1.000  C
  H9       1.0000 0.91820  0.57640  0.28100  Biso   1.000  H
  H10      1.0000 0.41820  0.57640  0.21900  Biso   1.000  H
  H11      1.0000 0.58180  0.07640  0.78100  Biso   1.000  H
  H12      1.0000 0.91820  0.92360  0.28100  Biso   1.000  H
  H13      1.0000 0.08180  0.42360  0.71900  Biso   1.000  H
  H14      1.0000 0.58180  0.42360  0.78100  Biso   1.000  H
  H15      1.0000 0.41820  0.92360  0.21900  Biso   1.000  H
  H16      1.0000 0.08180  0.07640  0.71900  Biso   1.000  H
  N41      1.0000 0.17420  0.75000  0.33990  Biso   1.000  N
  N42      1.0000 0.67420  0.75000  0.16010  Biso   1.000  N
  N43      1.0000 0.32580  0.25000  0.83990  Biso   1.000  N
  N44      1.0000 0.82580  0.25000  0.66010  Biso   1.000  N
  C33      1.0000 0.17420  0.75000  0.46300  Biso   1.000  C
  C34      1.0000 0.67420  0.75000  0.03700  Biso   1.000  C
  C35      1.0000 0.32580  0.25000  0.96300  Biso   1.000  C
  C36      1.0000 0.82580  0.25000  0.53700  Biso   1.000  C
  C37      1.0000 0.17470  0.75000  0.61350  Biso   1.000  C
  C38      1.0000 0.67470  0.75000  0.88650  Biso   1.000  C
  C39      1.0000 0.32530  0.25000  0.11350  Biso   1.000  C
  C40      1.0000 0.82530  0.25000  0.38650  Biso   1.000  C
  H17      1.0000 0.15600  0.67340  0.64830  Biso   1.000  H
  H18      1.0000 0.65600  0.67340  0.85170  Biso   1.000  H
  H19      1.0000 0.34400  0.17340  0.14830  Biso   1.000  H
  H20      1.0000 0.15600  0.82660  0.64830  Biso   1.000  H
  H21      1.0000 0.84400  0.32660  0.35170  Biso   1.000  H
  H22      1.0000 0.34400  0.32660  0.14830  Biso   1.000  H
  H23      1.0000 0.65600  0.82660  0.85170  Biso   1.000  H
  H24      1.0000 0.84400  0.17340  0.35170  Biso   1.000  H
  H25      1.0000 0.12260  0.80580  0.64850  Biso   1.000  H
  H26      1.0000 0.62260  0.80580  0.85150  Biso   1.000  H
  H27      1.0000 0.37740  0.30580  0.14850  Biso   1.000  H
  H28      1.0000 0.12260  0.69420  0.64850  Biso   1.000  H
  H29      1.0000 0.87740  0.19420  0.35150  Biso   1.000  H
  H30      1.0000 0.37740  0.19420  0.14850  Biso   1.000  H
  H31      1.0000 0.62260  0.69420  0.85150  Biso   1.000  H
  H32      1.0000 0.87740  0.30580  0.35150  Biso   1.000  H
  H33      1.0000 0.24590  0.77080  0.64780  Biso   1.000  H
  H34      1.0000 0.74590  0.77080  0.85220  Biso   1.000  H
  H35      1.0000 0.25410  0.27080  0.14780  Biso   1.000  H
  H36      1.0000 0.24590  0.72920  0.64780  Biso   1.000  H
  H37      1.0000 0.75410  0.22920  0.35220  Biso   1.000  H
  H38      1.0000 0.25410  0.22920  0.14780  Biso   1.000  H
  H39      1.0000 0.74590  0.72920  0.85220  Biso   1.000  H
  H40      1.0000 0.75410  0.27080  0.35220  Biso   1.000  H
