data_image0
_cell_length_a       13.5402
_cell_length_b       11.3945
_cell_length_c       16.0434
_cell_angle_alpha    90
_cell_angle_beta     90
_cell_angle_gamma    90

_symmetry_space_group_name_H-M    "P 1"
_symmetry_int_tables_number       1

loop_
  _symmetry_equiv_pos_as_xyz
  'x, y, z'

loop_
  _atom_site_label
  _atom_site_occupancy
  _atom_site_fract_x
  _atom_site_fract_y
  _atom_site_fract_z
  _atom_site_thermal_displace_type
  _atom_site_B_iso_or_equiv
  _atom_site_type_symbol
  Cu1      1.0000 0.75000  0.50000  0.19142  Biso   1.000  Cu
  Cu2      1.0000 0.25000  0.50000  0.30858  Biso   1.000  Cu
  Cu3      1.0000 0.25000  0.50000  0.80858  Biso   1.000  Cu
  Cu4      1.0000 0.75000  0.50000  0.69142  Biso   1.000  Cu
  O1       1.0000 0.66040  0.25980  0.35924  Biso   1.000  O
  O2       1.0000 0.83960  0.74020  0.35924  Biso   1.000  O
  O3       1.0000 0.33960  0.25980  0.14076  Biso   1.000  O
  O4       1.0000 0.16040  0.74020  0.14076  Biso   1.000  O
  O5       1.0000 0.33960  0.74020  0.64076  Biso   1.000  O
  O6       1.0000 0.16040  0.25980  0.64076  Biso   1.000  O
  O7       1.0000 0.66040  0.74020  0.85924  Biso   1.000  O
  O8       1.0000 0.83960  0.25980  0.85924  Biso   1.000  O
  O9       1.0000 0.83971  0.32750  0.21168  Biso   1.000  O
  O10      1.0000 0.66029  0.67250  0.21168  Biso   1.000  O
  O11      1.0000 0.16029  0.32750  0.28832  Biso   1.000  O
  O12      1.0000 0.33971  0.67250  0.28832  Biso   1.000  O
  O13      1.0000 0.16029  0.67250  0.78832  Biso   1.000  O
  O14      1.0000 0.33971  0.32750  0.78832  Biso   1.000  O
  O15      1.0000 0.83971  0.67250  0.71168  Biso   1.000  O
  O16      1.0000 0.66029  0.32750  0.71168  Biso   1.000  O
  O17      1.0000 0.67072  0.41560  0.27631  Biso   1.000  O
  O18      1.0000 0.82928  0.58440  0.27631  Biso   1.000  O
  O19      1.0000 0.32928  0.41560  0.22369  Biso   1.000  O
  O20      1.0000 0.17072  0.58440  0.22369  Biso   1.000  O
  O21      1.0000 0.32928  0.58440  0.72369  Biso   1.000  O
  O22      1.0000 0.17072  0.41560  0.72369  Biso   1.000  O
  O23      1.0000 0.67072  0.58440  0.77631  Biso   1.000  O
  O24      1.0000 0.82928  0.41560  0.77631  Biso   1.000  O
  N1       1.0000 0.83060  0.17200  0.30047  Biso   1.000  N
  N2       1.0000 0.66940  0.82800  0.30047  Biso   1.000  N
  N3       1.0000 0.16940  0.17200  0.19953  Biso   1.000  N
  N4       1.0000 0.33060  0.82800  0.19953  Biso   1.000  N
  N5       1.0000 0.16940  0.82800  0.69953  Biso   1.000  N
  N6       1.0000 0.33060  0.17200  0.69953  Biso   1.000  N
  N7       1.0000 0.83060  0.82800  0.80047  Biso   1.000  N
  N8       1.0000 0.66940  0.17200  0.80047  Biso   1.000  N
  H1       1.0000 0.79620  0.14140  0.33990  Biso   1.000  H
  H2       1.0000 0.70380  0.85860  0.33990  Biso   1.000  H
  H3       1.0000 0.20380  0.14140  0.16010  Biso   1.000  H
  H4       1.0000 0.29620  0.85860  0.16010  Biso   1.000  H
  H5       1.0000 0.20380  0.85860  0.66010  Biso   1.000  H
  H6       1.0000 0.29620  0.14140  0.66010  Biso   1.000  H
  H7       1.0000 0.79620  0.85860  0.83990  Biso   1.000  H
  H8       1.0000 0.70380  0.14140  0.83990  Biso   1.000  H
  N9       1.0000 0.66840  0.43880  0.09661  Biso   1.000  N
  N10      1.0000 0.83160  0.56120  0.09661  Biso   1.000  N
  N11      1.0000 0.33160  0.43880  0.40339  Biso   1.000  N
  N12      1.0000 0.16840  0.56120  0.40339  Biso   1.000  N
  N13      1.0000 0.33160  0.56120  0.90339  Biso   1.000  N
  N14      1.0000 0.16840  0.43880  0.90339  Biso   1.000  N
  N15      1.0000 0.66840  0.56120  0.59661  Biso   1.000  N
  N16      1.0000 0.83160  0.43880  0.59661  Biso   1.000  N
  C1       1.0000 0.91750  0.11140  0.27510  Biso   1.000  C
  C2       1.0000 0.58250  0.88860  0.27510  Biso   1.000  C
  C3       1.0000 0.08250  0.11140  0.22490  Biso   1.000  C
  C4       1.0000 0.41750  0.88860  0.22490  Biso   1.000  C
  C5       1.0000 0.08250  0.88860  0.72490  Biso   1.000  C
  C6       1.0000 0.41750  0.11140  0.72490  Biso   1.000  C
  C7       1.0000 0.91750  0.88860  0.77510  Biso   1.000  C
  C8       1.0000 0.58250  0.11140  0.77510  Biso   1.000  C
  C9       1.0000 0.00000  0.17290  0.25000  Biso   1.000  C
  C10      1.0000 0.50000  0.82710  0.25000  Biso   1.000  C
  C11      1.0000 0.00000  0.82710  0.75000  Biso   1.000  C
  C12      1.0000 0.50000  0.17290  0.75000  Biso   1.000  C
  H9       1.0000 0.00000  0.25450  0.25000  Biso   1.000  H
  H10      1.0000 0.50000  0.74550  0.25000  Biso   1.000  H
  H11      1.0000 0.00000  0.74550  0.75000  Biso   1.000  H
  H12      1.0000 0.50000  0.25450  0.75000  Biso   1.000  H
  C13      1.0000 0.70270  0.46680  0.02090  Biso   1.000  C
  C14      1.0000 0.79730  0.53320  0.02090  Biso   1.000  C
  C15      1.0000 0.29730  0.46680  0.47910  Biso   1.000  C
  C16      1.0000 0.20270  0.53320  0.47910  Biso   1.000  C
  C17      1.0000 0.29730  0.53320  0.97910  Biso   1.000  C
  C18      1.0000 0.20270  0.46680  0.97910  Biso   1.000  C
  C19      1.0000 0.70270  0.53320  0.52090  Biso   1.000  C
  C20      1.0000 0.79730  0.46680  0.52090  Biso   1.000  C
  C21      1.0000 0.91700  0.99040  0.27690  Biso   1.000  C
  C22      1.0000 0.58300  0.00960  0.27690  Biso   1.000  C
  C23      1.0000 0.08300  0.99040  0.22310  Biso   1.000  C
  C24      1.0000 0.41700  0.00960  0.22310  Biso   1.000  C
  C25      1.0000 0.08300  0.00960  0.72310  Biso   1.000  C
  C26      1.0000 0.41700  0.99040  0.72310  Biso   1.000  C
  C27      1.0000 0.91700  0.00960  0.77690  Biso   1.000  C
  C28      1.0000 0.58300  0.99040  0.77690  Biso   1.000  C
  H13      1.0000 0.86180  0.94960  0.29580  Biso   1.000  H
  H14      1.0000 0.63820  0.05040  0.29580  Biso   1.000  H
  H15      1.0000 0.13820  0.94960  0.20420  Biso   1.000  H
  H16      1.0000 0.36180  0.05040  0.20420  Biso   1.000  H
  H17      1.0000 0.13820  0.05040  0.70420  Biso   1.000  H
  H18      1.0000 0.36180  0.94960  0.70420  Biso   1.000  H
  H19      1.0000 0.86180  0.05040  0.79580  Biso   1.000  H
  H20      1.0000 0.63820  0.94960  0.79580  Biso   1.000  H
  C29      1.0000 0.65150  0.43590  0.94900  Biso   1.000  C
  C30      1.0000 0.84850  0.56410  0.94900  Biso   1.000  C
  C31      1.0000 0.34850  0.43590  0.55100  Biso   1.000  C
  C32      1.0000 0.15150  0.56410  0.55100  Biso   1.000  C
  C33      1.0000 0.34850  0.56410  0.05100  Biso   1.000  C
  C34      1.0000 0.15150  0.43590  0.05100  Biso   1.000  C
  C35      1.0000 0.65150  0.56410  0.44900  Biso   1.000  C
  C36      1.0000 0.84850  0.43590  0.44900  Biso   1.000  C
  H21      1.0000 0.67520  0.45750  0.89670  Biso   1.000  H
  H22      1.0000 0.82480  0.54250  0.89670  Biso   1.000  H
  H23      1.0000 0.32480  0.45750  0.60330  Biso   1.000  H
  H24      1.0000 0.17520  0.54250  0.60330  Biso   1.000  H
  H25      1.0000 0.32480  0.54250  0.10330  Biso   1.000  H
  H26      1.0000 0.17520  0.45750  0.10330  Biso   1.000  H
  H27      1.0000 0.67520  0.54250  0.39670  Biso   1.000  H
  H28      1.0000 0.82480  0.45750  0.39670  Biso   1.000  H
  C37      1.0000 0.00000  0.93100  0.25000  Biso   1.000  C
  C38      1.0000 0.50000  0.06900  0.25000  Biso   1.000  C
  C39      1.0000 0.00000  0.06900  0.75000  Biso   1.000  C
  C40      1.0000 0.50000  0.93100  0.75000  Biso   1.000  C
  H29      1.0000 0.00000  0.84940  0.25000  Biso   1.000  H
  H30      1.0000 0.50000  0.15060  0.25000  Biso   1.000  H
  H31      1.0000 0.00000  0.15060  0.75000  Biso   1.000  H
  H32      1.0000 0.50000  0.84940  0.75000  Biso   1.000  H
  C41      1.0000 0.58330  0.37990  0.10260  Biso   1.000  C
  C42      1.0000 0.91670  0.62010  0.10260  Biso   1.000  C
  C43      1.0000 0.41670  0.37990  0.39740  Biso   1.000  C
  C44      1.0000 0.08330  0.62010  0.39740  Biso   1.000  C
  C45      1.0000 0.41670  0.62010  0.89740  Biso   1.000  C
  C46      1.0000 0.08330  0.37990  0.89740  Biso   1.000  C
  C47      1.0000 0.58330  0.62010  0.60260  Biso   1.000  C
  C48      1.0000 0.91670  0.37990  0.60260  Biso   1.000  C
  H33      1.0000 0.55870  0.36310  0.15540  Biso   1.000  H
  H34      1.0000 0.94130  0.63690  0.15540  Biso   1.000  H
  H35      1.0000 0.44130  0.36310  0.34460  Biso   1.000  H
  H36      1.0000 0.05870  0.63690  0.34460  Biso   1.000  H
  H37      1.0000 0.44130  0.63690  0.84460  Biso   1.000  H
  H38      1.0000 0.05870  0.36310  0.84460  Biso   1.000  H
  H39      1.0000 0.55870  0.63690  0.65540  Biso   1.000  H
  H40      1.0000 0.94130  0.36310  0.65540  Biso   1.000  H
  C49      1.0000 0.79830  0.27290  0.26750  Biso   1.000  C
  C50      1.0000 0.70170  0.72710  0.26750  Biso   1.000  C
  C51      1.0000 0.20170  0.27290  0.23250  Biso   1.000  C
  C52      1.0000 0.29830  0.72710  0.23250  Biso   1.000  C
  C53      1.0000 0.20170  0.72710  0.73250  Biso   1.000  C
  C54      1.0000 0.29830  0.27290  0.73250  Biso   1.000  C
  C55      1.0000 0.79830  0.72710  0.76750  Biso   1.000  C
  C56      1.0000 0.70170  0.27290  0.76750  Biso   1.000  C
  C57      1.0000 0.70010  0.31880  0.30510  Biso   1.000  C
  C58      1.0000 0.79990  0.68120  0.30510  Biso   1.000  C
  C59      1.0000 0.29990  0.31880  0.19490  Biso   1.000  C
  C60      1.0000 0.20010  0.68120  0.19490  Biso   1.000  C
  C61      1.0000 0.29990  0.68120  0.69490  Biso   1.000  C
  C62      1.0000 0.20010  0.31880  0.69490  Biso   1.000  C
  C63      1.0000 0.70010  0.68120  0.80510  Biso   1.000  C
  C64      1.0000 0.79990  0.31880  0.80510  Biso   1.000  C
  C65      1.0000 0.56480  0.37250  0.95660  Biso   1.000  C
  C66      1.0000 0.93520  0.62750  0.95660  Biso   1.000  C
  C67      1.0000 0.43520  0.37250  0.54340  Biso   1.000  C
  C68      1.0000 0.06480  0.62750  0.54340  Biso   1.000  C
  C69      1.0000 0.43520  0.62750  0.04340  Biso   1.000  C
  C70      1.0000 0.06480  0.37250  0.04340  Biso   1.000  C
  C71      1.0000 0.56480  0.62750  0.45660  Biso   1.000  C
  C72      1.0000 0.93520  0.37250  0.45660  Biso   1.000  C
  H41      1.0000 0.52990  0.35000  0.90930  Biso   1.000  H
  H42      1.0000 0.97010  0.65000  0.90930  Biso   1.000  H
  H43      1.0000 0.47010  0.35000  0.59070  Biso   1.000  H
  H44      1.0000 0.02990  0.65000  0.59070  Biso   1.000  H
  H45      1.0000 0.47010  0.65000  0.09070  Biso   1.000  H
  H46      1.0000 0.02990  0.35000  0.09070  Biso   1.000  H
  H47      1.0000 0.52990  0.65000  0.40930  Biso   1.000  H
  H48      1.0000 0.97010  0.35000  0.40930  Biso   1.000  H
  C73      1.0000 0.53070  0.34310  0.03420  Biso   1.000  C
  C74      1.0000 0.96930  0.65690  0.03420  Biso   1.000  C
  C75      1.0000 0.46930  0.34310  0.46580  Biso   1.000  C
  C76      1.0000 0.03070  0.65690  0.46580  Biso   1.000  C
  C77      1.0000 0.46930  0.65690  0.96580  Biso   1.000  C
  C78      1.0000 0.03070  0.34310  0.96580  Biso   1.000  C
  C79      1.0000 0.53070  0.65690  0.53420  Biso   1.000  C
  C80      1.0000 0.96930  0.34310  0.53420  Biso   1.000  C
  H49      1.0000 0.47320  0.29930  0.04050  Biso   1.000  H
  H50      1.0000 0.02680  0.70070  0.04050  Biso   1.000  H
  H51      1.0000 0.52680  0.29930  0.45950  Biso   1.000  H
  H52      1.0000 0.97320  0.70070  0.45950  Biso   1.000  H
  H53      1.0000 0.52680  0.70070  0.95950  Biso   1.000  H
  H54      1.0000 0.97320  0.29930  0.95950  Biso   1.000  H
  H55      1.0000 0.47320  0.70070  0.54050  Biso   1.000  H
  H56      1.0000 0.02680  0.29930  0.54050  Biso   1.000  H
  H57      1.0000 0.85460  0.09580  0.04500  Biso   1.000  H
  H58      1.0000 0.64540  0.90420  0.04500  Biso   1.000  H
  H59      1.0000 0.14540  0.09580  0.45500  Biso   1.000  H
  H60      1.0000 0.35460  0.90420  0.45500  Biso   1.000  H
  H61      1.0000 0.14540  0.90420  0.95500  Biso   1.000  H
  H62      1.0000 0.35460  0.09580  0.95500  Biso   1.000  H
  H63      1.0000 0.85460  0.90420  0.54500  Biso   1.000  H
  H64      1.0000 0.64540  0.09580  0.54500  Biso   1.000  H
  H65      1.0000 0.77110  0.12680  0.10900  Biso   1.000  H
  H66      1.0000 0.72890  0.87320  0.10900  Biso   1.000  H
  H67      1.0000 0.22890  0.12680  0.39100  Biso   1.000  H
  H68      1.0000 0.27110  0.87320  0.39100  Biso   1.000  H
  H69      1.0000 0.22890  0.87320  0.89100  Biso   1.000  H
  H70      1.0000 0.27110  0.12680  0.89100  Biso   1.000  H
  H71      1.0000 0.77110  0.87320  0.60900  Biso   1.000  H
  H72      1.0000 0.72890  0.12680  0.60900  Biso   1.000  H
  H73      1.0000 0.77540  0.19110  0.02270  Biso   1.000  H
  H74      1.0000 0.72460  0.80890  0.02270  Biso   1.000  H
  H75      1.0000 0.22460  0.19110  0.47730  Biso   1.000  H
  H76      1.0000 0.27540  0.80890  0.47730  Biso   1.000  H
  H77      1.0000 0.22460  0.80890  0.97730  Biso   1.000  H
  H78      1.0000 0.27540  0.19110  0.97730  Biso   1.000  H
  H79      1.0000 0.77540  0.80890  0.52270  Biso   1.000  H
  H80      1.0000 0.72460  0.19110  0.52270  Biso   1.000  H
  S1       1.0000 0.70770  0.00440  0.00550  Biso   1.000  S
  S2       1.0000 0.79230  0.99560  0.00550  Biso   1.000  S
  S3       1.0000 0.29230  0.00440  0.49450  Biso   1.000  S
  S4       1.0000 0.20770  0.99560  0.49450  Biso   1.000  S
  S5       1.0000 0.29230  0.99560  0.99450  Biso   1.000  S
  S6       1.0000 0.20770  0.00440  0.99450  Biso   1.000  S
  S7       1.0000 0.70770  0.99560  0.50550  Biso   1.000  S
  S8       1.0000 0.79230  0.00440  0.50550  Biso   1.000  S
  O25      1.0000 0.75000  0.00000  0.92270  Biso   1.000  O
  O26      1.0000 0.25000  0.00000  0.57730  Biso   1.000  O
  O27      1.0000 0.25000  0.00000  0.07730  Biso   1.000  O
  O28      1.0000 0.75000  0.00000  0.42270  Biso   1.000  O
  C81      1.0000 0.75800  0.90300  0.07300  Biso   1.000  C
  C82      1.0000 0.74200  0.09700  0.07300  Biso   1.000  C
  C83      1.0000 0.24200  0.90300  0.42700  Biso   1.000  C
  C84      1.0000 0.25800  0.09700  0.42700  Biso   1.000  C
  C85      1.0000 0.24200  0.09700  0.92700  Biso   1.000  C
  C86      1.0000 0.25800  0.90300  0.92700  Biso   1.000  C
  C87      1.0000 0.75800  0.09700  0.57300  Biso   1.000  C
  C88      1.0000 0.74200  0.90300  0.57300  Biso   1.000  C
  H81      1.0000 0.72020  0.83170  0.07110  Biso   1.000  H
  H82      1.0000 0.77980  0.16830  0.07110  Biso   1.000  H
  H83      1.0000 0.27980  0.83170  0.42890  Biso   1.000  H
  H84      1.0000 0.22020  0.16830  0.42890  Biso   1.000  H
  H85      1.0000 0.27980  0.16830  0.92890  Biso   1.000  H
  H86      1.0000 0.22020  0.83170  0.92890  Biso   1.000  H
  H87      1.0000 0.72020  0.16830  0.57110  Biso   1.000  H
  H88      1.0000 0.77980  0.83170  0.57110  Biso   1.000  H
  H89      1.0000 0.75670  0.93370  0.12890  Biso   1.000  H
  H90      1.0000 0.74330  0.06630  0.12890  Biso   1.000  H
  H91      1.0000 0.24330  0.93370  0.37110  Biso   1.000  H
  H92      1.0000 0.25670  0.06630  0.37110  Biso   1.000  H
  H93      1.0000 0.24330  0.06630  0.87110  Biso   1.000  H
  H94      1.0000 0.25670  0.93370  0.87110  Biso   1.000  H
  H95      1.0000 0.75670  0.06630  0.62890  Biso   1.000  H
  H96      1.0000 0.74330  0.93370  0.62890  Biso   1.000  H
  H97      1.0000 0.82500  0.88680  0.05730  Biso   1.000  H
  H98      1.0000 0.67500  0.11320  0.05730  Biso   1.000  H
  H99      1.0000 0.17500  0.88680  0.44270  Biso   1.000  H
  H100     1.0000 0.32500  0.11320  0.44270  Biso   1.000  H
  H101     1.0000 0.17500  0.11320  0.94270  Biso   1.000  H
  H102     1.0000 0.32500  0.88680  0.94270  Biso   1.000  H
  H103     1.0000 0.82500  0.11320  0.55730  Biso   1.000  H
  H104     1.0000 0.67500  0.88680  0.55730  Biso   1.000  H
  C89      1.0000 0.78700  0.11800  0.05100  Biso   1.000  C
  C90      1.0000 0.71300  0.88200  0.05100  Biso   1.000  C
  C91      1.0000 0.21300  0.11800  0.44900  Biso   1.000  C
  C92      1.0000 0.28700  0.88200  0.44900  Biso   1.000  C
  C93      1.0000 0.21300  0.88200  0.94900  Biso   1.000  C
  C94      1.0000 0.28700  0.11800  0.94900  Biso   1.000  C
  C95      1.0000 0.78700  0.88200  0.55100  Biso   1.000  C
  C96      1.0000 0.71300  0.11800  0.55100  Biso   1.000  C
