data_image0
_cell_length_a       8.4018
_cell_length_b       17.937
_cell_length_c       19.719
_cell_angle_alpha    90
_cell_angle_beta     94.26
_cell_angle_gamma    90

_symmetry_space_group_name_H-M    "P 1"
_symmetry_int_tables_number       1

loop_
  _symmetry_equiv_pos_as_xyz
  'x, y, z'

loop_
  _atom_site_label
  _atom_site_occupancy
  _atom_site_fract_x
  _atom_site_fract_y
  _atom_site_fract_z
  _atom_site_thermal_displace_type
  _atom_site_B_iso_or_equiv
  _atom_site_type_symbol
  Cu1      1.0000 0.30268  0.08286  0.20057  Biso   1.000  Cu
  Cu2      1.0000 0.69732  0.58286  0.29943  Biso   1.000  Cu
  Cu3      1.0000 0.69732  0.91714  0.79943  Biso   1.000  Cu
  Cu4      1.0000 0.30268  0.41714  0.70057  Biso   1.000  Cu
  O1       1.0000 0.27596  0.97807  0.30012  Biso   1.000  O
  O2       1.0000 0.72404  0.47807  0.19988  Biso   1.000  O
  O3       1.0000 0.72404  0.02193  0.69988  Biso   1.000  O
  O4       1.0000 0.27596  0.52193  0.80012  Biso   1.000  O
  O5       1.0000 0.10806  0.03258  0.22363  Biso   1.000  O
  O6       1.0000 0.89194  0.53258  0.27637  Biso   1.000  O
  O7       1.0000 0.89194  0.96742  0.77637  Biso   1.000  O
  O8       1.0000 0.10806  0.46742  0.72363  Biso   1.000  O
  O9       1.0000 0.35726  0.49304  0.63601  Biso   1.000  O
  O10      1.0000 0.64274  0.99304  0.86399  Biso   1.000  O
  O11      1.0000 0.64274  0.50696  0.36399  Biso   1.000  O
  O12      1.0000 0.35726  0.00696  0.13601  Biso   1.000  O
  O13      1.0000 0.16330  0.46976  0.55435  Biso   1.000  O
  O14      1.0000 0.83670  0.96976  0.94565  Biso   1.000  O
  O15      1.0000 0.83670  0.53024  0.44565  Biso   1.000  O
  O16      1.0000 0.16330  0.03024  0.05435  Biso   1.000  O
  O17      1.0000 0.16470  0.16402  0.11956  Biso   1.000  O
  O18      1.0000 0.83530  0.66402  0.38044  Biso   1.000  O
  O19      1.0000 0.83530  0.83598  0.88044  Biso   1.000  O
  O20      1.0000 0.16470  0.33598  0.61956  Biso   1.000  O
  N1       1.0000 0.61440  0.78193  0.42086  Biso   1.000  N
  N2       1.0000 0.38560  0.28193  0.07914  Biso   1.000  N
  N3       1.0000 0.38560  0.21807  0.57914  Biso   1.000  N
  N4       1.0000 0.61440  0.71807  0.92086  Biso   1.000  N
  N5       1.0000 0.45170  0.86899  0.38186  Biso   1.000  N
  N6       1.0000 0.54830  0.36899  0.11814  Biso   1.000  N
  N7       1.0000 0.54830  0.13101  0.61814  Biso   1.000  N
  N8       1.0000 0.45170  0.63101  0.88186  Biso   1.000  N
  H1       1.0000 0.41780  0.90880  0.36110  Biso   1.000  H
  H2       1.0000 0.58220  0.40880  0.13890  Biso   1.000  H
  H3       1.0000 0.58220  0.09120  0.63890  Biso   1.000  H
  H4       1.0000 0.41780  0.59120  0.86110  Biso   1.000  H
  N9       1.0000 0.35970  0.82244  0.41601  Biso   1.000  N
  N10      1.0000 0.64030  0.32244  0.08399  Biso   1.000  N
  N11      1.0000 0.64030  0.17756  0.58399  Biso   1.000  N
  N12      1.0000 0.35970  0.67756  0.91601  Biso   1.000  N
  N13      1.0000 0.52090  0.12840  0.19954  Biso   1.000  N
  N14      1.0000 0.47910  0.62840  0.30046  Biso   1.000  N
  N15      1.0000 0.47910  0.87160  0.80046  Biso   1.000  N
  N16      1.0000 0.52090  0.37160  0.69954  Biso   1.000  N
  N17      1.0000 0.27430  0.16703  0.26699  Biso   1.000  N
  N18      1.0000 0.72570  0.66703  0.23301  Biso   1.000  N
  N19      1.0000 0.72570  0.83297  0.73301  Biso   1.000  N
  N20      1.0000 0.27430  0.33297  0.76699  Biso   1.000  N
  C1       1.0000 0.13830  0.98905  0.27438  Biso   1.000  C
  C2       1.0000 0.86170  0.48905  0.22562  Biso   1.000  C
  C3       1.0000 0.86170  0.01095  0.72562  Biso   1.000  C
  C4       1.0000 0.13830  0.51095  0.77438  Biso   1.000  C
  C5       1.0000 0.99770  0.95170  0.30185  Biso   1.000  C
  C6       1.0000 0.00230  0.45170  0.19815  Biso   1.000  C
  C7       1.0000 0.00230  0.04830  0.69815  Biso   1.000  C
  C8       1.0000 0.99770  0.54830  0.80185  Biso   1.000  C
  C9       1.0000 0.01880  0.89532  0.34949  Biso   1.000  C
  C10      1.0000 0.98120  0.39532  0.15051  Biso   1.000  C
  C11      1.0000 0.98120  0.10468  0.65051  Biso   1.000  C
  C12      1.0000 0.01880  0.60468  0.84949  Biso   1.000  C
  H5       1.0000 0.12160  0.88020  0.36410  Biso   1.000  H
  H6       1.0000 0.87840  0.38020  0.13590  Biso   1.000  H
  H7       1.0000 0.87840  0.11980  0.63590  Biso   1.000  H
  H8       1.0000 0.12160  0.61980  0.86410  Biso   1.000  H
  C13      1.0000 0.89000  0.86126  0.37564  Biso   1.000  C
  C14      1.0000 0.11000  0.36126  0.12436  Biso   1.000  C
  C15      1.0000 0.11000  0.13874  0.62436  Biso   1.000  C
  C16      1.0000 0.89000  0.63874  0.87564  Biso   1.000  C
  H9       1.0000 0.90690  0.82350  0.40770  Biso   1.000  H
  H10      1.0000 0.09310  0.32350  0.09230  Biso   1.000  H
  H11      1.0000 0.09310  0.17650  0.59230  Biso   1.000  H
  H12      1.0000 0.90690  0.67650  0.90770  Biso   1.000  H
  C17      1.0000 0.73590  0.88242  0.35487  Biso   1.000  C
  C18      1.0000 0.26410  0.38242  0.14513  Biso   1.000  C
  C19      1.0000 0.26410  0.11758  0.64513  Biso   1.000  C
  C20      1.0000 0.73590  0.61758  0.85487  Biso   1.000  C
  C21      1.0000 0.71300  0.93932  0.30758  Biso   1.000  C
  C22      1.0000 0.28700  0.43932  0.19242  Biso   1.000  C
  C23      1.0000 0.28700  0.06068  0.69242  Biso   1.000  C
  C24      1.0000 0.71300  0.56068  0.80758  Biso   1.000  C
  H13      1.0000 0.61020  0.95490  0.29360  Biso   1.000  H
  H14      1.0000 0.38980  0.45490  0.20640  Biso   1.000  H
  H15      1.0000 0.38980  0.04510  0.70640  Biso   1.000  H
  H16      1.0000 0.61020  0.54510  0.79360  Biso   1.000  H
  C25      1.0000 0.84320  0.97278  0.28127  Biso   1.000  C
  C26      1.0000 0.15680  0.47278  0.21873  Biso   1.000  C
  C27      1.0000 0.15680  0.02722  0.71873  Biso   1.000  C
  C28      1.0000 0.84320  0.52722  0.78127  Biso   1.000  C
  H17      1.0000 0.82650  0.01030  0.24900  Biso   1.000  H
  H18      1.0000 0.17350  0.51030  0.25100  Biso   1.000  H
  H19      1.0000 0.17350  0.98970  0.75100  Biso   1.000  H
  H20      1.0000 0.82650  0.48970  0.74900  Biso   1.000  H
  C29      1.0000 0.60280  0.84471  0.38470  Biso   1.000  C
  C30      1.0000 0.39720  0.34471  0.11530  Biso   1.000  C
  C31      1.0000 0.39720  0.15529  0.61530  Biso   1.000  C
  C32      1.0000 0.60280  0.65529  0.88470  Biso   1.000  C
  C33      1.0000 0.46310  0.77084  0.43886  Biso   1.000  C
  C34      1.0000 0.53690  0.27084  0.06114  Biso   1.000  C
  C35      1.0000 0.53690  0.22916  0.56114  Biso   1.000  C
  C36      1.0000 0.46310  0.72916  0.93886  Biso   1.000  C
  C37      1.0000 0.41570  0.70566  0.47803  Biso   1.000  C
  C38      1.0000 0.58430  0.20566  0.02197  Biso   1.000  C
  C39      1.0000 0.58430  0.29434  0.52197  Biso   1.000  C
  C40      1.0000 0.41570  0.79434  0.97803  Biso   1.000  C
  C41      1.0000 0.52910  0.65514  0.50375  Biso   1.000  C
  C42      1.0000 0.47090  0.15514  0.99625  Biso   1.000  C
  C43      1.0000 0.47090  0.34486  0.49625  Biso   1.000  C
  C44      1.0000 0.52910  0.84486  0.00375  Biso   1.000  C
  H21      1.0000 0.63650  0.66380  0.49810  Biso   1.000  H
  H22      1.0000 0.36350  0.16380  0.00190  Biso   1.000  H
  H23      1.0000 0.36350  0.33620  0.50190  Biso   1.000  H
  H24      1.0000 0.63650  0.83620  0.99810  Biso   1.000  H
  C45      1.0000 0.21010  0.62761  0.51897  Biso   1.000  C
  C46      1.0000 0.78990  0.12761  0.98103  Biso   1.000  C
  C47      1.0000 0.78990  0.37239  0.48103  Biso   1.000  C
  C48      1.0000 0.21010  0.87239  0.01897  Biso   1.000  C
  H25      1.0000 0.10260  0.61820  0.52350  Biso   1.000  H
  H26      1.0000 0.89740  0.11820  0.97650  Biso   1.000  H
  H27      1.0000 0.89740  0.38180  0.47650  Biso   1.000  H
  H28      1.0000 0.10260  0.88180  0.02350  Biso   1.000  H
  C49      1.0000 0.32450  0.57687  0.54453  Biso   1.000  C
  C50      1.0000 0.67550  0.07687  0.95547  Biso   1.000  C
  C51      1.0000 0.67550  0.42313  0.45547  Biso   1.000  C
  C52      1.0000 0.32450  0.92313  0.04453  Biso   1.000  C
  C53      1.0000 0.48510  0.59229  0.53765  Biso   1.000  C
  C54      1.0000 0.51490  0.09229  0.96235  Biso   1.000  C
  C55      1.0000 0.51490  0.40771  0.46235  Biso   1.000  C
  C56      1.0000 0.48510  0.90771  0.03765  Biso   1.000  C
  H29      1.0000 0.56310  0.55980  0.55610  Biso   1.000  H
  H30      1.0000 0.43690  0.05980  0.94390  Biso   1.000  H
  H31      1.0000 0.43690  0.44020  0.44390  Biso   1.000  H
  H32      1.0000 0.56310  0.94020  0.05610  Biso   1.000  H
  C57      1.0000 0.25510  0.69173  0.48689  Biso   1.000  C
  C58      1.0000 0.74490  0.19173  0.01311  Biso   1.000  C
  C59      1.0000 0.74490  0.30827  0.51311  Biso   1.000  C
  C60      1.0000 0.25510  0.80827  0.98689  Biso   1.000  C
  H33      1.0000 0.17790  0.72590  0.47100  Biso   1.000  H
  H34      1.0000 0.82210  0.22590  0.02900  Biso   1.000  H
  H35      1.0000 0.82210  0.27410  0.52900  Biso   1.000  H
  H36      1.0000 0.17790  0.77410  0.97100  Biso   1.000  H
  C61      1.0000 0.27590  0.50774  0.58024  Biso   1.000  C
  C62      1.0000 0.72410  0.00774  0.91976  Biso   1.000  C
  C63      1.0000 0.72410  0.49226  0.41976  Biso   1.000  C
  C64      1.0000 0.27590  0.99226  0.08024  Biso   1.000  C
  C65      1.0000 0.64600  0.10515  0.16810  Biso   1.000  C
  C66      1.0000 0.35400  0.60515  0.33190  Biso   1.000  C
  C67      1.0000 0.35400  0.89485  0.83190  Biso   1.000  C
  C68      1.0000 0.64600  0.39485  0.66810  Biso   1.000  C
  H37      1.0000 0.63810  0.06040  0.14420  Biso   1.000  H
  H38      1.0000 0.36190  0.56040  0.35580  Biso   1.000  H
  H39      1.0000 0.36190  0.93960  0.85580  Biso   1.000  H
  H40      1.0000 0.63810  0.43960  0.64420  Biso   1.000  H
  C69      1.0000 0.78850  0.14475  0.16935  Biso   1.000  C
  C70      1.0000 0.21150  0.64475  0.33065  Biso   1.000  C
  C71      1.0000 0.21150  0.85525  0.83065  Biso   1.000  C
  C72      1.0000 0.78850  0.35525  0.66935  Biso   1.000  C
  H41      1.0000 0.87480  0.12610  0.14780  Biso   1.000  H
  H42      1.0000 0.12520  0.62610  0.35220  Biso   1.000  H
  H43      1.0000 0.12520  0.87390  0.85220  Biso   1.000  H
  H44      1.0000 0.87480  0.37390  0.64780  Biso   1.000  H
  C73      1.0000 0.79980  0.21150  0.20281  Biso   1.000  C
  C74      1.0000 0.20020  0.71150  0.29719  Biso   1.000  C
  C75      1.0000 0.20020  0.78850  0.79719  Biso   1.000  C
  C76      1.0000 0.79980  0.28850  0.70281  Biso   1.000  C
  H45      1.0000 0.89350  0.23920  0.20290  Biso   1.000  H
  H46      1.0000 0.10650  0.73920  0.29710  Biso   1.000  H
  H47      1.0000 0.10650  0.76080  0.79710  Biso   1.000  H
  H48      1.0000 0.89350  0.26080  0.70290  Biso   1.000  H
  C77      1.0000 0.67120  0.23860  0.23710  Biso   1.000  C
  C78      1.0000 0.32880  0.73860  0.26290  Biso   1.000  C
  C79      1.0000 0.32880  0.76140  0.76290  Biso   1.000  C
  C80      1.0000 0.67120  0.26140  0.73710  Biso   1.000  C
  C81      1.0000 0.53360  0.19371  0.23486  Biso   1.000  C
  C82      1.0000 0.46640  0.69371  0.26514  Biso   1.000  C
  C83      1.0000 0.46640  0.80629  0.76514  Biso   1.000  C
  C84      1.0000 0.53360  0.30629  0.73486  Biso   1.000  C
  C85      1.0000 0.66770  0.30730  0.27237  Biso   1.000  C
  C86      1.0000 0.33230  0.80730  0.22763  Biso   1.000  C
  C87      1.0000 0.33230  0.69270  0.72763  Biso   1.000  C
  C88      1.0000 0.66770  0.19270  0.77237  Biso   1.000  C
  H49      1.0000 0.75750  0.33780  0.27450  Biso   1.000  H
  H50      1.0000 0.24250  0.83780  0.22550  Biso   1.000  H
  H51      1.0000 0.24250  0.66220  0.72550  Biso   1.000  H
  H52      1.0000 0.75750  0.16220  0.77450  Biso   1.000  H
  C89      1.0000 0.53890  0.32953  0.30262  Biso   1.000  C
  C90      1.0000 0.46110  0.82953  0.19738  Biso   1.000  C
  C91      1.0000 0.46110  0.67047  0.69738  Biso   1.000  C
  C92      1.0000 0.53890  0.17047  0.80262  Biso   1.000  C
  H53      1.0000 0.54050  0.37580  0.32400  Biso   1.000  H
  H54      1.0000 0.45950  0.87580  0.17600  Biso   1.000  H
  H55      1.0000 0.45950  0.62420  0.67600  Biso   1.000  H
  H56      1.0000 0.54050  0.12420  0.82400  Biso   1.000  H
  C93      1.0000 0.39760  0.28425  0.30328  Biso   1.000  C
  C94      1.0000 0.60240  0.78425  0.19672  Biso   1.000  C
  C95      1.0000 0.60240  0.71575  0.69672  Biso   1.000  C
  C96      1.0000 0.39760  0.21575  0.80328  Biso   1.000  C
  C97      1.0000 0.39870  0.21557  0.26942  Biso   1.000  C
  C98      1.0000 0.60130  0.71557  0.23058  Biso   1.000  C
  C99      1.0000 0.60130  0.78443  0.73058  Biso   1.000  C
  C100     1.0000 0.39870  0.28443  0.76942  Biso   1.000  C
  C101     1.0000 0.26110  0.30200  0.33482  Biso   1.000  C
  C102     1.0000 0.73890  0.80200  0.16518  Biso   1.000  C
  C103     1.0000 0.73890  0.69800  0.66518  Biso   1.000  C
  C104     1.0000 0.26110  0.19800  0.83482  Biso   1.000  C
  H57      1.0000 0.25370  0.34770  0.35670  Biso   1.000  H
  H58      1.0000 0.74630  0.84770  0.14330  Biso   1.000  H
  H59      1.0000 0.74630  0.65230  0.64330  Biso   1.000  H
  H60      1.0000 0.25370  0.15230  0.85670  Biso   1.000  H
  C105     1.0000 0.13720  0.25300  0.33401  Biso   1.000  C
  C106     1.0000 0.86280  0.75300  0.16599  Biso   1.000  C
  C107     1.0000 0.86280  0.74700  0.66599  Biso   1.000  C
  C108     1.0000 0.13720  0.24700  0.83401  Biso   1.000  C
  H61      1.0000 0.04660  0.26460  0.35630  Biso   1.000  H
  H62      1.0000 0.95340  0.76460  0.14370  Biso   1.000  H
  H63      1.0000 0.95340  0.73540  0.64370  Biso   1.000  H
  H64      1.0000 0.04660  0.23540  0.85630  Biso   1.000  H
  C109     1.0000 0.14630  0.18407  0.29917  Biso   1.000  C
  C110     1.0000 0.85370  0.68407  0.20083  Biso   1.000  C
  C111     1.0000 0.85370  0.81593  0.70083  Biso   1.000  C
  C112     1.0000 0.14630  0.31593  0.79917  Biso   1.000  C
  H65      1.0000 0.06170  0.15060  0.29890  Biso   1.000  H
  H66      1.0000 0.93830  0.65060  0.20110  Biso   1.000  H
  H67      1.0000 0.93830  0.84940  0.70110  Biso   1.000  H
  H68      1.0000 0.06170  0.34940  0.79890  Biso   1.000  H
  H69      1.0000 0.22870  0.19700  0.09620  Biso   1.000  H
  H70      1.0000 0.77130  0.69700  0.40380  Biso   1.000  H
  H71      1.0000 0.77130  0.80300  0.90380  Biso   1.000  H
  H72      1.0000 0.22870  0.30300  0.59620  Biso   1.000  H
  H73      1.0000 0.16240  0.13440  0.08670  Biso   1.000  H
  H74      1.0000 0.83760  0.63440  0.41330  Biso   1.000  H
  H75      1.0000 0.83760  0.86560  0.91330  Biso   1.000  H
  H76      1.0000 0.16240  0.36560  0.58670  Biso   1.000  H
  O21      1.0000 0.85990  0.96347  0.09828  Biso   1.000  O
  O22      1.0000 0.14010  0.46347  0.40172  Biso   1.000  O
  O23      1.0000 0.14010  0.03653  0.90172  Biso   1.000  O
  O24      1.0000 0.85990  0.53653  0.59828  Biso   1.000  O
  H77      1.0000 0.95190  0.97130  0.12640  Biso   1.000  H
  H78      1.0000 0.04810  0.47130  0.37360  Biso   1.000  H
  H79      1.0000 0.04810  0.02870  0.87360  Biso   1.000  H
  H80      1.0000 0.95190  0.52870  0.62640  Biso   1.000  H
  H81      1.0000 0.87170  0.99020  0.06220  Biso   1.000  H
  H82      1.0000 0.12830  0.49020  0.43780  Biso   1.000  H
  H83      1.0000 0.12830  0.00980  0.93780  Biso   1.000  H
  H84      1.0000 0.87170  0.50980  0.56220  Biso   1.000  H
