data_image0
_cell_length_a       9.3162
_cell_length_b       10.129
_cell_length_c       16.4352
_cell_angle_alpha    90.43
_cell_angle_beta     100.711
_cell_angle_gamma    110.753

_symmetry_space_group_name_H-M    "P 1"
_symmetry_int_tables_number       1

loop_
  _symmetry_equiv_pos_as_xyz
  'x, y, z'

loop_
  _atom_site_label
  _atom_site_occupancy
  _atom_site_fract_x
  _atom_site_fract_y
  _atom_site_fract_z
  _atom_site_thermal_displace_type
  _atom_site_B_iso_or_equiv
  _atom_site_type_symbol
  C1       1.0000 0.15170  0.65900  0.14810  Biso   1.000  C
  C2       1.0000 0.84830  0.34100  0.85190  Biso   1.000  C
  C3       1.0000 0.10500  0.54180  0.20680  Biso   1.000  C
  C4       1.0000 0.89500  0.45820  0.79320  Biso   1.000  C
  C5       1.0000 0.21980  0.51770  0.26140  Biso   1.000  C
  C6       1.0000 0.78020  0.48230  0.73860  Biso   1.000  C
  H1       1.0000 0.32320  0.57500  0.26200  Biso   1.000  H
  H2       1.0000 0.67680  0.42500  0.73800  Biso   1.000  H
  C7       1.0000 0.19140  0.41130  0.31710  Biso   1.000  C
  C8       1.0000 0.80860  0.58870  0.68290  Biso   1.000  C
  C9       1.0000 0.32240  0.38520  0.36910  Biso   1.000  C
  C10      1.0000 0.67760  0.61480  0.63090  Biso   1.000  C
  C11      1.0000 0.48620  0.45360  0.36920  Biso   1.000  C
  C12      1.0000 0.51380  0.54640  0.63080  Biso   1.000  C
  H3       1.0000 0.52990  0.52390  0.33550  Biso   1.000  H
  H4       1.0000 0.47010  0.47610  0.66450  Biso   1.000  H
  C13      1.0000 0.57120  0.39330  0.43160  Biso   1.000  C
  C14      1.0000 0.42880  0.60670  0.56840  Biso   1.000  C
  H5       1.0000 0.67990  0.42210  0.44290  Biso   1.000  H
  H6       1.0000 0.32010  0.57790  0.55710  Biso   1.000  H
  C15      1.0000 0.48030  0.29270  0.47140  Biso   1.000  C
  C16      1.0000 0.51970  0.70730  0.52860  Biso   1.000  C
  H7       1.0000 0.51980  0.24560  0.51300  Biso   1.000  H
  H8       1.0000 0.48020  0.75440  0.48700  Biso   1.000  H
  C17      1.0000 0.55940  0.98170  0.36010  Biso   1.000  C
  C18      1.0000 0.44060  0.01830  0.63990  Biso   1.000  C
  C19      1.0000 0.60700  0.11010  0.31050  Biso   1.000  C
  C20      1.0000 0.39300  0.88990  0.68950  Biso   1.000  C
  C21      1.0000 0.49420  0.13140  0.25170  Biso   1.000  C
  C22      1.0000 0.50580  0.86860  0.74830  Biso   1.000  C
  H9       1.0000 0.39280  0.06460  0.24280  Biso   1.000  H
  H10      1.0000 0.60720  0.93540  0.75720  Biso   1.000  H
  C23      1.0000 0.52400  0.24900  0.20430  Biso   1.000  C
  C24      1.0000 0.47600  0.75100  0.79570  Biso   1.000  C
  C25      1.0000 0.39620  0.27070  0.14600  Biso   1.000  C
  C26      1.0000 0.60380  0.72930  0.85400  Biso   1.000  C
  C27      1.0000 0.23090  0.19290  0.13140  Biso   1.000  C
  C28      1.0000 0.76910  0.80710  0.86860  Biso   1.000  C
  H11      1.0000 0.18050  0.11620  0.15950  Biso   1.000  H
  H12      1.0000 0.81950  0.88380  0.84050  Biso   1.000  H
  C29      1.0000 0.15700  0.25390  0.06600  Biso   1.000  C
  C30      1.0000 0.84300  0.74610  0.93400  Biso   1.000  C
  H13      1.0000 0.04950  0.21790  0.04510  Biso   1.000  H
  H14      1.0000 0.95050  0.78210  0.95490  Biso   1.000  H
  C31      1.0000 0.25390  0.36610  0.03730  Biso   1.000  C
  C32      1.0000 0.74610  0.63390  0.96270  Biso   1.000  C
  H15      1.0000 0.22090  0.41630  0.99540  Biso   1.000  H
  H16      1.0000 0.77910  0.58370  0.00460  Biso   1.000  H
  C33      1.0000 0.76140  0.18480  0.07630  Biso   1.000  C
  C34      1.0000 0.23860  0.81520  0.92370  Biso   1.000  C
  H17      1.0000 0.76570  0.27660  0.06730  Biso   1.000  H
  H18      1.0000 0.23430  0.72340  0.93270  Biso   1.000  H
  C35      1.0000 0.70140  0.07510  0.01530  Biso   1.000  C
  C36      1.0000 0.29860  0.92490  0.98470  Biso   1.000  C
  H19      1.0000 0.65950  0.07770  0.95970  Biso   1.000  H
  H20      1.0000 0.34050  0.92230  0.04030  Biso   1.000  H
  C37      1.0000 0.71700  0.96290  0.05420  Biso   1.000  C
  C38      1.0000 0.28300  0.03710  0.94580  Biso   1.000  C
  H21      1.0000 0.68780  0.87160  0.02980  Biso   1.000  H
  H22      1.0000 0.31220  0.12840  0.97020  Biso   1.000  H
  C39      1.0000 0.82530  0.92410  0.19850  Biso   1.000  C
  C40      1.0000 0.17470  0.07590  0.80150  Biso   1.000  C
  C41      1.0000 0.74930  0.77810  0.19080  Biso   1.000  C
  C42      1.0000 0.25070  0.22190  0.80920  Biso   1.000  C
  H23      1.0000 0.66890  0.73510  0.14530  Biso   1.000  H
  H24      1.0000 0.33110  0.26490  0.85470  Biso   1.000  H
  C43      1.0000 0.79220  0.69720  0.24990  Biso   1.000  C
  C44      1.0000 0.20780  0.30280  0.75010  Biso   1.000  C
  H25      1.0000 0.74180  0.59930  0.24350  Biso   1.000  H
  H26      1.0000 0.25820  0.40070  0.75650  Biso   1.000  H
  C45      1.0000 0.91020  0.75910  0.31940  Biso   1.000  C
  C46      1.0000 0.08980  0.24090  0.68060  Biso   1.000  C
  C47      1.0000 0.98320  0.90660  0.32710  Biso   1.000  C
  C48      1.0000 0.01680  0.09340  0.67290  Biso   1.000  C
  H27      1.0000 0.06040  0.95040  0.37370  Biso   1.000  H
  H28      1.0000 0.93960  0.04960  0.62630  Biso   1.000  H
  C49      1.0000 0.94290  0.98810  0.26700  Biso   1.000  C
  C50      1.0000 0.05710  0.01190  0.73300  Biso   1.000  C
  H29      1.0000 0.99460  0.08580  0.27240  Biso   1.000  H
  H30      1.0000 0.00540  0.91420  0.72760  Biso   1.000  H
  C51      1.0000 0.95480  0.66740  0.38150  Biso   1.000  C
  C52      1.0000 0.04520  0.33260  0.61850  Biso   1.000  C
  C53      1.0000 0.07080  0.73270  0.46120  Biso   1.000  C
  C54      1.0000 0.92920  0.26730  0.53880  Biso   1.000  C
  H31      1.0000 0.07330  0.65990  0.49800  Biso   1.000  H
  H32      1.0000 0.92670  0.34010  0.50200  Biso   1.000  H
  H33      1.0000 0.03980  0.80060  0.48720  Biso   1.000  H
  H34      1.0000 0.96020  0.19940  0.51280  Biso   1.000  H
  H35      1.0000 0.17310  0.77900  0.44930  Biso   1.000  H
  H36      1.0000 0.82690  0.22100  0.55070  Biso   1.000  H
  Cu1      1.0000 0.85687  0.33336  0.26454  Biso   1.000  Cu
  Cu2      1.0000 0.14313  0.66664  0.73546  Biso   1.000  Cu
  F1       1.0000 0.11530  0.76530  0.16540  Biso   1.000  F
  F2       1.0000 0.88470  0.23470  0.83460  Biso   1.000  F
  F3       1.0000 0.30250  0.70730  0.14580  Biso   1.000  F
  F4       1.0000 0.69750  0.29270  0.85420  Biso   1.000  F
  F5       1.0000 0.08180  0.61290  0.07043  Biso   1.000  F
  F6       1.0000 0.91820  0.38710  0.92957  Biso   1.000  F
  F7       1.0000 0.62540  0.00660  0.43600  Biso   1.000  F
  F8       1.0000 0.37460  0.99340  0.56400  Biso   1.000  F
  F9       1.0000 0.58120  0.87880  0.33190  Biso   1.000  F
  F10      1.0000 0.41880  0.12120  0.66810  Biso   1.000  F
  F11      1.0000 0.41120  0.93310  0.36410  Biso   1.000  F
  F12      1.0000 0.58880  0.06690  0.63590  Biso   1.000  F
  N1       1.0000 0.78290  0.00640  0.13510  Biso   1.000  N
  N2       1.0000 0.21710  0.99360  0.86490  Biso   1.000  N
  N3       1.0000 0.81250  0.14560  0.14920  Biso   1.000  N
  N4       1.0000 0.18750  0.85440  0.85080  Biso   1.000  N
  O1       1.0000 0.95680  0.47920  0.19614  Biso   1.000  O
  O2       1.0000 0.04320  0.52080  0.80386  Biso   1.000  O
  O3       1.0000 0.05520  0.33190  0.32513  Biso   1.000  O
  O4       1.0000 0.94480  0.66810  0.67487  Biso   1.000  O
  O5       1.0000 0.75240  0.18480  0.33001  Biso   1.000  O
  O6       1.0000 0.24760  0.81520  0.66999  Biso   1.000  O
  O7       1.0000 0.65890  0.34300  0.20816  Biso   1.000  O
  O8       1.0000 0.34110  0.65700  0.79184  Biso   1.000  O
  O9       1.0000 0.89700  0.53860  0.36952  Biso   1.000  O
  O10      1.0000 0.10300  0.46140  0.63048  Biso   1.000  O
  S1       1.0000 0.28717  0.25957  0.43926  Biso   1.000  S
  S2       1.0000 0.71283  0.74043  0.56074  Biso   1.000  S
  S3       1.0000 0.44177  0.40753  0.08438  Biso   1.000  S
  S4       1.0000 0.55823  0.59247  0.91562  Biso   1.000  S
