data_image0
_cell_length_a       8.7578
_cell_length_b       11.143
_cell_length_c       12.529
_cell_angle_alpha    84.479
_cell_angle_beta     81.501
_cell_angle_gamma    71.648

_symmetry_space_group_name_H-M    "P 1"
_symmetry_int_tables_number       1

loop_
  _symmetry_equiv_pos_as_xyz
  'x, y, z'

loop_
  _atom_site_label
  _atom_site_occupancy
  _atom_site_fract_x
  _atom_site_fract_y
  _atom_site_fract_z
  _atom_site_thermal_displace_type
  _atom_site_B_iso_or_equiv
  _atom_site_type_symbol
  Cu1      1.0000 0.32033  0.02281  0.03196  Biso   1.000  Cu
  Cu2      1.0000 0.67967  0.97719  0.96804  Biso   1.000  Cu
  N1       1.0000 0.18020  0.04938  0.17356  Biso   1.000  N
  N2       1.0000 0.81980  0.95062  0.82644  Biso   1.000  N
  K1       1.0000 0.68070  0.35995  0.04690  Biso   1.000  K
  K2       1.0000 0.31930  0.64005  0.95310  Biso   1.000  K
  K3       1.0000 0.05565  0.41460  0.84968  Biso   1.000  K
  K4       1.0000 0.94435  0.58540  0.15032  Biso   1.000  K
  O1       1.0000 0.52955  0.01438  0.09760  Biso   1.000  O
  O2       1.0000 0.47045  0.98562  0.90240  Biso   1.000  O
  O3       1.0000 0.21767  0.21889  0.01322  Biso   1.000  O
  O4       1.0000 0.78233  0.78111  0.98678  Biso   1.000  O
  O5       1.0000 0.98520  0.36224  0.07047  Biso   1.000  O
  O6       1.0000 0.01480  0.63776  0.92953  Biso   1.000  O
  O7       1.0000 0.22500  0.88531  0.02459  Biso   1.000  O
  O8       1.0000 0.77500  0.11469  0.97541  Biso   1.000  O
  O9       1.0000 0.09440  0.76533  0.12629  Biso   1.000  O
  O10      1.0000 0.90560  0.23467  0.87371  Biso   1.000  O
  O11      1.0000 0.61510  0.65740  0.71805  Biso   1.000  O
  O12      1.0000 0.38490  0.34260  0.28195  Biso   1.000  O
  O13      1.0000 0.35020  0.69210  0.73392  Biso   1.000  O
  O14      1.0000 0.64980  0.30790  0.26608  Biso   1.000  O
  C1       1.0000 0.54860  0.96570  0.19879  Biso   1.000  C
  C2       1.0000 0.45140  0.03430  0.80121  Biso   1.000  C
  C3       1.0000 0.70240  0.88800  0.22411  Biso   1.000  C
  C4       1.0000 0.29760  0.11200  0.77589  Biso   1.000  C
  H1       1.0000 0.79220  0.87590  0.17180  Biso   1.000  H
  H2       1.0000 0.20780  0.12410  0.82820  Biso   1.000  H
  C5       1.0000 0.71990  0.83080  0.32446  Biso   1.000  C
  C6       1.0000 0.28010  0.16920  0.67554  Biso   1.000  C
  H3       1.0000 0.82210  0.78110  0.34010  Biso   1.000  H
  H4       1.0000 0.17790  0.21890  0.65990  Biso   1.000  H
  C7       1.0000 0.58590  0.84550  0.40508  Biso   1.000  C
  C8       1.0000 0.41410  0.15450  0.59492  Biso   1.000  C
  C9       1.0000 0.60040  0.77730  0.50648  Biso   1.000  C
  C10      1.0000 0.39960  0.22270  0.49352  Biso   1.000  C
  H5       1.0000 0.70140  0.72400  0.52120  Biso   1.000  H
  H6       1.0000 0.29860  0.27600  0.47880  Biso   1.000  H
  C11      1.0000 0.46870  0.78820  0.58324  Biso   1.000  C
  C12      1.0000 0.53130  0.21180  0.41676  Biso   1.000  C
  C13      1.0000 0.31870  0.87360  0.56249  Biso   1.000  C
  C14      1.0000 0.68130  0.12640  0.43751  Biso   1.000  C
  H7       1.0000 0.22960  0.88290  0.61520  Biso   1.000  H
  H8       1.0000 0.77040  0.11710  0.38480  Biso   1.000  H
  C15      1.0000 0.30000  0.94340  0.46659  Biso   1.000  C
  C16      1.0000 0.70000  0.05660  0.53341  Biso   1.000  C
  H9       1.0000 0.19950  0.00060  0.45580  Biso   1.000  H
  H10      1.0000 0.80050  0.99940  0.54420  Biso   1.000  H
  C17      1.0000 0.43270  0.92960  0.38328  Biso   1.000  C
  C18      1.0000 0.56730  0.07040  0.61672  Biso   1.000  C
  C19      1.0000 0.41680  0.99300  0.27870  Biso   1.000  C
  C20      1.0000 0.58320  0.00700  0.72130  Biso   1.000  C
  C21      1.0000 0.26270  0.09060  0.25324  Biso   1.000  C
  C22      1.0000 0.73730  0.90940  0.74676  Biso   1.000  C
  H11      1.0000 0.18920  0.10990  0.31960  Biso   1.000  H
  H12      1.0000 0.81080  0.89010  0.68040  Biso   1.000  H
  H13      1.0000 0.28660  0.16760  0.22460  Biso   1.000  H
  H14      1.0000 0.71340  0.83240  0.77540  Biso   1.000  H
  C23      1.0000 0.03490  0.15320  0.14854  Biso   1.000  C
  C24      1.0000 0.96510  0.84680  0.85146  Biso   1.000  C
  H15      1.0000 0.97530  0.19070  0.21500  Biso   1.000  H
  H16      1.0000 0.02470  0.80930  0.78500  Biso   1.000  H
  H17      1.0000 0.96480  0.11970  0.11530  Biso   1.000  H
  H18      1.0000 0.03520  0.88030  0.88470  Biso   1.000  H
  C25      1.0000 0.08150  0.25430  0.07264  Biso   1.000  C
  C26      1.0000 0.91850  0.74570  0.92736  Biso   1.000  C
  C27      1.0000 0.13900  0.93200  0.20990  Biso   1.000  C
  C28      1.0000 0.86100  0.06800  0.79010  Biso   1.000  C
  H19      1.0000 0.02980  0.95320  0.24780  Biso   1.000  H
  H20      1.0000 0.97020  0.04680  0.75220  Biso   1.000  H
  H21      1.0000 0.21290  0.88230  0.25970  Biso   1.000  H
  H22      1.0000 0.78710  0.11770  0.74030  Biso   1.000  H
  C29      1.0000 0.15060  0.85450  0.11381  Biso   1.000  C
  C30      1.0000 0.84940  0.14550  0.88619  Biso   1.000  C
  C31      1.0000 0.47950  0.70710  0.68630  Biso   1.000  C
  C32      1.0000 0.52050  0.29290  0.31370  Biso   1.000  C
  O15      1.0000 0.93500  0.53650  0.67290  Biso   1.000  O
  O16      1.0000 0.06500  0.46350  0.32710  Biso   1.000  O
  H23      1.0000 0.98900  0.60000  0.65200  Biso   1.000  H
  H24      1.0000 0.01100  0.40000  0.34800  Biso   1.000  H
  H25      1.0000 0.83000  0.57500  0.66800  Biso   1.000  H
  H26      1.0000 0.17000  0.42500  0.33200  Biso   1.000  H
  O17      1.0000 0.65650  0.57910  0.92609  Biso   1.000  O
  O18      1.0000 0.34350  0.42090  0.07391  Biso   1.000  O
  H27      1.0000 0.66000  0.59500  0.86500  Biso   1.000  H
  H28      1.0000 0.34000  0.40500  0.13500  Biso   1.000  H
  H29      1.0000 0.68100  0.63300  0.95100  Biso   1.000  H
  H30      1.0000 0.31900  0.36700  0.04900  Biso   1.000  H
  O19      1.0000 0.35120  0.45120  0.80180  Biso   1.000  O
  O20      1.0000 0.64880  0.54880  0.19820  Biso   1.000  O
  H31      1.0000 0.34680  0.51070  0.75720  Biso   1.000  H
  H32      1.0000 0.65320  0.48930  0.24280  Biso   1.000  H
  C33      1.0000 0.50140  0.35820  0.78240  Biso   1.000  C
  C34      1.0000 0.49860  0.64180  0.21760  Biso   1.000  C
  H33      1.0000 0.51620  0.33180  0.70990  Biso   1.000  H
  H34      1.0000 0.48380  0.66820  0.29010  Biso   1.000  H
  H35      1.0000 0.58640  0.39210  0.79150  Biso   1.000  H
  H36      1.0000 0.41360  0.60790  0.20850  Biso   1.000  H
  H37      1.0000 0.50470  0.28680  0.83240  Biso   1.000  H
  H38      1.0000 0.49530  0.71320  0.16760  Biso   1.000  H
  O21      1.0000 0.87200  0.32730  0.40790  Biso   1.000  O
  O22      1.0000 0.12800  0.67270  0.59210  Biso   1.000  O
  C35      1.0000 0.92580  0.37260  0.51980  Biso   1.000  C
  C36      1.0000 0.07420  0.62740  0.48020  Biso   1.000  C
  O23      1.0000 0.77070  0.38570  0.51090  Biso   1.000  O
  O24      1.0000 0.22930  0.61430  0.48910  Biso   1.000  O
