data_image0
_cell_length_a       13.954
_cell_length_b       12.0954
_cell_length_c       21.334
_cell_angle_alpha    90
_cell_angle_beta     98.3
_cell_angle_gamma    90

_symmetry_space_group_name_H-M    "P 1"
_symmetry_int_tables_number       1

loop_
  _symmetry_equiv_pos_as_xyz
  'x, y, z'

loop_
  _atom_site_label
  _atom_site_occupancy
  _atom_site_fract_x
  _atom_site_fract_y
  _atom_site_fract_z
  _atom_site_thermal_displace_type
  _atom_site_B_iso_or_equiv
  _atom_site_type_symbol
  Cu1      1.0000 0.38830  0.27700  0.18353  Biso   1.000  Cu
  Cu2      1.0000 0.88830  0.72300  0.68353  Biso   1.000  Cu
  Cu3      1.0000 0.61170  0.72300  0.81647  Biso   1.000  Cu
  Cu4      1.0000 0.11170  0.27700  0.31647  Biso   1.000  Cu
  Cu5      1.0000 0.67990  0.26130  0.47280  Biso   1.000  Cu
  Cu6      1.0000 0.17990  0.73870  0.97280  Biso   1.000  Cu
  Cu7      1.0000 0.32010  0.73870  0.52720  Biso   1.000  Cu
  Cu8      1.0000 0.82010  0.26130  0.02720  Biso   1.000  Cu
  Cl1      1.0000 0.27920  0.32200  0.09820  Biso   1.000  Cl
  Cl2      1.0000 0.77920  0.67800  0.59820  Biso   1.000  Cl
  Cl3      1.0000 0.72080  0.67800  0.90180  Biso   1.000  Cl
  Cl4      1.0000 0.22080  0.32200  0.40180  Biso   1.000  Cl
  Cl5      1.0000 0.25000  0.19670  0.25000  Biso   1.000  Cl
  Cl6      1.0000 0.75000  0.80330  0.75000  Biso   1.000  Cl
  Cl7      1.0000 0.73580  0.29220  0.57670  Biso   1.000  Cl
  Cl8      1.0000 0.23580  0.70780  0.07670  Biso   1.000  Cl
  Cl9      1.0000 0.26420  0.70780  0.42330  Biso   1.000  Cl
  Cl10     1.0000 0.76420  0.29220  0.92330  Biso   1.000  Cl
  Cl11     1.0000 0.52510  0.15860  0.50130  Biso   1.000  Cl
  Cl12     1.0000 0.02510  0.84140  0.00130  Biso   1.000  Cl
  Cl13     1.0000 0.47490  0.84140  0.49870  Biso   1.000  Cl
  Cl14     1.0000 0.97490  0.15860  0.99870  Biso   1.000  Cl
  Cl15     1.0000 0.75000  0.27630  0.25000  Biso   1.000  Cl
  Cl16     1.0000 0.25000  0.72370  0.75000  Biso   1.000  Cl
  O1       1.0000 0.11630  0.12880  0.09990  Biso   1.000  O
  O2       1.0000 0.61630  0.87120  0.59990  Biso   1.000  O
  O3       1.0000 0.88370  0.87120  0.90010  Biso   1.000  O
  O4       1.0000 0.38370  0.12880  0.40010  Biso   1.000  O
  O5       1.0000 0.73880  0.67110  0.36010  Biso   1.000  O
  O6       1.0000 0.23880  0.32890  0.86010  Biso   1.000  O
  O7       1.0000 0.26120  0.32890  0.63990  Biso   1.000  O
  O8       1.0000 0.76120  0.67110  0.13990  Biso   1.000  O
  O9       1.0000 0.46430  0.65330  0.07200  Biso   1.000  O
  O10      1.0000 0.96430  0.34670  0.57200  Biso   1.000  O
  O11      1.0000 0.53570  0.34670  0.92800  Biso   1.000  O
  O12      1.0000 0.03570  0.65330  0.42800  Biso   1.000  O
  O13      1.0000 0.59230  0.69030  0.17640  Biso   1.000  O
  O14      1.0000 0.09230  0.30970  0.67640  Biso   1.000  O
  O15      1.0000 0.40770  0.30970  0.82360  Biso   1.000  O
  O16      1.0000 0.90770  0.69030  0.32360  Biso   1.000  O
  O17      1.0000 0.66570  0.51510  0.27820  Biso   1.000  O
  O18      1.0000 0.16570  0.48490  0.77820  Biso   1.000  O
  O19      1.0000 0.33430  0.48490  0.72180  Biso   1.000  O
  O20      1.0000 0.83430  0.51510  0.22180  Biso   1.000  O
  O21      1.0000 0.25000  0.86090  0.25000  Biso   1.000  O
  O22      1.0000 0.75000  0.13910  0.75000  Biso   1.000  O
  O23      1.0000 0.72920  0.03040  0.22770  Biso   1.000  O
  O24      1.0000 0.22920  0.96960  0.72770  Biso   1.000  O
  O25      1.0000 0.27080  0.96960  0.77230  Biso   1.000  O
  O26      1.0000 0.77080  0.03040  0.27230  Biso   1.000  O
  O27      1.0000 0.10560  0.14480  0.78350  Biso   1.000  O
  O28      1.0000 0.60560  0.85520  0.28350  Biso   1.000  O
  O29      1.0000 0.89440  0.85520  0.21650  Biso   1.000  O
  O30      1.0000 0.39440  0.14480  0.71650  Biso   1.000  O
  O31      1.0000 0.96190  0.08900  0.85720  Biso   1.000  O
  O32      1.0000 0.46190  0.91100  0.35720  Biso   1.000  O
  O33      1.0000 0.03810  0.91100  0.14280  Biso   1.000  O
  O34      1.0000 0.53810  0.08900  0.64280  Biso   1.000  O
  O35      1.0000 0.06330  0.13580  0.87430  Biso   1.000  O
  O36      1.0000 0.56330  0.86420  0.37430  Biso   1.000  O
  O37      1.0000 0.93670  0.86420  0.12570  Biso   1.000  O
  O38      1.0000 0.43670  0.13580  0.62570  Biso   1.000  O
  N1       1.0000 0.39070  0.42480  0.22580  Biso   1.000  N
  N2       1.0000 0.89070  0.57520  0.72580  Biso   1.000  N
  N3       1.0000 0.60930  0.57520  0.77420  Biso   1.000  N
  N4       1.0000 0.10930  0.42480  0.27420  Biso   1.000  N
  N5       1.0000 0.48100  0.24010  0.26660  Biso   1.000  N
  N6       1.0000 0.98100  0.75990  0.76660  Biso   1.000  N
  N7       1.0000 0.51900  0.75990  0.73340  Biso   1.000  N
  N8       1.0000 0.01900  0.24010  0.23340  Biso   1.000  N
  N9       1.0000 0.60060  0.23510  0.38390  Biso   1.000  N
  N10      1.0000 0.10060  0.76490  0.88390  Biso   1.000  N
  N11      1.0000 0.39940  0.76490  0.61610  Biso   1.000  N
  N12      1.0000 0.89940  0.23510  0.11610  Biso   1.000  N
  N13      1.0000 0.61760  0.41130  0.45760  Biso   1.000  N
  N14      1.0000 0.11760  0.58870  0.95760  Biso   1.000  N
  N15      1.0000 0.38240  0.58870  0.54240  Biso   1.000  N
  N16      1.0000 0.88240  0.41130  0.04240  Biso   1.000  N
  N17      1.0000 0.42000  0.12830  0.14620  Biso   1.000  N
  N18      1.0000 0.92000  0.87170  0.64620  Biso   1.000  N
  N19      1.0000 0.58000  0.87170  0.85380  Biso   1.000  N
  N20      1.0000 0.08000  0.12830  0.35380  Biso   1.000  N
  N21      1.0000 0.52420  0.31390  0.13650  Biso   1.000  N
  N22      1.0000 0.02420  0.68610  0.63650  Biso   1.000  N
  N23      1.0000 0.47580  0.68610  0.86350  Biso   1.000  N
  N24      1.0000 0.97580  0.31390  0.36350  Biso   1.000  N
  N25      1.0000 0.68910  0.30840  0.07680  Biso   1.000  N
  N26      1.0000 0.18910  0.69160  0.57680  Biso   1.000  N
  N27      1.0000 0.31090  0.69160  0.92320  Biso   1.000  N
  N28      1.0000 0.81090  0.30840  0.42320  Biso   1.000  N
  N29      1.0000 0.75020  0.11500  0.02940  Biso   1.000  N
  N30      1.0000 0.25020  0.88500  0.52940  Biso   1.000  N
  N31      1.0000 0.24980  0.88500  0.97060  Biso   1.000  N
  N32      1.0000 0.74980  0.11500  0.47060  Biso   1.000  N
  C1       1.0000 0.34510  0.52170  0.20130  Biso   1.000  C
  C2       1.0000 0.84510  0.47830  0.70130  Biso   1.000  C
  C3       1.0000 0.65490  0.47830  0.79870  Biso   1.000  C
  C4       1.0000 0.15490  0.52170  0.29870  Biso   1.000  C
  H1       1.0000 0.30610  0.51950  0.16210  Biso   1.000  H
  H2       1.0000 0.80610  0.48050  0.66210  Biso   1.000  H
  H3       1.0000 0.69390  0.48050  0.83790  Biso   1.000  H
  H4       1.0000 0.19390  0.51950  0.33790  Biso   1.000  H
  C5       1.0000 0.35640  0.61850  0.23330  Biso   1.000  C
  C6       1.0000 0.85640  0.38150  0.73330  Biso   1.000  C
  C7       1.0000 0.64360  0.38150  0.76670  Biso   1.000  C
  C8       1.0000 0.14360  0.61850  0.26670  Biso   1.000  C
  H5       1.0000 0.32790  0.68290  0.21550  Biso   1.000  H
  H6       1.0000 0.82790  0.31710  0.71550  Biso   1.000  H
  H7       1.0000 0.67210  0.31710  0.78450  Biso   1.000  H
  H8       1.0000 0.17210  0.68290  0.28450  Biso   1.000  H
  C9       1.0000 0.41070  0.62060  0.29250  Biso   1.000  C
  C10      1.0000 0.91070  0.37940  0.79250  Biso   1.000  C
  C11      1.0000 0.58930  0.37940  0.70750  Biso   1.000  C
  C12      1.0000 0.08930  0.62060  0.20750  Biso   1.000  C
  H9       1.0000 0.41710  0.68690  0.31480  Biso   1.000  H
  H10      1.0000 0.91710  0.31310  0.81480  Biso   1.000  H
  H11      1.0000 0.58290  0.31310  0.68520  Biso   1.000  H
  H12      1.0000 0.08290  0.68690  0.18520  Biso   1.000  H
  C13      1.0000 0.45500  0.52930  0.31930  Biso   1.000  C
  C14      1.0000 0.95500  0.47070  0.81930  Biso   1.000  C
  C15      1.0000 0.54500  0.47070  0.68070  Biso   1.000  C
  C16      1.0000 0.04500  0.52930  0.18070  Biso   1.000  C
  C17      1.0000 0.44150  0.43100  0.28300  Biso   1.000  C
  C18      1.0000 0.94150  0.56900  0.78300  Biso   1.000  C
  C19      1.0000 0.55850  0.56900  0.71700  Biso   1.000  C
  C20      1.0000 0.05850  0.43100  0.21700  Biso   1.000  C
  C21      1.0000 0.48970  0.33400  0.30430  Biso   1.000  C
  C22      1.0000 0.98970  0.66600  0.80430  Biso   1.000  C
  C23      1.0000 0.51030  0.66600  0.69570  Biso   1.000  C
  C24      1.0000 0.01030  0.33400  0.19570  Biso   1.000  C
  C25      1.0000 0.53020  0.15330  0.28620  Biso   1.000  C
  C26      1.0000 0.03020  0.84670  0.78620  Biso   1.000  C
  C27      1.0000 0.46980  0.84670  0.71380  Biso   1.000  C
  C28      1.0000 0.96980  0.15330  0.21380  Biso   1.000  C
  H13      1.0000 0.52640  0.09120  0.26030  Biso   1.000  H
  H14      1.0000 0.02640  0.90880  0.76030  Biso   1.000  H
  H15      1.0000 0.47360  0.90880  0.73970  Biso   1.000  H
  H16      1.0000 0.97360  0.09120  0.23970  Biso   1.000  H
  C29      1.0000 0.59010  0.14930  0.34610  Biso   1.000  C
  C30      1.0000 0.09010  0.85070  0.84610  Biso   1.000  C
  C31      1.0000 0.40990  0.85070  0.65390  Biso   1.000  C
  C32      1.0000 0.90990  0.14930  0.15390  Biso   1.000  C
  H17      1.0000 0.62260  0.08410  0.35870  Biso   1.000  H
  H18      1.0000 0.12260  0.91590  0.85870  Biso   1.000  H
  H19      1.0000 0.37740  0.91590  0.64130  Biso   1.000  H
  H20      1.0000 0.87740  0.08410  0.14130  Biso   1.000  H
  C33      1.0000 0.54910  0.32870  0.36200  Biso   1.000  C
  C34      1.0000 0.04910  0.67130  0.86200  Biso   1.000  C
  C35      1.0000 0.45090  0.67130  0.63800  Biso   1.000  C
  C36      1.0000 0.95090  0.32870  0.13800  Biso   1.000  C
  C37      1.0000 0.56220  0.42520  0.40180  Biso   1.000  C
  C38      1.0000 0.06220  0.57480  0.90180  Biso   1.000  C
  C39      1.0000 0.43780  0.57480  0.59820  Biso   1.000  C
  C40      1.0000 0.93780  0.42520  0.09820  Biso   1.000  C
  C41      1.0000 0.51340  0.52100  0.38170  Biso   1.000  C
  C42      1.0000 0.01340  0.47900  0.88170  Biso   1.000  C
  C43      1.0000 0.48660  0.47900  0.61830  Biso   1.000  C
  C44      1.0000 0.98660  0.52100  0.11830  Biso   1.000  C
  C45      1.0000 0.53030  0.61250  0.42270  Biso   1.000  C
  C46      1.0000 0.03030  0.38750  0.92270  Biso   1.000  C
  C47      1.0000 0.46970  0.38750  0.57730  Biso   1.000  C
  C48      1.0000 0.96970  0.61250  0.07730  Biso   1.000  C
  H21      1.0000 0.50050  0.67980  0.41120  Biso   1.000  H
  H22      1.0000 0.00050  0.32020  0.91120  Biso   1.000  H
  H23      1.0000 0.49950  0.32020  0.58880  Biso   1.000  H
  H24      1.0000 0.99950  0.67980  0.08880  Biso   1.000  H
  C49      1.0000 0.59080  0.60330  0.47990  Biso   1.000  C
  C50      1.0000 0.09080  0.39670  0.97990  Biso   1.000  C
  C51      1.0000 0.40920  0.39670  0.52010  Biso   1.000  C
  C52      1.0000 0.90920  0.60330  0.02010  Biso   1.000  C
  H25      1.0000 0.60240  0.66360  0.50700  Biso   1.000  H
  H26      1.0000 0.10240  0.33640  0.00700  Biso   1.000  H
  H27      1.0000 0.39760  0.33640  0.49300  Biso   1.000  H
  H28      1.0000 0.89760  0.66360  0.99300  Biso   1.000  H
  C53      1.0000 0.63310  0.50300  0.49550  Biso   1.000  C
  C54      1.0000 0.13310  0.49700  0.99550  Biso   1.000  C
  C55      1.0000 0.36690  0.49700  0.50450  Biso   1.000  C
  C56      1.0000 0.86690  0.50300  0.00450  Biso   1.000  C
  H29      1.0000 0.67430  0.49660  0.53370  Biso   1.000  H
  H30      1.0000 0.17430  0.50340  0.03370  Biso   1.000  H
  H31      1.0000 0.32570  0.50340  0.46630  Biso   1.000  H
  H32      1.0000 0.82570  0.49660  0.96630  Biso   1.000  H
  C57      1.0000 0.36290  0.03880  0.15240  Biso   1.000  C
  C58      1.0000 0.86290  0.96120  0.65240  Biso   1.000  C
  C59      1.0000 0.63710  0.96120  0.84760  Biso   1.000  C
  C60      1.0000 0.13710  0.03880  0.34760  Biso   1.000  C
  H33      1.0000 0.30800  0.04360  0.17230  Biso   1.000  H
  H34      1.0000 0.80800  0.95640  0.67230  Biso   1.000  H
  H35      1.0000 0.69200  0.95640  0.82770  Biso   1.000  H
  H36      1.0000 0.19200  0.04360  0.32770  Biso   1.000  H
  C61      1.0000 0.39160  0.93770  0.12670  Biso   1.000  C
  C62      1.0000 0.89160  0.06230  0.62670  Biso   1.000  C
  C63      1.0000 0.60840  0.06230  0.87330  Biso   1.000  C
  C64      1.0000 0.10840  0.93770  0.37330  Biso   1.000  C
  H37      1.0000 0.35350  0.87570  0.13070  Biso   1.000  H
  H38      1.0000 0.85350  0.12430  0.63070  Biso   1.000  H
  H39      1.0000 0.64650  0.12430  0.86930  Biso   1.000  H
  H40      1.0000 0.14650  0.87570  0.36930  Biso   1.000  H
  C65      1.0000 0.46970  0.92480  0.09710  Biso   1.000  C
  C66      1.0000 0.96970  0.07520  0.59710  Biso   1.000  C
  C67      1.0000 0.53030  0.07520  0.90290  Biso   1.000  C
  C68      1.0000 0.03030  0.92480  0.40290  Biso   1.000  C
  H41      1.0000 0.48590  0.85700  0.08100  Biso   1.000  H
  H42      1.0000 0.98590  0.14300  0.58100  Biso   1.000  H
  H43      1.0000 0.51410  0.14300  0.91900  Biso   1.000  H
  H44      1.0000 0.01410  0.85700  0.41900  Biso   1.000  H
  C69      1.0000 0.52570  0.02110  0.09210  Biso   1.000  C
  C70      1.0000 0.02570  0.97890  0.59210  Biso   1.000  C
  C71      1.0000 0.47430  0.97890  0.90790  Biso   1.000  C
  C72      1.0000 0.97430  0.02110  0.40790  Biso   1.000  C
  C73      1.0000 0.49890  0.12160  0.11750  Biso   1.000  C
  C74      1.0000 0.99890  0.87840  0.61750  Biso   1.000  C
  C75      1.0000 0.50110  0.87840  0.88250  Biso   1.000  C
  C76      1.0000 0.00110  0.12160  0.38250  Biso   1.000  C
  C77      1.0000 0.55410  0.21960  0.11180  Biso   1.000  C
  C78      1.0000 0.05410  0.78040  0.61180  Biso   1.000  C
  C79      1.0000 0.44590  0.78040  0.88820  Biso   1.000  C
  C80      1.0000 0.94590  0.21960  0.38820  Biso   1.000  C
  C81      1.0000 0.57850  0.40160  0.13200  Biso   1.000  C
  C82      1.0000 0.07850  0.59840  0.63200  Biso   1.000  C
  C83      1.0000 0.42150  0.59840  0.86800  Biso   1.000  C
  C84      1.0000 0.92150  0.40160  0.36800  Biso   1.000  C
  H45      1.0000 0.56150  0.46740  0.15010  Biso   1.000  H
  H46      1.0000 0.06150  0.53260  0.65010  Biso   1.000  H
  H47      1.0000 0.43850  0.53260  0.84990  Biso   1.000  H
  H48      1.0000 0.93850  0.46740  0.34990  Biso   1.000  H
  C85      1.0000 0.65810  0.40060  0.10220  Biso   1.000  C
  C86      1.0000 0.15810  0.59940  0.60220  Biso   1.000  C
  C87      1.0000 0.34190  0.59940  0.89780  Biso   1.000  C
  C88      1.0000 0.84190  0.40060  0.39780  Biso   1.000  C
  H49      1.0000 0.69220  0.46610  0.09930  Biso   1.000  H
  H50      1.0000 0.19220  0.53390  0.59930  Biso   1.000  H
  H51      1.0000 0.30780  0.53390  0.90070  Biso   1.000  H
  H52      1.0000 0.80780  0.46610  0.40070  Biso   1.000  H
  C89      1.0000 0.63780  0.21660  0.08160  Biso   1.000  C
  C90      1.0000 0.13780  0.78340  0.58160  Biso   1.000  C
  C91      1.0000 0.36220  0.78340  0.91840  Biso   1.000  C
  C92      1.0000 0.86220  0.21660  0.41840  Biso   1.000  C
  C93      1.0000 0.66840  0.11370  0.05680  Biso   1.000  C
  C94      1.0000 0.16840  0.88630  0.55680  Biso   1.000  C
  C95      1.0000 0.33160  0.88630  0.94320  Biso   1.000  C
  C96      1.0000 0.83160  0.11370  0.44320  Biso   1.000  C
  C97      1.0000 0.61240  0.01590  0.06180  Biso   1.000  C
  C98      1.0000 0.11240  0.98410  0.56180  Biso   1.000  C
  C99      1.0000 0.38760  0.98410  0.93820  Biso   1.000  C
  C100     1.0000 0.88760  0.01590  0.43820  Biso   1.000  C
  C101     1.0000 0.64920  0.92040  0.03820  Biso   1.000  C
  C102     1.0000 0.14920  0.07960  0.53820  Biso   1.000  C
  C103     1.0000 0.35080  0.07960  0.96180  Biso   1.000  C
  C104     1.0000 0.85080  0.92040  0.46180  Biso   1.000  C
  H53      1.0000 0.61880  0.85290  0.04210  Biso   1.000  H
  H54      1.0000 0.11880  0.14710  0.54210  Biso   1.000  H
  H55      1.0000 0.38120  0.14710  0.95790  Biso   1.000  H
  H56      1.0000 0.88120  0.85290  0.45790  Biso   1.000  H
  C105     1.0000 0.73130  0.92580  0.00870  Biso   1.000  C
  C106     1.0000 0.23130  0.07420  0.50870  Biso   1.000  C
  C107     1.0000 0.26870  0.07420  0.99130  Biso   1.000  C
  C108     1.0000 0.76870  0.92580  0.49130  Biso   1.000  C
  H57      1.0000 0.75350  0.86280  0.99030  Biso   1.000  H
  H58      1.0000 0.25350  0.13720  0.49030  Biso   1.000  H
  H59      1.0000 0.24650  0.13720  0.00970  Biso   1.000  H
  H60      1.0000 0.74650  0.86280  0.50970  Biso   1.000  H
  C109     1.0000 0.78000  0.02430  0.00650  Biso   1.000  C
  C110     1.0000 0.28000  0.97570  0.50650  Biso   1.000  C
  C111     1.0000 0.22000  0.97570  0.99350  Biso   1.000  C
  C112     1.0000 0.72000  0.02430  0.49350  Biso   1.000  C
  H61      1.0000 0.83640  0.02570  0.98800  Biso   1.000  H
  H62      1.0000 0.33640  0.97430  0.48800  Biso   1.000  H
  H63      1.0000 0.16360  0.97430  0.01200  Biso   1.000  H
  H64      1.0000 0.66360  0.02570  0.51200  Biso   1.000  H
