data_image0
_cell_length_a       10.0172
_cell_length_b       8.8505
_cell_length_c       24.3125
_cell_angle_alpha    90
_cell_angle_beta     95.77
_cell_angle_gamma    90

_symmetry_space_group_name_H-M    "P 1"
_symmetry_int_tables_number       1

loop_
  _symmetry_equiv_pos_as_xyz
  'x, y, z'

loop_
  _atom_site_label
  _atom_site_occupancy
  _atom_site_fract_x
  _atom_site_fract_y
  _atom_site_fract_z
  _atom_site_thermal_displace_type
  _atom_site_B_iso_or_equiv
  _atom_site_type_symbol
  Cu1      1.0000 0.31934  0.63796  0.18915  Biso   1.000  Cu
  Cu2      1.0000 0.81934  0.86204  0.68915  Biso   1.000  Cu
  Cu3      1.0000 0.68066  0.36204  0.81085  Biso   1.000  Cu
  Cu4      1.0000 0.18066  0.13796  0.31085  Biso   1.000  Cu
  Cu5      1.0000 0.69164  0.62975  0.35404  Biso   1.000  Cu
  Cu6      1.0000 0.19164  0.87025  0.85404  Biso   1.000  Cu
  Cu7      1.0000 0.30836  0.37025  0.64596  Biso   1.000  Cu
  Cu8      1.0000 0.80836  0.12975  0.14596  Biso   1.000  Cu
  O1       1.0000 0.24270  0.58020  0.25641  Biso   1.000  O
  O2       1.0000 0.74270  0.91980  0.75641  Biso   1.000  O
  O3       1.0000 0.75730  0.41980  0.74359  Biso   1.000  O
  O4       1.0000 0.25730  0.08020  0.24359  Biso   1.000  O
  H1       1.0000 0.26900  0.60030  0.28450  Biso   1.000  H
  H2       1.0000 0.76900  0.89970  0.78450  Biso   1.000  H
  H3       1.0000 0.73100  0.39970  0.71550  Biso   1.000  H
  H4       1.0000 0.23100  0.10030  0.21550  Biso   1.000  H
  H5       1.0000 0.18780  0.51250  0.25740  Biso   1.000  H
  H6       1.0000 0.68780  0.98750  0.75740  Biso   1.000  H
  H7       1.0000 0.81220  0.48750  0.74260  Biso   1.000  H
  H8       1.0000 0.31220  0.01250  0.24260  Biso   1.000  H
  O5       1.0000 0.56160  0.50880  0.39198  Biso   1.000  O
  O6       1.0000 0.06160  0.99120  0.89198  Biso   1.000  O
  O7       1.0000 0.43840  0.49120  0.60802  Biso   1.000  O
  O8       1.0000 0.93840  0.00880  0.10802  Biso   1.000  O
  H9       1.0000 0.56150  0.42350  0.39140  Biso   1.000  H
  H10      1.0000 0.06150  0.07650  0.89140  Biso   1.000  H
  H11      1.0000 0.43850  0.57650  0.60860  Biso   1.000  H
  H12      1.0000 0.93850  0.92350  0.10860  Biso   1.000  H
  H13      1.0000 0.48640  0.53940  0.38420  Biso   1.000  H
  H14      1.0000 0.98640  0.96060  0.88420  Biso   1.000  H
  H15      1.0000 0.51360  0.46060  0.61580  Biso   1.000  H
  H16      1.0000 0.01360  0.03940  0.11580  Biso   1.000  H
  O9       1.0000 0.14520  0.74550  0.16318  Biso   1.000  O
  O10      1.0000 0.64520  0.75450  0.66318  Biso   1.000  O
  O11      1.0000 0.85480  0.25450  0.83682  Biso   1.000  O
  O12      1.0000 0.35480  0.24550  0.33682  Biso   1.000  O
  O13      1.0000 0.11910  0.51820  0.12965  Biso   1.000  O
  O14      1.0000 0.61910  0.98180  0.62965  Biso   1.000  O
  O15      1.0000 0.88090  0.48180  0.87035  Biso   1.000  O
  O16      1.0000 0.38090  0.01820  0.37035  Biso   1.000  O
  O17      1.0000 0.96000  0.68530  0.11294  Biso   1.000  O
  O18      1.0000 0.46000  0.81470  0.61294  Biso   1.000  O
  O19      1.0000 0.04000  0.31470  0.88706  Biso   1.000  O
  O20      1.0000 0.54000  0.18530  0.38706  Biso   1.000  O
  O21      1.0000 0.71500  0.46370  0.30136  Biso   1.000  O
  O22      1.0000 0.21500  0.03630  0.80136  Biso   1.000  O
  O23      1.0000 0.28500  0.53630  0.69864  Biso   1.000  O
  O24      1.0000 0.78500  0.96370  0.19864  Biso   1.000  O
  O25      1.0000 0.84660  0.40780  0.37500  Biso   1.000  O
  O26      1.0000 0.34660  0.09220  0.87500  Biso   1.000  O
  O27      1.0000 0.15340  0.59220  0.62500  Biso   1.000  O
  O28      1.0000 0.65340  0.90780  0.12500  Biso   1.000  O
  O29      1.0000 0.81500  0.24500  0.30739  Biso   1.000  O
  O30      1.0000 0.31500  0.25500  0.80739  Biso   1.000  O
  O31      1.0000 0.18500  0.75500  0.69261  Biso   1.000  O
  O32      1.0000 0.68500  0.74500  0.19261  Biso   1.000  O
  O33      1.0000 0.52320  0.69030  0.29031  Biso   1.000  O
  O34      1.0000 0.02320  0.80970  0.79031  Biso   1.000  O
  O35      1.0000 0.47680  0.30970  0.70969  Biso   1.000  O
  O36      1.0000 0.97680  0.19030  0.20969  Biso   1.000  O
  O37      1.0000 0.57250  0.92970  0.29082  Biso   1.000  O
  O38      1.0000 0.07250  0.57030  0.79082  Biso   1.000  O
  O39      1.0000 0.42750  0.07030  0.70918  Biso   1.000  O
  O40      1.0000 0.92750  0.42970  0.20918  Biso   1.000  O
  O41      1.0000 0.41140  0.84200  0.23220  Biso   1.000  O
  O42      1.0000 0.91140  0.65800  0.73220  Biso   1.000  O
  O43      1.0000 0.58860  0.15800  0.76780  Biso   1.000  O
  O44      1.0000 0.08860  0.34200  0.26780  Biso   1.000  O
  O45      1.0000 0.64350  0.77080  0.89453  Biso   1.000  O
  O46      1.0000 0.14350  0.72920  0.39453  Biso   1.000  O
  O47      1.0000 0.35650  0.22920  0.10547  Biso   1.000  O
  O48      1.0000 0.85650  0.27080  0.60547  Biso   1.000  O
  O49      1.0000 0.81640  0.88080  0.86564  Biso   1.000  O
  O50      1.0000 0.31640  0.61920  0.36564  Biso   1.000  O
  O51      1.0000 0.18360  0.11920  0.13436  Biso   1.000  O
  O52      1.0000 0.68360  0.38080  0.63436  Biso   1.000  O
  O53      1.0000 0.80020  0.85860  0.95330  Biso   1.000  O
  O54      1.0000 0.30020  0.64140  0.45330  Biso   1.000  O
  O55      1.0000 0.19980  0.14140  0.04670  Biso   1.000  O
  O56      1.0000 0.69980  0.35860  0.54670  Biso   1.000  O
  N1       1.0000 0.39470  0.69120  0.11813  Biso   1.000  N
  N2       1.0000 0.89470  0.80880  0.61813  Biso   1.000  N
  N3       1.0000 0.60530  0.30880  0.88187  Biso   1.000  N
  N4       1.0000 0.10530  0.19120  0.38187  Biso   1.000  N
  N5       1.0000 0.45890  0.47000  0.19043  Biso   1.000  N
  N6       1.0000 0.95890  0.03000  0.69043  Biso   1.000  N
  N7       1.0000 0.54110  0.53000  0.80957  Biso   1.000  N
  N8       1.0000 0.04110  0.97000  0.30957  Biso   1.000  N
  N9       1.0000 0.65750  0.25760  0.17175  Biso   1.000  N
  N10      1.0000 0.15750  0.24240  0.67175  Biso   1.000  N
  N11      1.0000 0.34250  0.74240  0.82825  Biso   1.000  N
  N12      1.0000 0.84250  0.75760  0.32825  Biso   1.000  N
  N13      1.0000 0.80250  0.28700  0.08590  Biso   1.000  N
  N14      1.0000 0.30250  0.21300  0.58590  Biso   1.000  N
  N15      1.0000 0.19750  0.71300  0.91410  Biso   1.000  N
  N16      1.0000 0.69750  0.78700  0.41410  Biso   1.000  N
  N17      1.0000 0.07220  0.64630  0.13474  Biso   1.000  N
  N18      1.0000 0.57220  0.85370  0.63474  Biso   1.000  N
  N19      1.0000 0.92780  0.35370  0.86526  Biso   1.000  N
  N20      1.0000 0.42780  0.14630  0.36526  Biso   1.000  N
  N21      1.0000 0.79500  0.36830  0.32834  Biso   1.000  N
  N22      1.0000 0.29500  0.13170  0.82834  Biso   1.000  N
  N23      1.0000 0.20500  0.63170  0.67166  Biso   1.000  N
  N24      1.0000 0.70500  0.86830  0.17166  Biso   1.000  N
  N25      1.0000 0.50520  0.82180  0.27230  Biso   1.000  N
  N26      1.0000 0.00520  0.67820  0.77230  Biso   1.000  N
  N27      1.0000 0.49480  0.17820  0.72770  Biso   1.000  N
  N28      1.0000 0.99480  0.32180  0.22770  Biso   1.000  N
  N29      1.0000 0.75200  0.83570  0.90484  Biso   1.000  N
  N30      1.0000 0.25200  0.66430  0.40484  Biso   1.000  N
  N31      1.0000 0.24800  0.16430  0.09516  Biso   1.000  N
  N32      1.0000 0.74800  0.33570  0.59516  Biso   1.000  N
  C1       1.0000 0.35880  0.80370  0.08314  Biso   1.000  C
  C2       1.0000 0.85880  0.69630  0.58314  Biso   1.000  C
  C3       1.0000 0.64120  0.19630  0.91686  Biso   1.000  C
  C4       1.0000 0.14120  0.30370  0.41686  Biso   1.000  C
  H17      1.0000 0.28970  0.86800  0.09086  Biso   1.000  H
  H18      1.0000 0.78970  0.63200  0.59086  Biso   1.000  H
  H19      1.0000 0.71030  0.13200  0.90914  Biso   1.000  H
  H20      1.0000 0.21030  0.36800  0.40914  Biso   1.000  H
  C5       1.0000 0.42240  0.82760  0.03510  Biso   1.000  C
  C6       1.0000 0.92240  0.67240  0.53510  Biso   1.000  C
  C7       1.0000 0.57760  0.17240  0.96490  Biso   1.000  C
  C8       1.0000 0.07760  0.32760  0.46490  Biso   1.000  C
  H21      1.0000 0.39440  0.90600  0.01123  Biso   1.000  H
  H22      1.0000 0.89440  0.59400  0.51123  Biso   1.000  H
  H23      1.0000 0.60560  0.09400  0.98877  Biso   1.000  H
  H24      1.0000 0.10560  0.40600  0.48877  Biso   1.000  H
  C9       1.0000 0.52660  0.73500  0.02308  Biso   1.000  C
  C10      1.0000 0.02660  0.76500  0.52308  Biso   1.000  C
  C11      1.0000 0.47340  0.26500  0.97692  Biso   1.000  C
  C12      1.0000 0.97340  0.23500  0.47692  Biso   1.000  C
  H25      1.0000 0.56940  0.75090  0.99134  Biso   1.000  H
  H26      1.0000 0.06940  0.74910  0.49134  Biso   1.000  H
  H27      1.0000 0.43060  0.24910  0.00866  Biso   1.000  H
  H28      1.0000 0.93060  0.25090  0.50866  Biso   1.000  H
  C13      1.0000 0.56730  0.61630  0.05956  Biso   1.000  C
  C14      1.0000 0.06730  0.88370  0.55956  Biso   1.000  C
  C15      1.0000 0.43270  0.38370  0.94044  Biso   1.000  C
  C16      1.0000 0.93270  0.11630  0.44044  Biso   1.000  C
  C17      1.0000 0.49710  0.59900  0.10632  Biso   1.000  C
  C18      1.0000 0.99710  0.90100  0.60632  Biso   1.000  C
  C19      1.0000 0.50290  0.40100  0.89368  Biso   1.000  C
  C20      1.0000 0.00290  0.09900  0.39368  Biso   1.000  C
  C21      1.0000 0.52980  0.47960  0.14560  Biso   1.000  C
  C22      1.0000 0.02980  0.02040  0.64560  Biso   1.000  C
  C23      1.0000 0.47020  0.52040  0.85440  Biso   1.000  C
  C24      1.0000 0.97020  0.97960  0.35440  Biso   1.000  C
  C25      1.0000 0.48710  0.35440  0.22436  Biso   1.000  C
  C26      1.0000 0.98710  0.14560  0.72436  Biso   1.000  C
  C27      1.0000 0.51290  0.64560  0.77564  Biso   1.000  C
  C28      1.0000 0.01290  0.85440  0.27564  Biso   1.000  C
  H29      1.0000 0.44090  0.34440  0.25549  Biso   1.000  H
  H30      1.0000 0.94090  0.15560  0.75549  Biso   1.000  H
  H31      1.0000 0.55910  0.65560  0.74451  Biso   1.000  H
  H32      1.0000 0.05910  0.84440  0.24451  Biso   1.000  H
  C29      1.0000 0.58610  0.24540  0.21438  Biso   1.000  C
  C30      1.0000 0.08610  0.25460  0.71438  Biso   1.000  C
  C31      1.0000 0.41390  0.75460  0.78562  Biso   1.000  C
  C32      1.0000 0.91390  0.74540  0.28562  Biso   1.000  C
  H33      1.0000 0.60080  0.16380  0.23833  Biso   1.000  H
  H34      1.0000 0.10080  0.33620  0.73833  Biso   1.000  H
  H35      1.0000 0.39920  0.83620  0.76167  Biso   1.000  H
  H36      1.0000 0.89920  0.66380  0.26167  Biso   1.000  H
  C33      1.0000 0.62980  0.37790  0.13704  Biso   1.000  C
  C34      1.0000 0.12980  0.12210  0.63704  Biso   1.000  C
  C35      1.0000 0.37020  0.62210  0.86296  Biso   1.000  C
  C36      1.0000 0.87020  0.87790  0.36296  Biso   1.000  C
  C37      1.0000 0.70540  0.39330  0.09005  Biso   1.000  C
  C38      1.0000 0.20540  0.10670  0.59005  Biso   1.000  C
  C39      1.0000 0.29460  0.60670  0.90995  Biso   1.000  C
  C40      1.0000 0.79460  0.89330  0.40995  Biso   1.000  C
  C41      1.0000 0.67710  0.51080  0.05146  Biso   1.000  C
  C42      1.0000 0.17710  0.98920  0.55146  Biso   1.000  C
  C43      1.0000 0.32290  0.48920  0.94854  Biso   1.000  C
  C44      1.0000 0.82290  0.01080  0.44854  Biso   1.000  C
  C45      1.0000 0.75640  0.51680  0.00703  Biso   1.000  C
  C46      1.0000 0.25640  0.98320  0.50703  Biso   1.000  C
  C47      1.0000 0.24360  0.48320  0.99297  Biso   1.000  C
  C48      1.0000 0.74360  0.01680  0.49297  Biso   1.000  C
  H37      1.0000 0.74260  0.59230  0.98046  Biso   1.000  H
  H38      1.0000 0.24260  0.90770  0.48046  Biso   1.000  H
  H39      1.0000 0.25740  0.40770  0.01954  Biso   1.000  H
  H40      1.0000 0.75740  0.09230  0.51954  Biso   1.000  H
  C49      1.0000 0.85500  0.40950  0.00322  Biso   1.000  C
  C50      1.0000 0.35500  0.09050  0.50322  Biso   1.000  C
  C51      1.0000 0.14500  0.59050  0.99678  Biso   1.000  C
  C52      1.0000 0.64500  0.90950  0.49678  Biso   1.000  C
  H41      1.0000 0.90790  0.41260  0.97391  Biso   1.000  H
  H42      1.0000 0.40790  0.08740  0.47391  Biso   1.000  H
  H43      1.0000 0.09210  0.58740  0.02609  Biso   1.000  H
  H44      1.0000 0.59210  0.91260  0.52609  Biso   1.000  H
  C53      1.0000 0.87580  0.29590  0.04331  Biso   1.000  C
  C54      1.0000 0.37580  0.20410  0.54331  Biso   1.000  C
  C55      1.0000 0.12420  0.70410  0.95669  Biso   1.000  C
  C56      1.0000 0.62420  0.79590  0.45669  Biso   1.000  C
  H45      1.0000 0.94290  0.22470  0.04006  Biso   1.000  H
  H46      1.0000 0.44290  0.27530  0.54006  Biso   1.000  H
  H47      1.0000 0.05710  0.77530  0.95994  Biso   1.000  H
  H48      1.0000 0.55710  0.72470  0.45994  Biso   1.000  H
