data_image0
_cell_length_a       9.2075
_cell_length_b       9.6199
_cell_length_c       10.2189
_cell_angle_alpha    107.787
_cell_angle_beta     91.857
_cell_angle_gamma    115.389

_symmetry_space_group_name_H-M    "P 1"
_symmetry_int_tables_number       1

loop_
  _symmetry_equiv_pos_as_xyz
  'x, y, z'

loop_
  _atom_site_label
  _atom_site_occupancy
  _atom_site_fract_x
  _atom_site_fract_y
  _atom_site_fract_z
  _atom_site_thermal_displace_type
  _atom_site_B_iso_or_equiv
  _atom_site_type_symbol
  Cu1      1.0000 0.17066  0.82553  0.18945  Biso   1.000  Cu
  Cu2      1.0000 0.82934  0.17447  0.81055  Biso   1.000  Cu
  N1       1.0000 0.15800  0.63740  0.26960  Biso   1.000  N
  N2       1.0000 0.84200  0.36260  0.73040  Biso   1.000  N
  C1       1.0000 0.10690  0.47450  0.20780  Biso   1.000  C
  C2       1.0000 0.89310  0.52550  0.79220  Biso   1.000  C
  C3       1.0000 0.09920  0.37410  0.28380  Biso   1.000  C
  C4       1.0000 0.90080  0.62590  0.71620  Biso   1.000  C
  H1       1.0000 0.06030  0.25950  0.23660  Biso   1.000  H
  H2       1.0000 0.93970  0.74050  0.76340  Biso   1.000  H
  C5       1.0000 0.14840  0.44170  0.42850  Biso   1.000  C
  C6       1.0000 0.85160  0.55830  0.57150  Biso   1.000  C
  C7       1.0000 0.20340  0.60910  0.49210  Biso   1.000  C
  C8       1.0000 0.79660  0.39090  0.50790  Biso   1.000  C
  H3       1.0000 0.23930  0.66000  0.59070  Biso   1.000  H
  H4       1.0000 0.76070  0.34000  0.40930  Biso   1.000  H
  C9       1.0000 0.20580  0.70210  0.41110  Biso   1.000  C
  C10      1.0000 0.79420  0.29790  0.58890  Biso   1.000  C
  C11      1.0000 0.27280  0.88200  0.47270  Biso   1.000  C
  C12      1.0000 0.72720  0.11800  0.52730  Biso   1.000  C
  C13      1.0000 0.34010  0.97600  0.61240  Biso   1.000  C
  C14      1.0000 0.65990  0.02400  0.38760  Biso   1.000  C
  H5       1.0000 0.33690  0.92500  0.67930  Biso   1.000  H
  H6       1.0000 0.66310  0.07500  0.32070  Biso   1.000  H
  C15      1.0000 0.41270  0.14640  0.65320  Biso   1.000  C
  C16      1.0000 0.58730  0.85360  0.34680  Biso   1.000  C
  C17      1.0000 0.41800  0.22050  0.55470  Biso   1.000  C
  C18      1.0000 0.58200  0.77950  0.44530  Biso   1.000  C
  H7       1.0000 0.46710  0.33680  0.58120  Biso   1.000  H
  H8       1.0000 0.53290  0.66320  0.41880  Biso   1.000  H
  C19      1.0000 0.34950  0.11890  0.41700  Biso   1.000  C
  C20      1.0000 0.65050  0.88110  0.58300  Biso   1.000  C
  N3       1.0000 0.27820  0.95450  0.37990  Biso   1.000  N
  N4       1.0000 0.72180  0.04550  0.62010  Biso   1.000  N
  C21      1.0000 0.35160  0.17060  0.29220  Biso   1.000  C
  C22      1.0000 0.64840  0.82940  0.70780  Biso   1.000  C
  O1       1.0000 0.27230  0.05310  0.17650  Biso   1.000  O
  O2       1.0000 0.72770  0.94690  0.82350  Biso   1.000  O
  O3       1.0000 0.43270  0.31870  0.30790  Biso   1.000  O
  O4       1.0000 0.56730  0.68130  0.69210  Biso   1.000  O
  C23      1.0000 0.49220  0.24590  0.80490  Biso   1.000  C
  C24      1.0000 0.50780  0.75410  0.19510  Biso   1.000  C
  O5       1.0000 0.50270  0.38720  0.85477  Biso   1.000  O
  O6       1.0000 0.49730  0.61280  0.14523  Biso   1.000  O
  O7       1.0000 0.54380  0.18110  0.87200  Biso   1.000  O
  O8       1.0000 0.45620  0.81890  0.12800  Biso   1.000  O
  Sr1      1.0000 0.59020  0.40115  0.11836  Biso   1.000  Sr
  Sr2      1.0000 0.40980  0.59885  0.88164  Biso   1.000  Sr
  C25      1.0000 0.13910  0.33490  0.51470  Biso   1.000  C
  C26      1.0000 0.86090  0.66510  0.48530  Biso   1.000  C
  O9       1.0000 0.20080  0.40800  0.64408  Biso   1.000  O
  O10      1.0000 0.79920  0.59200  0.35592  Biso   1.000  O
  O11      1.0000 0.06850  0.18330  0.45200  Biso   1.000  O
  O12      1.0000 0.93150  0.81670  0.54800  Biso   1.000  O
  C27      1.0000 0.05960  0.40170  0.04970  Biso   1.000  C
  C28      1.0000 0.94040  0.59830  0.95030  Biso   1.000  C
  O13      1.0000 0.92340  0.26810  0.00440  Biso   1.000  O
  O14      1.0000 0.07660  0.73190  0.99560  Biso   1.000  O
  O15      1.0000 0.14730  0.46880  0.97682  Biso   1.000  O
  O16      1.0000 0.85270  0.53120  0.02318  Biso   1.000  O
  O17      1.0000 0.93740  0.85870  0.25320  Biso   1.000  O
  O18      1.0000 0.06260  0.14130  0.74680  Biso   1.000  O
  H9       1.0000 0.97800  0.95200  0.31400  Biso   1.000  H
  H10      1.0000 0.02200  0.04800  0.68600  Biso   1.000  H
  H11      1.0000 0.89800  0.79400  0.29300  Biso   1.000  H
  H12      1.0000 0.10200  0.20600  0.70700  Biso   1.000  H
  O19      1.0000 0.26860  0.22210  0.00830  Biso   1.000  O
  O20      1.0000 0.73140  0.77790  0.99170  Biso   1.000  O
  H13      1.0000 0.20500  0.18100  0.93100  Biso   1.000  H
  H14      1.0000 0.79500  0.81900  0.06900  Biso   1.000  H
  H15      1.0000 0.23300  0.15100  0.04900  Biso   1.000  H
  H16      1.0000 0.76700  0.84900  0.95100  Biso   1.000  H
  O21      1.0000 0.65620  0.16720  0.13960  Biso   1.000  O
  O22      1.0000 0.34380  0.83280  0.86040  Biso   1.000  O
  H17      1.0000 0.59900  0.06800  0.11700  Biso   1.000  H
  H18      1.0000 0.40100  0.93200  0.88300  Biso   1.000  H
  H19      1.0000 0.73400  0.18100  0.09900  Biso   1.000  H
  H20      1.0000 0.26600  0.81900  0.90100  Biso   1.000  H
