data_image0
_cell_length_a       12.0803
_cell_length_b       10.3128
_cell_length_c       11.8067
_cell_angle_alpha    90
_cell_angle_beta     90.197
_cell_angle_gamma    90

_symmetry_space_group_name_H-M    "P 1"
_symmetry_int_tables_number       1

loop_
  _symmetry_equiv_pos_as_xyz
  'x, y, z'

loop_
  _atom_site_label
  _atom_site_occupancy
  _atom_site_fract_x
  _atom_site_fract_y
  _atom_site_fract_z
  _atom_site_thermal_displace_type
  _atom_site_B_iso_or_equiv
  _atom_site_type_symbol
  Cu1      1.0000 0.50000  0.50000  0.50000  Biso   1.000  Cu
  Cu2      1.0000 0.50000  0.00000  0.00000  Biso   1.000  Cu
  O1       1.0000 0.36800  0.48940  0.59220  Biso   1.000  O
  O2       1.0000 0.63200  0.98940  0.90780  Biso   1.000  O
  O3       1.0000 0.63200  0.51060  0.40780  Biso   1.000  O
  O4       1.0000 0.36800  0.01060  0.09220  Biso   1.000  O
  O5       1.0000 0.08600  0.59650  0.82310  Biso   1.000  O
  O6       1.0000 0.91400  0.09650  0.67690  Biso   1.000  O
  O7       1.0000 0.91400  0.40350  0.17690  Biso   1.000  O
  O8       1.0000 0.08600  0.90350  0.32310  Biso   1.000  O
  O9       1.0000 0.40030  0.83320  0.85340  Biso   1.000  O
  O10      1.0000 0.59970  0.33320  0.64660  Biso   1.000  O
  O11      1.0000 0.59970  0.16680  0.14660  Biso   1.000  O
  O12      1.0000 0.40030  0.66680  0.35340  Biso   1.000  O
  N1       1.0000 0.55570  0.64630  0.59410  Biso   1.000  N
  N2       1.0000 0.44430  0.14630  0.90590  Biso   1.000  N
  N3       1.0000 0.44430  0.35370  0.40590  Biso   1.000  N
  N4       1.0000 0.55570  0.85370  0.09410  Biso   1.000  N
  N5       1.0000 0.24440  0.71240  0.84040  Biso   1.000  N
  N6       1.0000 0.75560  0.21240  0.65960  Biso   1.000  N
  N7       1.0000 0.75560  0.28760  0.15960  Biso   1.000  N
  N8       1.0000 0.24440  0.78760  0.34040  Biso   1.000  N
  N9       1.0000 0.23070  0.53950  0.71220  Biso   1.000  N
  N10      1.0000 0.76930  0.03950  0.78780  Biso   1.000  N
  N11      1.0000 0.76930  0.46050  0.28780  Biso   1.000  N
  N12      1.0000 0.23070  0.96050  0.21220  Biso   1.000  N
  C1       1.0000 0.50230  0.69880  0.67720  Biso   1.000  C
  C2       1.0000 0.49770  0.19880  0.82280  Biso   1.000  C
  C3       1.0000 0.49770  0.30120  0.32280  Biso   1.000  C
  C4       1.0000 0.50230  0.80120  0.17720  Biso   1.000  C
  H1       1.0000 0.53830  0.76560  0.71520  Biso   1.000  H
  H2       1.0000 0.46170  0.26560  0.78480  Biso   1.000  H
  H3       1.0000 0.46170  0.23440  0.28480  Biso   1.000  H
  H4       1.0000 0.53830  0.73440  0.21520  Biso   1.000  H
  C5       1.0000 0.39620  0.66650  0.71680  Biso   1.000  C
  C6       1.0000 0.60380  0.16650  0.78320  Biso   1.000  C
  C7       1.0000 0.60380  0.33350  0.28320  Biso   1.000  C
  C8       1.0000 0.39620  0.83350  0.21680  Biso   1.000  C
  C9       1.0000 0.35200  0.74380  0.80680  Biso   1.000  C
  C10      1.0000 0.64800  0.24380  0.69320  Biso   1.000  C
  C11      1.0000 0.64800  0.25620  0.19320  Biso   1.000  C
  C12      1.0000 0.35200  0.75620  0.30680  Biso   1.000  C
  C13      1.0000 0.18020  0.61590  0.79440  Biso   1.000  C
  C14      1.0000 0.81980  0.11590  0.70560  Biso   1.000  C
  C15      1.0000 0.81980  0.38410  0.20560  Biso   1.000  C
  C16      1.0000 0.18020  0.88410  0.29440  Biso   1.000  C
  C17      1.0000 0.33520  0.56340  0.67080  Biso   1.000  C
  C18      1.0000 0.66480  0.06340  0.82920  Biso   1.000  C
  C19      1.0000 0.66480  0.43660  0.32920  Biso   1.000  C
  C20      1.0000 0.33520  0.93660  0.17080  Biso   1.000  C
  C21      1.0000 0.16540  0.43270  0.66340  Biso   1.000  C
  C22      1.0000 0.83460  0.93270  0.83660  Biso   1.000  C
  C23      1.0000 0.83460  0.56730  0.33660  Biso   1.000  C
  C24      1.0000 0.16540  0.06730  0.16340  Biso   1.000  C
  H5       1.0000 0.09500  0.42700  0.70100  Biso   1.000  H
  H6       1.0000 0.90500  0.92700  0.79900  Biso   1.000  H
  H7       1.0000 0.90500  0.57300  0.29900  Biso   1.000  H
  H8       1.0000 0.09500  0.07300  0.20100  Biso   1.000  H
  H9       1.0000 0.15300  0.44900  0.58420  Biso   1.000  H
  H10      1.0000 0.84700  0.94900  0.91580  Biso   1.000  H
  H11      1.0000 0.84700  0.55100  0.41580  Biso   1.000  H
  H12      1.0000 0.15300  0.05100  0.08420  Biso   1.000  H
  H13      1.0000 0.20500  0.35260  0.67300  Biso   1.000  H
  H14      1.0000 0.79500  0.85260  0.82700  Biso   1.000  H
  H15      1.0000 0.79500  0.64740  0.32700  Biso   1.000  H
  H16      1.0000 0.20500  0.14740  0.17300  Biso   1.000  H
  C25      1.0000 0.19220  0.79170  0.92910  Biso   1.000  C
  C26      1.0000 0.80780  0.29170  0.57090  Biso   1.000  C
  C27      1.0000 0.80780  0.20830  0.07090  Biso   1.000  C
  C28      1.0000 0.19220  0.70830  0.42910  Biso   1.000  C
  H17      1.0000 0.11720  0.81100  0.90800  Biso   1.000  H
  H18      1.0000 0.88280  0.31100  0.59200  Biso   1.000  H
  H19      1.0000 0.88280  0.18900  0.09200  Biso   1.000  H
  H20      1.0000 0.11720  0.68900  0.40800  Biso   1.000  H
  H21      1.0000 0.19300  0.74500  0.99940  Biso   1.000  H
  H22      1.0000 0.80700  0.24500  0.50060  Biso   1.000  H
  H23      1.0000 0.80700  0.25500  0.00060  Biso   1.000  H
  H24      1.0000 0.19300  0.75500  0.49940  Biso   1.000  H
  H25      1.0000 0.23300  0.87100  0.93800  Biso   1.000  H
  H26      1.0000 0.76700  0.37100  0.56200  Biso   1.000  H
  H27      1.0000 0.76700  0.12900  0.06200  Biso   1.000  H
  H28      1.0000 0.23300  0.62900  0.43800  Biso   1.000  H
  C29      1.0000 0.67290  0.69080  0.58410  Biso   1.000  C
  C30      1.0000 0.32710  0.19080  0.91590  Biso   1.000  C
  C31      1.0000 0.32710  0.30920  0.41590  Biso   1.000  C
  C32      1.0000 0.67290  0.80920  0.08410  Biso   1.000  C
  C33      1.0000 0.69330  0.79610  0.52270  Biso   1.000  C
  C34      1.0000 0.30670  0.29610  0.97730  Biso   1.000  C
  C35      1.0000 0.30670  0.20390  0.47730  Biso   1.000  C
  C36      1.0000 0.69330  0.70390  0.02270  Biso   1.000  C
  C37      1.0000 0.60440  0.86580  0.46330  Biso   1.000  C
  C38      1.0000 0.39560  0.36580  0.03670  Biso   1.000  C
  C39      1.0000 0.39560  0.13420  0.53670  Biso   1.000  C
  C40      1.0000 0.60440  0.63420  0.96330  Biso   1.000  C
  H29      1.0000 0.53080  0.83950  0.46510  Biso   1.000  H
  H30      1.0000 0.46920  0.33950  0.03490  Biso   1.000  H
  H31      1.0000 0.46920  0.16050  0.53490  Biso   1.000  H
  H32      1.0000 0.53080  0.66050  0.96510  Biso   1.000  H
  C41      1.0000 0.63940  0.97270  0.40510  Biso   1.000  C
  C42      1.0000 0.36060  0.47270  0.09490  Biso   1.000  C
  C43      1.0000 0.36060  0.02730  0.59490  Biso   1.000  C
  C44      1.0000 0.63940  0.52730  0.90510  Biso   1.000  C
  H33      1.0000 0.58460  0.01870  0.36700  Biso   1.000  H
  H34      1.0000 0.41540  0.51870  0.13300  Biso   1.000  H
  H35      1.0000 0.41540  0.98130  0.63300  Biso   1.000  H
  H36      1.0000 0.58460  0.48130  0.86700  Biso   1.000  H
  C45      1.0000 0.74400  0.02080  0.39570  Biso   1.000  C
  C46      1.0000 0.25600  0.52080  0.10430  Biso   1.000  C
  C47      1.0000 0.25600  0.97920  0.60430  Biso   1.000  C
  C48      1.0000 0.74400  0.47920  0.89570  Biso   1.000  C
  H37      1.0000 0.75990  0.09680  0.35670  Biso   1.000  H
  H38      1.0000 0.24010  0.59680  0.14330  Biso   1.000  H
  H39      1.0000 0.24010  0.90320  0.64330  Biso   1.000  H
  H40      1.0000 0.75990  0.40320  0.85670  Biso   1.000  H
  C49      1.0000 0.82000  0.95160  0.44590  Biso   1.000  C
  C50      1.0000 0.18000  0.45160  0.05410  Biso   1.000  C
  C51      1.0000 0.18000  0.04840  0.55410  Biso   1.000  C
  C52      1.0000 0.82000  0.54840  0.94590  Biso   1.000  C
  H41      1.0000 0.89260  0.97970  0.43680  Biso   1.000  H
  H42      1.0000 0.10740  0.47970  0.06320  Biso   1.000  H
  H43      1.0000 0.10740  0.02030  0.56320  Biso   1.000  H
  H44      1.0000 0.89260  0.52030  0.93680  Biso   1.000  H
  C53      1.0000 0.80560  0.83950  0.51220  Biso   1.000  C
  C54      1.0000 0.19440  0.33950  0.98780  Biso   1.000  C
  C55      1.0000 0.19440  0.16050  0.48780  Biso   1.000  C
  C56      1.0000 0.80560  0.66050  0.01220  Biso   1.000  C
  C57      1.0000 0.89470  0.77990  0.56360  Biso   1.000  C
  C58      1.0000 0.10530  0.27990  0.93640  Biso   1.000  C
  C59      1.0000 0.10530  0.22010  0.43640  Biso   1.000  C
  C60      1.0000 0.89470  0.72010  0.06360  Biso   1.000  C
  H45      1.0000 0.96660  0.80990  0.55420  Biso   1.000  H
  H46      1.0000 0.03340  0.30990  0.94580  Biso   1.000  H
  H47      1.0000 0.03340  0.19010  0.44580  Biso   1.000  H
  H48      1.0000 0.96660  0.69010  0.05420  Biso   1.000  H
  C61      1.0000 0.86940  0.66510  0.63470  Biso   1.000  C
  C62      1.0000 0.13060  0.16510  0.86530  Biso   1.000  C
  C63      1.0000 0.13060  0.33490  0.36530  Biso   1.000  C
  C64      1.0000 0.86940  0.83490  0.13470  Biso   1.000  C
  H49      1.0000 0.92390  0.62040  0.67460  Biso   1.000  H
  H50      1.0000 0.07610  0.12040  0.82540  Biso   1.000  H
  H51      1.0000 0.07610  0.37960  0.32540  Biso   1.000  H
  H52      1.0000 0.92390  0.87960  0.17460  Biso   1.000  H
  C65      1.0000 0.76000  0.62930  0.63760  Biso   1.000  C
  C66      1.0000 0.24000  0.12930  0.86240  Biso   1.000  C
  C67      1.0000 0.24000  0.37070  0.36240  Biso   1.000  C
  C68      1.0000 0.76000  0.87070  0.13760  Biso   1.000  C
  H53      1.0000 0.74290  0.55600  0.67990  Biso   1.000  H
  H54      1.0000 0.25710  0.05600  0.82010  Biso   1.000  H
  H55      1.0000 0.25710  0.44400  0.32010  Biso   1.000  H
  H56      1.0000 0.74290  0.94400  0.17990  Biso   1.000  H
