data_image0
_cell_length_a       11.8961
_cell_length_b       9.4059
_cell_length_c       22.1807
_cell_angle_alpha    90
_cell_angle_beta     90.5
_cell_angle_gamma    90

_symmetry_space_group_name_H-M    "P 1"
_symmetry_int_tables_number       1

loop_
  _symmetry_equiv_pos_as_xyz
  'x, y, z'

loop_
  _atom_site_label
  _atom_site_occupancy
  _atom_site_fract_x
  _atom_site_fract_y
  _atom_site_fract_z
  _atom_site_thermal_displace_type
  _atom_site_B_iso_or_equiv
  _atom_site_type_symbol
  Cu1      1.0000 0.25000  0.75000  0.75000  Biso   1.000  Cu
  Cu2      1.0000 0.25000  0.75000  0.25000  Biso   1.000  Cu
  Cu3      1.0000 0.75000  0.25000  0.25000  Biso   1.000  Cu
  Cu4      1.0000 0.75000  0.25000  0.75000  Biso   1.000  Cu
  O1       1.0000 0.33482  0.76220  0.67524  Biso   1.000  O
  O2       1.0000 0.16518  0.76220  0.32476  Biso   1.000  O
  O3       1.0000 0.83482  0.26220  0.17524  Biso   1.000  O
  O4       1.0000 0.66518  0.26220  0.82476  Biso   1.000  O
  O5       1.0000 0.66518  0.23780  0.32476  Biso   1.000  O
  O6       1.0000 0.83482  0.23780  0.67524  Biso   1.000  O
  O7       1.0000 0.16518  0.73780  0.82476  Biso   1.000  O
  O8       1.0000 0.33482  0.73780  0.17524  Biso   1.000  O
  O9       1.0000 0.59410  0.38540  0.68781  Biso   1.000  O
  O10      1.0000 0.90590  0.38540  0.31219  Biso   1.000  O
  O11      1.0000 0.09410  0.88540  0.18781  Biso   1.000  O
  O12      1.0000 0.40590  0.88540  0.81219  Biso   1.000  O
  O13      1.0000 0.40590  0.61460  0.31219  Biso   1.000  O
  O14      1.0000 0.09410  0.61460  0.68781  Biso   1.000  O
  O15      1.0000 0.90590  0.11460  0.81219  Biso   1.000  O
  O16      1.0000 0.59410  0.11460  0.18781  Biso   1.000  O
  O17      1.0000 0.55730  0.65000  0.51812  Biso   1.000  O
  O18      1.0000 0.94270  0.65000  0.48188  Biso   1.000  O
  O19      1.0000 0.05730  0.15000  0.01812  Biso   1.000  O
  O20      1.0000 0.44270  0.15000  0.98188  Biso   1.000  O
  O21      1.0000 0.44270  0.35000  0.48188  Biso   1.000  O
  O22      1.0000 0.05730  0.35000  0.51812  Biso   1.000  O
  O23      1.0000 0.94270  0.85000  0.98188  Biso   1.000  O
  O24      1.0000 0.55730  0.85000  0.01812  Biso   1.000  O
  N1       1.0000 0.32480  0.56860  0.76974  Biso   1.000  N
  N2       1.0000 0.17520  0.56860  0.23026  Biso   1.000  N
  N3       1.0000 0.82480  0.06860  0.26974  Biso   1.000  N
  N4       1.0000 0.67520  0.06860  0.73026  Biso   1.000  N
  N5       1.0000 0.67520  0.43140  0.23026  Biso   1.000  N
  N6       1.0000 0.82480  0.43140  0.76974  Biso   1.000  N
  N7       1.0000 0.17520  0.93140  0.73026  Biso   1.000  N
  N8       1.0000 0.32480  0.93140  0.26974  Biso   1.000  N
  N9       1.0000 0.44910  0.70900  0.59809  Biso   1.000  N
  N10      1.0000 0.05090  0.70900  0.40191  Biso   1.000  N
  N11      1.0000 0.94910  0.20900  0.09809  Biso   1.000  N
  N12      1.0000 0.55090  0.20900  0.90191  Biso   1.000  N
  N13      1.0000 0.55090  0.29100  0.40191  Biso   1.000  N
  N14      1.0000 0.94910  0.29100  0.59809  Biso   1.000  N
  N15      1.0000 0.05090  0.79100  0.90191  Biso   1.000  N
  N16      1.0000 0.44910  0.79100  0.09809  Biso   1.000  N
  N17      1.0000 0.58020  0.52250  0.60390  Biso   1.000  N
  N18      1.0000 0.91980  0.52250  0.39610  Biso   1.000  N
  N19      1.0000 0.08020  0.02250  0.10390  Biso   1.000  N
  N20      1.0000 0.41980  0.02250  0.89610  Biso   1.000  N
  N21      1.0000 0.41980  0.47750  0.39610  Biso   1.000  N
  N22      1.0000 0.08020  0.47750  0.60390  Biso   1.000  N
  N23      1.0000 0.91980  0.97750  0.89610  Biso   1.000  N
  N24      1.0000 0.58020  0.97750  0.10390  Biso   1.000  N
  C1       1.0000 0.40950  0.51590  0.74113  Biso   1.000  C
  C2       1.0000 0.09050  0.51590  0.25887  Biso   1.000  C
  C3       1.0000 0.90950  0.01590  0.24113  Biso   1.000  C
  C4       1.0000 0.59050  0.01590  0.75887  Biso   1.000  C
  C5       1.0000 0.59050  0.48410  0.25887  Biso   1.000  C
  C6       1.0000 0.90950  0.48410  0.74113  Biso   1.000  C
  C7       1.0000 0.09050  0.98410  0.75887  Biso   1.000  C
  C8       1.0000 0.40950  0.98410  0.24113  Biso   1.000  C
  H1       1.0000 0.44240  0.43530  0.75794  Biso   1.000  H
  H2       1.0000 0.05760  0.43530  0.24206  Biso   1.000  H
  H3       1.0000 0.94240  0.93530  0.25794  Biso   1.000  H
  H4       1.0000 0.55760  0.93530  0.74206  Biso   1.000  H
  H5       1.0000 0.55760  0.56470  0.24206  Biso   1.000  H
  H6       1.0000 0.94240  0.56470  0.75794  Biso   1.000  H
  H7       1.0000 0.05760  0.06470  0.74206  Biso   1.000  H
  H8       1.0000 0.44240  0.06470  0.25794  Biso   1.000  H
  C9       1.0000 0.45780  0.56700  0.68703  Biso   1.000  C
  C10      1.0000 0.04220  0.56700  0.31297  Biso   1.000  C
  C11      1.0000 0.95780  0.06700  0.18703  Biso   1.000  C
  C12      1.0000 0.54220  0.06700  0.81297  Biso   1.000  C
  C13      1.0000 0.54220  0.43300  0.31297  Biso   1.000  C
  C14      1.0000 0.95780  0.43300  0.68703  Biso   1.000  C
  C15      1.0000 0.04220  0.93300  0.81297  Biso   1.000  C
  C16      1.0000 0.45780  0.93300  0.18703  Biso   1.000  C
  C17      1.0000 0.41140  0.68170  0.65602  Biso   1.000  C
  C18      1.0000 0.08860  0.68170  0.34398  Biso   1.000  C
  C19      1.0000 0.91140  0.18170  0.15602  Biso   1.000  C
  C20      1.0000 0.58860  0.18170  0.84398  Biso   1.000  C
  C21      1.0000 0.58860  0.31830  0.34398  Biso   1.000  C
  C22      1.0000 0.91140  0.31830  0.65602  Biso   1.000  C
  C23      1.0000 0.08860  0.81830  0.84398  Biso   1.000  C
  C24      1.0000 0.41140  0.81830  0.15602  Biso   1.000  C
  C25      1.0000 0.53080  0.62730  0.56971  Biso   1.000  C
  C26      1.0000 0.96920  0.62730  0.43029  Biso   1.000  C
  C27      1.0000 0.03080  0.12730  0.06971  Biso   1.000  C
  C28      1.0000 0.46920  0.12730  0.93029  Biso   1.000  C
  C29      1.0000 0.46920  0.37270  0.43029  Biso   1.000  C
  C30      1.0000 0.03080  0.37270  0.56971  Biso   1.000  C
  C31      1.0000 0.96920  0.87270  0.93029  Biso   1.000  C
  C32      1.0000 0.53080  0.87270  0.06971  Biso   1.000  C
  C33      1.0000 0.54770  0.48530  0.66248  Biso   1.000  C
  C34      1.0000 0.95230  0.48530  0.33752  Biso   1.000  C
  C35      1.0000 0.04770  0.98530  0.16248  Biso   1.000  C
  C36      1.0000 0.45230  0.98530  0.83752  Biso   1.000  C
  C37      1.0000 0.45230  0.51470  0.33752  Biso   1.000  C
  C38      1.0000 0.04770  0.51470  0.66248  Biso   1.000  C
  C39      1.0000 0.95230  0.01470  0.83752  Biso   1.000  C
  C40      1.0000 0.54770  0.01470  0.16248  Biso   1.000  C
  C41      1.0000 0.66940  0.43970  0.57581  Biso   1.000  C
  C42      1.0000 0.83060  0.43970  0.42419  Biso   1.000  C
  C43      1.0000 0.16940  0.93970  0.07581  Biso   1.000  C
  C44      1.0000 0.33060  0.93970  0.92419  Biso   1.000  C
  C45      1.0000 0.33060  0.56030  0.42419  Biso   1.000  C
  C46      1.0000 0.16940  0.56030  0.57581  Biso   1.000  C
  C47      1.0000 0.83060  0.06030  0.92419  Biso   1.000  C
  C48      1.0000 0.66940  0.06030  0.07581  Biso   1.000  C
  H9       1.0000 0.64490  0.40800  0.53670  Biso   1.000  H
  H10      1.0000 0.85510  0.40800  0.46330  Biso   1.000  H
  H11      1.0000 0.14490  0.90800  0.03670  Biso   1.000  H
  H12      1.0000 0.35510  0.90800  0.96330  Biso   1.000  H
  H13      1.0000 0.35510  0.59200  0.46330  Biso   1.000  H
  H14      1.0000 0.14490  0.59200  0.53670  Biso   1.000  H
  H15      1.0000 0.85510  0.09200  0.96330  Biso   1.000  H
  H16      1.0000 0.64490  0.09200  0.03670  Biso   1.000  H
  H17      1.0000 0.73530  0.49770  0.57180  Biso   1.000  H
  H18      1.0000 0.76470  0.49770  0.42820  Biso   1.000  H
  H19      1.0000 0.23530  0.99770  0.07180  Biso   1.000  H
  H20      1.0000 0.26470  0.99770  0.92820  Biso   1.000  H
  H21      1.0000 0.26470  0.50230  0.42820  Biso   1.000  H
  H22      1.0000 0.23530  0.50230  0.57180  Biso   1.000  H
  H23      1.0000 0.76470  0.00230  0.92820  Biso   1.000  H
  H24      1.0000 0.73530  0.00230  0.07180  Biso   1.000  H
  H25      1.0000 0.68670  0.35860  0.60050  Biso   1.000  H
  H26      1.0000 0.81330  0.35860  0.39950  Biso   1.000  H
  H27      1.0000 0.18670  0.85860  0.10050  Biso   1.000  H
  H28      1.0000 0.31330  0.85860  0.89950  Biso   1.000  H
  H29      1.0000 0.31330  0.64140  0.39950  Biso   1.000  H
  H30      1.0000 0.18670  0.64140  0.60050  Biso   1.000  H
  H31      1.0000 0.81330  0.14140  0.89950  Biso   1.000  H
  H32      1.0000 0.68670  0.14140  0.10050  Biso   1.000  H
  C49      1.0000 0.40070  0.82680  0.56416  Biso   1.000  C
  C50      1.0000 0.09930  0.82680  0.43584  Biso   1.000  C
  C51      1.0000 0.90070  0.32680  0.06416  Biso   1.000  C
  C52      1.0000 0.59930  0.32680  0.93584  Biso   1.000  C
  C53      1.0000 0.59930  0.17320  0.43584  Biso   1.000  C
  C54      1.0000 0.90070  0.17320  0.56416  Biso   1.000  C
  C55      1.0000 0.09930  0.67320  0.93584  Biso   1.000  C
  C56      1.0000 0.40070  0.67320  0.06416  Biso   1.000  C
  H33      1.0000 0.32290  0.80730  0.55560  Biso   1.000  H
  H34      1.0000 0.17710  0.80730  0.44440  Biso   1.000  H
  H35      1.0000 0.82290  0.30730  0.05560  Biso   1.000  H
  H36      1.0000 0.67710  0.30730  0.94440  Biso   1.000  H
  H37      1.0000 0.67710  0.19270  0.44440  Biso   1.000  H
  H38      1.0000 0.82290  0.19270  0.55560  Biso   1.000  H
  H39      1.0000 0.17710  0.69270  0.94440  Biso   1.000  H
  H40      1.0000 0.32290  0.69270  0.05560  Biso   1.000  H
  H41      1.0000 0.40670  0.91250  0.58750  Biso   1.000  H
  H42      1.0000 0.09330  0.91250  0.41250  Biso   1.000  H
  H43      1.0000 0.90670  0.41250  0.08750  Biso   1.000  H
  H44      1.0000 0.59330  0.41250  0.91250  Biso   1.000  H
  H45      1.0000 0.59330  0.08750  0.41250  Biso   1.000  H
  H46      1.0000 0.90670  0.08750  0.58750  Biso   1.000  H
  H47      1.0000 0.09330  0.58750  0.91250  Biso   1.000  H
  H48      1.0000 0.40670  0.58750  0.08750  Biso   1.000  H
  H49      1.0000 0.44050  0.83820  0.52700  Biso   1.000  H
  H50      1.0000 0.05950  0.83820  0.47300  Biso   1.000  H
  H51      1.0000 0.94050  0.33820  0.02700  Biso   1.000  H
  H52      1.0000 0.55950  0.33820  0.97300  Biso   1.000  H
  H53      1.0000 0.55950  0.16180  0.47300  Biso   1.000  H
  H54      1.0000 0.94050  0.16180  0.52700  Biso   1.000  H
  H55      1.0000 0.05950  0.66180  0.97300  Biso   1.000  H
  H56      1.0000 0.44050  0.66180  0.02700  Biso   1.000  H
  C57      1.0000 0.28580  0.48230  0.81885  Biso   1.000  C
  C58      1.0000 0.21420  0.48230  0.18115  Biso   1.000  C
  C59      1.0000 0.78580  0.98230  0.31885  Biso   1.000  C
  C60      1.0000 0.71420  0.98230  0.68115  Biso   1.000  C
  C61      1.0000 0.71420  0.51770  0.18115  Biso   1.000  C
  C62      1.0000 0.78580  0.51770  0.81885  Biso   1.000  C
  C63      1.0000 0.21420  0.01770  0.68115  Biso   1.000  C
  C64      1.0000 0.28580  0.01770  0.31885  Biso   1.000  C
  C65      1.0000 0.19440  0.39770  0.81130  Biso   1.000  C
  C66      1.0000 0.30560  0.39770  0.18870  Biso   1.000  C
  C67      1.0000 0.69440  0.89770  0.31130  Biso   1.000  C
  C68      1.0000 0.80560  0.89770  0.68870  Biso   1.000  C
  C69      1.0000 0.80560  0.60230  0.18870  Biso   1.000  C
  C70      1.0000 0.69440  0.60230  0.81130  Biso   1.000  C
  C71      1.0000 0.30560  0.10230  0.68870  Biso   1.000  C
  C72      1.0000 0.19440  0.10230  0.31130  Biso   1.000  C
  H57      1.0000 0.15670  0.39580  0.77440  Biso   1.000  H
  H58      1.0000 0.34330  0.39580  0.22560  Biso   1.000  H
  H59      1.0000 0.65670  0.89580  0.27440  Biso   1.000  H
  H60      1.0000 0.84330  0.89580  0.72560  Biso   1.000  H
  H61      1.0000 0.84330  0.60420  0.22560  Biso   1.000  H
  H62      1.0000 0.65670  0.60420  0.77440  Biso   1.000  H
  H63      1.0000 0.34330  0.10420  0.72560  Biso   1.000  H
  H64      1.0000 0.15670  0.10420  0.27440  Biso   1.000  H
  C73      1.0000 0.15720  0.31420  0.85852  Biso   1.000  C
  C74      1.0000 0.34280  0.31420  0.14148  Biso   1.000  C
  C75      1.0000 0.65720  0.81420  0.35852  Biso   1.000  C
  C76      1.0000 0.84280  0.81420  0.64148  Biso   1.000  C
  C77      1.0000 0.84280  0.68580  0.14148  Biso   1.000  C
  C78      1.0000 0.65720  0.68580  0.85852  Biso   1.000  C
  C79      1.0000 0.34280  0.18580  0.64148  Biso   1.000  C
  C80      1.0000 0.15720  0.18580  0.35852  Biso   1.000  C
  H65      1.0000 0.09540  0.25470  0.85320  Biso   1.000  H
  H66      1.0000 0.40460  0.25470  0.14680  Biso   1.000  H
  H67      1.0000 0.59540  0.75470  0.35320  Biso   1.000  H
  H68      1.0000 0.90460  0.75470  0.64680  Biso   1.000  H
  H69      1.0000 0.90460  0.74530  0.14680  Biso   1.000  H
  H70      1.0000 0.59540  0.74530  0.85320  Biso   1.000  H
  H71      1.0000 0.40460  0.24530  0.64680  Biso   1.000  H
  H72      1.0000 0.09540  0.24530  0.35320  Biso   1.000  H
  C81      1.0000 0.21210  0.31950  0.91337  Biso   1.000  C
  C82      1.0000 0.28790  0.31950  0.08663  Biso   1.000  C
  C83      1.0000 0.71210  0.81950  0.41337  Biso   1.000  C
  C84      1.0000 0.78790  0.81950  0.58663  Biso   1.000  C
  C85      1.0000 0.78790  0.68050  0.08663  Biso   1.000  C
  C86      1.0000 0.71210  0.68050  0.91337  Biso   1.000  C
  C87      1.0000 0.28790  0.18050  0.58663  Biso   1.000  C
  C88      1.0000 0.21210  0.18050  0.41337  Biso   1.000  C
  H73      1.0000 0.18710  0.26400  0.94525  Biso   1.000  H
  H74      1.0000 0.31290  0.26400  0.05475  Biso   1.000  H
  H75      1.0000 0.68710  0.76400  0.44525  Biso   1.000  H
  H76      1.0000 0.81290  0.76400  0.55475  Biso   1.000  H
  H77      1.0000 0.81290  0.73600  0.05475  Biso   1.000  H
  H78      1.0000 0.68710  0.73600  0.94525  Biso   1.000  H
  H79      1.0000 0.31290  0.23600  0.55475  Biso   1.000  H
  H80      1.0000 0.18710  0.23600  0.44525  Biso   1.000  H
  C89      1.0000 0.30240  0.40540  0.92097  Biso   1.000  C
  C90      1.0000 0.19760  0.40540  0.07903  Biso   1.000  C
  C91      1.0000 0.80240  0.90540  0.42097  Biso   1.000  C
  C92      1.0000 0.69760  0.90540  0.57903  Biso   1.000  C
  C93      1.0000 0.69760  0.59460  0.07903  Biso   1.000  C
  C94      1.0000 0.80240  0.59460  0.92097  Biso   1.000  C
  C95      1.0000 0.19760  0.09460  0.57903  Biso   1.000  C
  C96      1.0000 0.30240  0.09460  0.42097  Biso   1.000  C
  H81      1.0000 0.33950  0.40780  0.95803  Biso   1.000  H
  H82      1.0000 0.16050  0.40780  0.04197  Biso   1.000  H
  H83      1.0000 0.83950  0.90780  0.45803  Biso   1.000  H
  H84      1.0000 0.66050  0.90780  0.54197  Biso   1.000  H
  H85      1.0000 0.66050  0.59220  0.04197  Biso   1.000  H
  H86      1.0000 0.83950  0.59220  0.95803  Biso   1.000  H
  H87      1.0000 0.16050  0.09220  0.54197  Biso   1.000  H
  H88      1.0000 0.33950  0.09220  0.45803  Biso   1.000  H
  C97      1.0000 0.34000  0.48950  0.87430  Biso   1.000  C
  C98      1.0000 0.16000  0.48950  0.12570  Biso   1.000  C
  C99      1.0000 0.84000  0.98950  0.37430  Biso   1.000  C
  C100     1.0000 0.66000  0.98950  0.62570  Biso   1.000  C
  C101     1.0000 0.66000  0.51050  0.12570  Biso   1.000  C
  C102     1.0000 0.84000  0.51050  0.87430  Biso   1.000  C
  C103     1.0000 0.16000  0.01050  0.62570  Biso   1.000  C
  C104     1.0000 0.34000  0.01050  0.37430  Biso   1.000  C
  H89      1.0000 0.40090  0.55010  0.88002  Biso   1.000  H
  H90      1.0000 0.09910  0.55010  0.11998  Biso   1.000  H
  H91      1.0000 0.90090  0.05010  0.38002  Biso   1.000  H
  H92      1.0000 0.59910  0.05010  0.61998  Biso   1.000  H
  H93      1.0000 0.59910  0.44990  0.11998  Biso   1.000  H
  H94      1.0000 0.90090  0.44990  0.88002  Biso   1.000  H
  H95      1.0000 0.09910  0.94990  0.61998  Biso   1.000  H
  H96      1.0000 0.40090  0.94990  0.38002  Biso   1.000  H
