data_image0
_cell_length_a       8.895
_cell_length_b       8.895
_cell_length_c       11.46
_cell_angle_alpha    90
_cell_angle_beta     90
_cell_angle_gamma    120

_symmetry_space_group_name_H-M    "P 1"
_symmetry_int_tables_number       1

loop_
  _symmetry_equiv_pos_as_xyz
  'x, y, z'

loop_
  _atom_site_label
  _atom_site_occupancy
  _atom_site_fract_x
  _atom_site_fract_y
  _atom_site_fract_z
  _atom_site_thermal_displace_type
  _atom_site_B_iso_or_equiv
  _atom_site_type_symbol
  Cu1      1.0000 0.88879  0.29558  0.99452  Biso   1.000  Cu
  Cu2      1.0000 0.70442  0.59321  0.99452  Biso   1.000  Cu
  Cu3      1.0000 0.40679  0.11121  0.99452  Biso   1.000  Cu
  Cu4      1.0000 0.11121  0.70442  0.00548  Biso   1.000  Cu
  Cu5      1.0000 0.29558  0.40679  0.00548  Biso   1.000  Cu
  Cu6      1.0000 0.59321  0.88879  0.00548  Biso   1.000  Cu
  C1       1.0000 0.45790  0.61500  0.62630  Biso   1.000  C
  C2       1.0000 0.38500  0.84290  0.62630  Biso   1.000  C
  C3       1.0000 0.15710  0.54210  0.62630  Biso   1.000  C
  C4       1.0000 0.54210  0.38500  0.37370  Biso   1.000  C
  C5       1.0000 0.61500  0.15710  0.37370  Biso   1.000  C
  C6       1.0000 0.84290  0.45790  0.37370  Biso   1.000  C
  H1       1.0000 0.54100  0.58070  0.62800  Biso   1.000  H
  H2       1.0000 0.41930  0.96030  0.62800  Biso   1.000  H
  H3       1.0000 0.03970  0.45900  0.62800  Biso   1.000  H
  H4       1.0000 0.45900  0.41930  0.37200  Biso   1.000  H
  H5       1.0000 0.58070  0.03970  0.37200  Biso   1.000  H
  H6       1.0000 0.96030  0.54100  0.37200  Biso   1.000  H
  C7       1.0000 0.50850  0.79070  0.62500  Biso   1.000  C
  C8       1.0000 0.20930  0.71780  0.62500  Biso   1.000  C
  C9       1.0000 0.28220  0.49150  0.62500  Biso   1.000  C
  C10      1.0000 0.49150  0.20930  0.37500  Biso   1.000  C
  C11      1.0000 0.79070  0.28220  0.37500  Biso   1.000  C
  C12      1.0000 0.71780  0.50850  0.37500  Biso   1.000  C
  C13      1.0000 0.75830  0.07680  0.65470  Biso   1.000  C
  C14      1.0000 0.92320  0.68150  0.65470  Biso   1.000  C
  C15      1.0000 0.31850  0.24170  0.65470  Biso   1.000  C
  C16      1.0000 0.24170  0.92320  0.34530  Biso   1.000  C
  C17      1.0000 0.07680  0.31850  0.34530  Biso   1.000  C
  C18      1.0000 0.68150  0.75830  0.34530  Biso   1.000  C
  H7       1.0000 0.69440  0.12720  0.61950  Biso   1.000  H
  H8       1.0000 0.87280  0.56720  0.61950  Biso   1.000  H
  H9       1.0000 0.43280  0.30560  0.61950  Biso   1.000  H
  H10      1.0000 0.30560  0.87280  0.38050  Biso   1.000  H
  H11      1.0000 0.12720  0.43280  0.38050  Biso   1.000  H
  H12      1.0000 0.56720  0.69440  0.38050  Biso   1.000  H
  H13      1.0000 0.87710  0.14160  0.62700  Biso   1.000  H
  H14      1.0000 0.85840  0.73550  0.62700  Biso   1.000  H
  H15      1.0000 0.26450  0.12290  0.62700  Biso   1.000  H
  H16      1.0000 0.12290  0.85840  0.37300  Biso   1.000  H
  H17      1.0000 0.14160  0.26450  0.37300  Biso   1.000  H
  H18      1.0000 0.73550  0.87710  0.37300  Biso   1.000  H
  C19      1.0000 0.75700  0.09510  0.78710  Biso   1.000  C
  C20      1.0000 0.90490  0.66190  0.78710  Biso   1.000  C
  C21      1.0000 0.33810  0.24300  0.78710  Biso   1.000  C
  C22      1.0000 0.24300  0.90490  0.21290  Biso   1.000  C
  C23      1.0000 0.09510  0.33810  0.21290  Biso   1.000  C
  C24      1.0000 0.66190  0.75700  0.21290  Biso   1.000  C
  O1       1.0000 0.68420  0.95820  0.84310  Biso   1.000  O
  O2       1.0000 0.04180  0.72600  0.84310  Biso   1.000  O
  O3       1.0000 0.27400  0.31580  0.84310  Biso   1.000  O
  O4       1.0000 0.31580  0.04180  0.15690  Biso   1.000  O
  O5       1.0000 0.95820  0.27400  0.15690  Biso   1.000  O
  O6       1.0000 0.72600  0.68420  0.15690  Biso   1.000  O
  O7       1.0000 0.65970  0.12620  0.04660  Biso   1.000  O
  O8       1.0000 0.87380  0.53350  0.04660  Biso   1.000  O
  O9       1.0000 0.46650  0.34030  0.04660  Biso   1.000  O
  O10      1.0000 0.34030  0.87380  0.95340  Biso   1.000  O
  O11      1.0000 0.12620  0.46650  0.95340  Biso   1.000  O
  O12      1.0000 0.53350  0.65970  0.95340  Biso   1.000  O
  H19      1.0000 0.66340  0.13110  0.13210  Biso   1.000  H
  H20      1.0000 0.86890  0.53230  0.13210  Biso   1.000  H
  H21      1.0000 0.46770  0.33660  0.13210  Biso   1.000  H
  H22      1.0000 0.33660  0.86890  0.86790  Biso   1.000  H
  H23      1.0000 0.13110  0.46770  0.86790  Biso   1.000  H
  H24      1.0000 0.53230  0.66340  0.86790  Biso   1.000  H
  O13      1.0000 0.83350  0.24660  0.82630  Biso   1.000  O
  O14      1.0000 0.75340  0.58690  0.82630  Biso   1.000  O
  O15      1.0000 0.41310  0.16650  0.82630  Biso   1.000  O
  O16      1.0000 0.16650  0.75340  0.17370  Biso   1.000  O
  O17      1.0000 0.24660  0.41310  0.17370  Biso   1.000  O
  O18      1.0000 0.58690  0.83350  0.17370  Biso   1.000  O
  O19      1.0000 0.68350  0.90050  0.61760  Biso   1.000  O
  O20      1.0000 0.09950  0.78300  0.61760  Biso   1.000  O
  O21      1.0000 0.21700  0.31650  0.61760  Biso   1.000  O
  O22      1.0000 0.31650  0.09950  0.38240  Biso   1.000  O
  O23      1.0000 0.90050  0.21700  0.38240  Biso   1.000  O
  O24      1.0000 0.78300  0.68350  0.38240  Biso   1.000  O
  O25      1.0000 0.00000  0.00000  0.00000  Biso   1.000  O
