data_image0
_cell_length_a       13.955
_cell_length_b       7.33
_cell_length_c       8.927
_cell_angle_alpha    90
_cell_angle_beta     102.39
_cell_angle_gamma    90

_symmetry_space_group_name_H-M    "P 1"
_symmetry_int_tables_number       1

loop_
  _symmetry_equiv_pos_as_xyz
  'x, y, z'

loop_
  _atom_site_label
  _atom_site_occupancy
  _atom_site_fract_x
  _atom_site_fract_y
  _atom_site_fract_z
  _atom_site_thermal_displace_type
  _atom_site_B_iso_or_equiv
  _atom_site_type_symbol
  Cu1      1.0000 0.39538  0.00000  0.58067  Biso   1.000  Cu
  Cu2      1.0000 0.89538  0.50000  0.58067  Biso   1.000  Cu
  Cu3      1.0000 0.60462  0.00000  0.41933  Biso   1.000  Cu
  Cu4      1.0000 0.10462  0.50000  0.41933  Biso   1.000  Cu
  O1       1.0000 0.38910  0.00000  0.79940  Biso   1.000  O
  O2       1.0000 0.88910  0.50000  0.79940  Biso   1.000  O
  O3       1.0000 0.61090  0.00000  0.20060  Biso   1.000  O
  O4       1.0000 0.11090  0.50000  0.20060  Biso   1.000  O
  O5       1.0000 0.22790  0.00000  0.71800  Biso   1.000  O
  O6       1.0000 0.72790  0.50000  0.71800  Biso   1.000  O
  O7       1.0000 0.77210  0.00000  0.28200  Biso   1.000  O
  O8       1.0000 0.27210  0.50000  0.28200  Biso   1.000  O
  O9       1.0000 0.42450  0.00000  0.37150  Biso   1.000  O
  O10      1.0000 0.92450  0.50000  0.37150  Biso   1.000  O
  O11      1.0000 0.57550  0.00000  0.62850  Biso   1.000  O
  O12      1.0000 0.07550  0.50000  0.62850  Biso   1.000  O
  O13      1.0000 0.26210  0.00000  0.28850  Biso   1.000  O
  O14      1.0000 0.76210  0.50000  0.28850  Biso   1.000  O
  O15      1.0000 0.73790  0.00000  0.71150  Biso   1.000  O
  O16      1.0000 0.23790  0.50000  0.71150  Biso   1.000  O
  N1       1.0000 0.38120  0.26810  0.57410  Biso   1.000  N
  N2       1.0000 0.38120  0.73190  0.57410  Biso   1.000  N
  N3       1.0000 0.88120  0.76810  0.57410  Biso   1.000  N
  N4       1.0000 0.88120  0.23190  0.57410  Biso   1.000  N
  N5       1.0000 0.61880  0.73190  0.42590  Biso   1.000  N
  N6       1.0000 0.61880  0.26810  0.42590  Biso   1.000  N
  N7       1.0000 0.11880  0.23190  0.42590  Biso   1.000  N
  N8       1.0000 0.11880  0.76810  0.42590  Biso   1.000  N
  C1       1.0000 0.30290  0.00000  0.82320  Biso   1.000  C
  C2       1.0000 0.80290  0.50000  0.82320  Biso   1.000  C
  C3       1.0000 0.69710  0.00000  0.17680  Biso   1.000  C
  C4       1.0000 0.19710  0.50000  0.17680  Biso   1.000  C
  C5       1.0000 0.29200  0.00000  0.98550  Biso   1.000  C
  C6       1.0000 0.79200  0.50000  0.98550  Biso   1.000  C
  C7       1.0000 0.70800  0.00000  0.01450  Biso   1.000  C
  C8       1.0000 0.20800  0.50000  0.01450  Biso   1.000  C
  C9       1.0000 0.36380  0.00000  0.10590  Biso   1.000  C
  C10      1.0000 0.86380  0.50000  0.10590  Biso   1.000  C
  C11      1.0000 0.63620  0.00000  0.89410  Biso   1.000  C
  C12      1.0000 0.13620  0.50000  0.89410  Biso   1.000  C
  C13      1.0000 0.34830  0.00000  0.26580  Biso   1.000  C
  C14      1.0000 0.84830  0.50000  0.26580  Biso   1.000  C
  C15      1.0000 0.65170  0.00000  0.73420  Biso   1.000  C
  C16      1.0000 0.15170  0.50000  0.73420  Biso   1.000  C
  O17      1.0000 0.04240  0.00000  0.75040  Biso   1.000  O
  O18      1.0000 0.54240  0.50000  0.75040  Biso   1.000  O
  O19      1.0000 0.95760  0.00000  0.24960  Biso   1.000  O
  O20      1.0000 0.45760  0.50000  0.24960  Biso   1.000  O
  O21      1.0000 0.01700  0.00000  0.90600  Biso   1.000  O
  O22      1.0000 0.51700  0.50000  0.90600  Biso   1.000  O
  O23      1.0000 0.98300  0.00000  0.09400  Biso   1.000  O
  O24      1.0000 0.48300  0.50000  0.09400  Biso   1.000  O
  H1       1.0000 0.43760  0.31930  0.62100  Biso   1.000  H
  H2       1.0000 0.43760  0.68070  0.62100  Biso   1.000  H
  H3       1.0000 0.93760  0.81930  0.62100  Biso   1.000  H
  H4       1.0000 0.93760  0.18070  0.62100  Biso   1.000  H
  H5       1.0000 0.56240  0.68070  0.37900  Biso   1.000  H
  H6       1.0000 0.56240  0.31930  0.37900  Biso   1.000  H
  H7       1.0000 0.06240  0.18070  0.37900  Biso   1.000  H
  H8       1.0000 0.06240  0.81930  0.37900  Biso   1.000  H
  H9       1.0000 0.22850  0.00000  0.00240  Biso   1.000  H
  H10      1.0000 0.72850  0.50000  0.00240  Biso   1.000  H
  H11      1.0000 0.77150  0.00000  0.99760  Biso   1.000  H
  H12      1.0000 0.27150  0.50000  0.99760  Biso   1.000  H
  H13      1.0000 0.33410  0.30080  0.62200  Biso   1.000  H
  H14      1.0000 0.33410  0.69920  0.62200  Biso   1.000  H
  H15      1.0000 0.83410  0.80080  0.62200  Biso   1.000  H
  H16      1.0000 0.83410  0.19920  0.62200  Biso   1.000  H
  H17      1.0000 0.66590  0.69920  0.37800  Biso   1.000  H
  H18      1.0000 0.66590  0.30080  0.37800  Biso   1.000  H
  H19      1.0000 0.16590  0.19920  0.37800  Biso   1.000  H
  H20      1.0000 0.16590  0.80080  0.37800  Biso   1.000  H
  H21      1.0000 0.42790  0.00000  0.09130  Biso   1.000  H
  H22      1.0000 0.92790  0.50000  0.09130  Biso   1.000  H
  H23      1.0000 0.57210  0.00000  0.90870  Biso   1.000  H
  H24      1.0000 0.07210  0.50000  0.90870  Biso   1.000  H
  H25      1.0000 0.36600  0.30490  0.47690  Biso   1.000  H
  H26      1.0000 0.36600  0.69510  0.47690  Biso   1.000  H
  H27      1.0000 0.86600  0.80490  0.47690  Biso   1.000  H
  H28      1.0000 0.86600  0.19510  0.47690  Biso   1.000  H
  H29      1.0000 0.63400  0.69510  0.52310  Biso   1.000  H
  H30      1.0000 0.63400  0.30490  0.52310  Biso   1.000  H
  H31      1.0000 0.13400  0.19510  0.52310  Biso   1.000  H
  H32      1.0000 0.13400  0.80490  0.52310  Biso   1.000  H
  H33      1.0000 0.06000  0.07310  0.80010  Biso   1.000  H
  H34      1.0000 0.06000  0.92690  0.80010  Biso   1.000  H
  H35      1.0000 0.56000  0.57310  0.80010  Biso   1.000  H
  H36      1.0000 0.56000  0.42690  0.80010  Biso   1.000  H
  H37      1.0000 0.94000  0.92690  0.19990  Biso   1.000  H
  H38      1.0000 0.94000  0.07310  0.19990  Biso   1.000  H
  H39      1.0000 0.44000  0.42690  0.19990  Biso   1.000  H
  H40      1.0000 0.44000  0.57310  0.19990  Biso   1.000  H
