data_image0
_cell_length_a       8.981
_cell_length_b       9.002
_cell_length_c       16.208
_cell_angle_alpha    105.73
_cell_angle_beta     90.62
_cell_angle_gamma    119.38

_symmetry_space_group_name_H-M    "P 1"
_symmetry_int_tables_number       1

loop_
  _symmetry_equiv_pos_as_xyz
  'x, y, z'

loop_
  _atom_site_label
  _atom_site_occupancy
  _atom_site_fract_x
  _atom_site_fract_y
  _atom_site_fract_z
  _atom_site_thermal_displace_type
  _atom_site_B_iso_or_equiv
  _atom_site_type_symbol
  Cu1      1.0000 0.00000  0.00000  0.00000  Biso   1.000  Cu
  N1       1.0000 0.35830  0.51360  0.14623  Biso   1.000  N
  N2       1.0000 0.64170  0.48640  0.85377  Biso   1.000  N
  C1       1.0000 0.39790  0.66070  0.12300  Biso   1.000  C
  C2       1.0000 0.60210  0.33930  0.87700  Biso   1.000  C
  H1       1.0000 0.47890  0.77610  0.16210  Biso   1.000  H
  H2       1.0000 0.52110  0.22390  0.83790  Biso   1.000  H
  C3       1.0000 0.32470  0.64850  0.04460  Biso   1.000  C
  C4       1.0000 0.67530  0.35150  0.95540  Biso   1.000  C
  H3       1.0000 0.35100  0.75260  0.02950  Biso   1.000  H
  H4       1.0000 0.64900  0.24740  0.97050  Biso   1.000  H
  C5       1.0000 0.21050  0.47650  0.98870  Biso   1.000  C
  C6       1.0000 0.78950  0.52350  0.01130  Biso   1.000  C
  H5       1.0000 0.16310  0.46320  0.93270  Biso   1.000  H
  H6       1.0000 0.83690  0.53680  0.06730  Biso   1.000  H
  N3       1.0000 0.16510  0.33000  0.01080  Biso   1.000  N
  N4       1.0000 0.83490  0.67000  0.98920  Biso   1.000  N
  C7       1.0000 0.23730  0.35290  0.09010  Biso   1.000  C
  C8       1.0000 0.76270  0.64710  0.90990  Biso   1.000  C
  N5       1.0000 0.17120  0.19110  0.10704  Biso   1.000  N
  N6       1.0000 0.82880  0.80890  0.89296  Biso   1.000  N
  C9       1.0000 0.19240  0.17410  0.18507  Biso   1.000  C
  C10      1.0000 0.80760  0.82590  0.81493  Biso   1.000  C
  O1       1.0000 0.28460  0.30110  0.25407  Biso   1.000  O
  O2       1.0000 0.71540  0.69890  0.74593  Biso   1.000  O
  C11      1.0000 0.09710  0.98630  0.19070  Biso   1.000  C
  C12      1.0000 0.90290  0.01370  0.80930  Biso   1.000  C
  H7       1.0000 0.11610  0.99070  0.25120  Biso   1.000  H
  H8       1.0000 0.88390  0.00930  0.74880  Biso   1.000  H
  H9       1.0000 0.14040  0.91480  0.15410  Biso   1.000  H
  H10      1.0000 0.85960  0.08520  0.84590  Biso   1.000  H
  H11      1.0000 0.97280  0.93110  0.17050  Biso   1.000  H
  H12      1.0000 0.02720  0.06890  0.82950  Biso   1.000  H
  Cu2      1.0000 0.48340  0.53054  0.25501  Biso   1.000  Cu
  Cu3      1.0000 0.51660  0.46946  0.74499  Biso   1.000  Cu
  N7       1.0000 0.60270  0.55210  0.36776  Biso   1.000  N
  N8       1.0000 0.39730  0.44790  0.63224  Biso   1.000  N
  C13      1.0000 0.57410  0.40210  0.38481  Biso   1.000  C
  C14      1.0000 0.42590  0.59790  0.61519  Biso   1.000  C
  H13      1.0000 0.50180  0.28840  0.34210  Biso   1.000  H
  H14      1.0000 0.49820  0.71160  0.65790  Biso   1.000  H
  C15      1.0000 0.64650  0.40900  0.46206  Biso   1.000  C
  C16      1.0000 0.35350  0.59100  0.53794  Biso   1.000  C
  H15      1.0000 0.62650  0.30320  0.47360  Biso   1.000  H
  H16      1.0000 0.37350  0.69680  0.52640  Biso   1.000  H
  C17      1.0000 0.75060  0.57930  0.52246  Biso   1.000  C
  C18      1.0000 0.24940  0.42070  0.47754  Biso   1.000  C
  H17      1.0000 0.79880  0.58810  0.57730  Biso   1.000  H
  H18      1.0000 0.20120  0.41190  0.42270  Biso   1.000  H
  N9       1.0000 0.78580  0.73040  0.50693  Biso   1.000  N
  N10      1.0000 0.21420  0.26960  0.49307  Biso   1.000  N
  C19      1.0000 0.71060  0.70920  0.42912  Biso   1.000  C
  C20      1.0000 0.28940  0.29080  0.57088  Biso   1.000  C
  N11      1.0000 0.75170  0.87230  0.41584  Biso   1.000  N
  N12      1.0000 0.24830  0.12770  0.58416  Biso   1.000  N
  H19      1.0000 0.79360  0.96660  0.46300  Biso   1.000  H
  H20      1.0000 0.20640  0.03340  0.53700  Biso   1.000  H
  C21      1.0000 0.73500  0.90260  0.33999  Biso   1.000  C
  C22      1.0000 0.26500  0.09740  0.66001  Biso   1.000  C
  O3       1.0000 0.66770  0.77990  0.26827  Biso   1.000  O
  O4       1.0000 0.33230  0.22010  0.73173  Biso   1.000  O
  C23      1.0000 0.80340  0.09320  0.34390  Biso   1.000  C
  C24      1.0000 0.19660  0.90680  0.65610  Biso   1.000  C
  H21      1.0000 0.70990  0.10420  0.32000  Biso   1.000  H
  H22      1.0000 0.29010  0.89580  0.68000  Biso   1.000  H
  H23      1.0000 0.89720  0.12920  0.30970  Biso   1.000  H
  H24      1.0000 0.10280  0.87080  0.69030  Biso   1.000  H
  H25      1.0000 0.84810  0.17110  0.40450  Biso   1.000  H
  H26      1.0000 0.15190  0.82890  0.59550  Biso   1.000  H
  N13      1.0000 0.18670  0.96850  0.94868  Biso   1.000  N
  N14      1.0000 0.81330  0.03150  0.05132  Biso   1.000  N
  C25      1.0000 0.28200  0.93240  0.91490  Biso   1.000  C
  C26      1.0000 0.71800  0.06760  0.08510  Biso   1.000  C
  N15      1.0000 0.40250  0.91370  0.87900  Biso   1.000  N
  N16      1.0000 0.59750  0.08630  0.12100  Biso   1.000  N
  C27      1.0000 0.39260  0.75890  0.84997  Biso   1.000  C
  C28      1.0000 0.60740  0.24110  0.15003  Biso   1.000  C
  N17      1.0000 0.39800  0.62910  0.82335  Biso   1.000  N
  N18      1.0000 0.60200  0.37090  0.17665  Biso   1.000  N
  S1       1.0000 0.26946  0.78986  0.36379  Biso   1.000  S
  S2       1.0000 0.73054  0.21014  0.63621  Biso   1.000  S
  O5       1.0000 0.34720  0.68000  0.35535  Biso   1.000  O
  O6       1.0000 0.65280  0.32000  0.64465  Biso   1.000  O
  O7       1.0000 0.34810  0.93200  0.32605  Biso   1.000  O
  O8       1.0000 0.65190  0.06800  0.67395  Biso   1.000  O
  O9       1.0000 0.22560  0.83520  0.44910  Biso   1.000  O
  O10      1.0000 0.77440  0.16480  0.55090  Biso   1.000  O
  C29      1.0000 0.05460  0.63280  0.29630  Biso   1.000  C
  C30      1.0000 0.94540  0.36720  0.70370  Biso   1.000  C
  F1       1.0000 0.06390  0.57750  0.21268  Biso   1.000  F
  F2       1.0000 0.93610  0.42250  0.78732  Biso   1.000  F
  F3       1.0000 0.96840  0.48880  0.32230  Biso   1.000  F
  F4       1.0000 0.03160  0.51120  0.67770  Biso   1.000  F
  F5       1.0000 0.95840  0.70940  0.30119  Biso   1.000  F
  F6       1.0000 0.04160  0.29060  0.69881  Biso   1.000  F
