data_image0
_cell_length_a       19.034
_cell_length_b       6.9822
_cell_length_c       34.383
_cell_angle_alpha    90
_cell_angle_beta     90
_cell_angle_gamma    90

_symmetry_space_group_name_H-M    "P 1"
_symmetry_int_tables_number       1

loop_
  _symmetry_equiv_pos_as_xyz
  'x, y, z'

loop_
  _atom_site_label
  _atom_site_occupancy
  _atom_site_fract_x
  _atom_site_fract_y
  _atom_site_fract_z
  _atom_site_thermal_displace_type
  _atom_site_B_iso_or_equiv
  _atom_site_type_symbol
  Cu1      1.0000 0.54546  0.80921  0.05965  Biso   1.000  Cu
  Cu2      1.0000 0.95454  0.19079  0.55965  Biso   1.000  Cu
  Cu3      1.0000 0.45454  0.30921  0.44035  Biso   1.000  Cu
  Cu4      1.0000 0.04546  0.69079  0.94035  Biso   1.000  Cu
  Cu5      1.0000 0.45454  0.19079  0.94035  Biso   1.000  Cu
  Cu6      1.0000 0.04546  0.80921  0.44035  Biso   1.000  Cu
  Cu7      1.0000 0.54546  0.69079  0.55965  Biso   1.000  Cu
  Cu8      1.0000 0.95454  0.30921  0.05965  Biso   1.000  Cu
  N1       1.0000 0.62871  0.83390  0.02440  Biso   1.000  N
  N2       1.0000 0.87129  0.16610  0.52440  Biso   1.000  N
  N3       1.0000 0.37129  0.33390  0.47560  Biso   1.000  N
  N4       1.0000 0.12871  0.66610  0.97560  Biso   1.000  N
  N5       1.0000 0.37129  0.16610  0.97560  Biso   1.000  N
  N6       1.0000 0.12871  0.83390  0.47560  Biso   1.000  N
  N7       1.0000 0.62871  0.66610  0.52440  Biso   1.000  N
  N8       1.0000 0.87129  0.33390  0.02440  Biso   1.000  N
  N9       1.0000 0.61885  0.86240  0.09982  Biso   1.000  N
  N10      1.0000 0.88115  0.13760  0.59982  Biso   1.000  N
  N11      1.0000 0.38115  0.36240  0.40018  Biso   1.000  N
  N12      1.0000 0.11885  0.63760  0.90018  Biso   1.000  N
  N13      1.0000 0.38115  0.13760  0.90018  Biso   1.000  N
  N14      1.0000 0.11885  0.86240  0.40018  Biso   1.000  N
  N15      1.0000 0.61885  0.63760  0.59982  Biso   1.000  N
  N16      1.0000 0.88115  0.36240  0.09982  Biso   1.000  N
  C1       1.0000 0.62870  0.81510  0.98590  Biso   1.000  C
  C2       1.0000 0.87130  0.18490  0.48590  Biso   1.000  C
  C3       1.0000 0.37130  0.31510  0.51410  Biso   1.000  C
  C4       1.0000 0.12870  0.68490  0.01410  Biso   1.000  C
  C5       1.0000 0.37130  0.18490  0.01410  Biso   1.000  C
  C6       1.0000 0.12870  0.81510  0.51410  Biso   1.000  C
  C7       1.0000 0.62870  0.68490  0.48590  Biso   1.000  C
  C8       1.0000 0.87130  0.31510  0.98590  Biso   1.000  C
  H1       1.0000 0.58630  0.79320  0.97310  Biso   1.000  H
  H2       1.0000 0.91370  0.20680  0.47310  Biso   1.000  H
  H3       1.0000 0.41370  0.29320  0.52690  Biso   1.000  H
  H4       1.0000 0.08630  0.70680  0.02690  Biso   1.000  H
  H5       1.0000 0.41370  0.20680  0.02690  Biso   1.000  H
  H6       1.0000 0.08630  0.79320  0.52690  Biso   1.000  H
  H7       1.0000 0.58630  0.70680  0.47310  Biso   1.000  H
  H8       1.0000 0.91370  0.29320  0.97310  Biso   1.000  H
  C9       1.0000 0.68980  0.82730  0.96430  Biso   1.000  C
  C10      1.0000 0.81020  0.17270  0.46430  Biso   1.000  C
  C11      1.0000 0.31020  0.32730  0.53570  Biso   1.000  C
  C12      1.0000 0.18980  0.67270  0.03570  Biso   1.000  C
  C13      1.0000 0.31020  0.17270  0.03570  Biso   1.000  C
  C14      1.0000 0.18980  0.82730  0.53570  Biso   1.000  C
  C15      1.0000 0.68980  0.67270  0.46430  Biso   1.000  C
  C16      1.0000 0.81020  0.32730  0.96430  Biso   1.000  C
  H9       1.0000 0.68830  0.81510  0.93740  Biso   1.000  H
  H10      1.0000 0.81170  0.18490  0.43740  Biso   1.000  H
  H11      1.0000 0.31170  0.31510  0.56260  Biso   1.000  H
  H12      1.0000 0.18830  0.68490  0.06260  Biso   1.000  H
  H13      1.0000 0.31170  0.18490  0.06260  Biso   1.000  H
  H14      1.0000 0.18830  0.81510  0.56260  Biso   1.000  H
  H15      1.0000 0.68830  0.68490  0.43740  Biso   1.000  H
  H16      1.0000 0.81170  0.31510  0.93740  Biso   1.000  H
  C17      1.0000 0.75270  0.85740  0.98278  Biso   1.000  C
  C18      1.0000 0.74730  0.14260  0.48278  Biso   1.000  C
  C19      1.0000 0.24730  0.35740  0.51722  Biso   1.000  C
  C20      1.0000 0.25270  0.64260  0.01722  Biso   1.000  C
  C21      1.0000 0.24730  0.14260  0.01722  Biso   1.000  C
  C22      1.0000 0.25270  0.85740  0.51722  Biso   1.000  C
  C23      1.0000 0.75270  0.64260  0.48278  Biso   1.000  C
  C24      1.0000 0.74730  0.35740  0.98278  Biso   1.000  C
  H17      1.0000 0.79420  0.86440  0.96850  Biso   1.000  H
  H18      1.0000 0.70580  0.13560  0.46850  Biso   1.000  H
  H19      1.0000 0.20580  0.36440  0.53150  Biso   1.000  H
  H20      1.0000 0.29420  0.63560  0.03150  Biso   1.000  H
  H21      1.0000 0.20580  0.13560  0.03150  Biso   1.000  H
  H22      1.0000 0.29420  0.86440  0.53150  Biso   1.000  H
  H23      1.0000 0.79420  0.63560  0.46850  Biso   1.000  H
  H24      1.0000 0.70580  0.36440  0.96850  Biso   1.000  H
  C25      1.0000 0.75380  0.87730  0.02275  Biso   1.000  C
  C26      1.0000 0.74620  0.12270  0.52275  Biso   1.000  C
  C27      1.0000 0.24620  0.37730  0.47725  Biso   1.000  C
  C28      1.0000 0.25380  0.62270  0.97725  Biso   1.000  C
  C29      1.0000 0.24620  0.12270  0.97725  Biso   1.000  C
  C30      1.0000 0.25380  0.87730  0.47725  Biso   1.000  C
  C31      1.0000 0.75380  0.62270  0.52275  Biso   1.000  C
  C32      1.0000 0.74620  0.37730  0.02275  Biso   1.000  C
  H25      1.0000 0.79800  0.89700  0.03620  Biso   1.000  H
  H26      1.0000 0.70200  0.10300  0.53620  Biso   1.000  H
  H27      1.0000 0.20200  0.39700  0.46380  Biso   1.000  H
  H28      1.0000 0.29800  0.60300  0.96380  Biso   1.000  H
  H29      1.0000 0.20200  0.10300  0.96380  Biso   1.000  H
  H30      1.0000 0.29800  0.89700  0.46380  Biso   1.000  H
  H31      1.0000 0.79800  0.60300  0.53620  Biso   1.000  H
  H32      1.0000 0.70200  0.39700  0.03620  Biso   1.000  H
  C33      1.0000 0.69047  0.86510  0.04263  Biso   1.000  C
  C34      1.0000 0.80953  0.13490  0.54263  Biso   1.000  C
  C35      1.0000 0.30953  0.36510  0.45737  Biso   1.000  C
  C36      1.0000 0.19047  0.63490  0.95737  Biso   1.000  C
  C37      1.0000 0.30953  0.13490  0.95737  Biso   1.000  C
  C38      1.0000 0.19047  0.86510  0.45737  Biso   1.000  C
  C39      1.0000 0.69047  0.63490  0.54263  Biso   1.000  C
  C40      1.0000 0.80953  0.36510  0.04263  Biso   1.000  C
  C41      1.0000 0.68471  0.88410  0.08554  Biso   1.000  C
  C42      1.0000 0.81529  0.11590  0.58554  Biso   1.000  C
  C43      1.0000 0.31529  0.38410  0.41446  Biso   1.000  C
  C44      1.0000 0.18471  0.61590  0.91446  Biso   1.000  C
  C45      1.0000 0.31529  0.11590  0.91446  Biso   1.000  C
  C46      1.0000 0.18471  0.88410  0.41446  Biso   1.000  C
  C47      1.0000 0.68471  0.61590  0.58554  Biso   1.000  C
  C48      1.0000 0.81529  0.38410  0.08554  Biso   1.000  C
  C49      1.0000 0.74113  0.92090  0.10965  Biso   1.000  C
  C50      1.0000 0.75887  0.07910  0.60965  Biso   1.000  C
  C51      1.0000 0.25887  0.42090  0.39035  Biso   1.000  C
  C52      1.0000 0.24113  0.57910  0.89035  Biso   1.000  C
  C53      1.0000 0.25887  0.07910  0.89035  Biso   1.000  C
  C54      1.0000 0.24113  0.92090  0.39035  Biso   1.000  C
  C55      1.0000 0.74113  0.57910  0.60965  Biso   1.000  C
  C56      1.0000 0.75887  0.42090  0.10965  Biso   1.000  C
  H33      1.0000 0.78600  0.93620  0.09940  Biso   1.000  H
  H34      1.0000 0.71400  0.06380  0.59940  Biso   1.000  H
  H35      1.0000 0.21400  0.43620  0.40060  Biso   1.000  H
  H36      1.0000 0.28600  0.56380  0.90060  Biso   1.000  H
  H37      1.0000 0.21400  0.06380  0.90060  Biso   1.000  H
  H38      1.0000 0.28600  0.93620  0.40060  Biso   1.000  H
  H39      1.0000 0.78600  0.56380  0.59940  Biso   1.000  H
  H40      1.0000 0.71400  0.43620  0.09940  Biso   1.000  H
  C57      1.0000 0.73010  0.93460  0.14885  Biso   1.000  C
  C58      1.0000 0.76990  0.06540  0.64885  Biso   1.000  C
  C59      1.0000 0.26990  0.43460  0.35115  Biso   1.000  C
  C60      1.0000 0.23010  0.56540  0.85115  Biso   1.000  C
  C61      1.0000 0.26990  0.06540  0.85115  Biso   1.000  C
  C62      1.0000 0.23010  0.93460  0.35115  Biso   1.000  C
  C63      1.0000 0.73010  0.56540  0.64885  Biso   1.000  C
  C64      1.0000 0.76990  0.43460  0.14885  Biso   1.000  C
  H41      1.0000 0.76750  0.95930  0.16550  Biso   1.000  H
  H42      1.0000 0.73250  0.04070  0.66550  Biso   1.000  H
  H43      1.0000 0.23250  0.45930  0.33450  Biso   1.000  H
  H44      1.0000 0.26750  0.54070  0.83450  Biso   1.000  H
  H45      1.0000 0.23250  0.04070  0.83450  Biso   1.000  H
  H46      1.0000 0.26750  0.95930  0.33450  Biso   1.000  H
  H47      1.0000 0.76750  0.54070  0.66550  Biso   1.000  H
  H48      1.0000 0.73250  0.45930  0.16550  Biso   1.000  H
  C65      1.0000 0.66330  0.91160  0.16353  Biso   1.000  C
  C66      1.0000 0.83670  0.08840  0.66353  Biso   1.000  C
  C67      1.0000 0.33670  0.41160  0.33647  Biso   1.000  C
  C68      1.0000 0.16330  0.58840  0.83647  Biso   1.000  C
  C69      1.0000 0.33670  0.08840  0.83647  Biso   1.000  C
  C70      1.0000 0.16330  0.91160  0.33647  Biso   1.000  C
  C71      1.0000 0.66330  0.58840  0.66353  Biso   1.000  C
  C72      1.0000 0.83670  0.41160  0.16353  Biso   1.000  C
  H49      1.0000 0.65800  0.92100  0.18860  Biso   1.000  H
  H50      1.0000 0.84200  0.07900  0.68860  Biso   1.000  H
  H51      1.0000 0.34200  0.42100  0.31140  Biso   1.000  H
  H52      1.0000 0.15800  0.57900  0.81140  Biso   1.000  H
  H53      1.0000 0.34200  0.07900  0.81140  Biso   1.000  H
  H54      1.0000 0.15800  0.92100  0.31140  Biso   1.000  H
  H55      1.0000 0.65800  0.57900  0.68860  Biso   1.000  H
  H56      1.0000 0.84200  0.42100  0.18860  Biso   1.000  H
  C73      1.0000 0.60920  0.87530  0.13806  Biso   1.000  C
  C74      1.0000 0.89080  0.12470  0.63806  Biso   1.000  C
  C75      1.0000 0.39080  0.37530  0.36194  Biso   1.000  C
  C76      1.0000 0.10920  0.62470  0.86194  Biso   1.000  C
  C77      1.0000 0.39080  0.12470  0.86194  Biso   1.000  C
  C78      1.0000 0.10920  0.87530  0.36194  Biso   1.000  C
  C79      1.0000 0.60920  0.62470  0.63806  Biso   1.000  C
  C80      1.0000 0.89080  0.37530  0.13806  Biso   1.000  C
  H57      1.0000 0.56410  0.85920  0.14790  Biso   1.000  H
  H58      1.0000 0.93590  0.14080  0.64790  Biso   1.000  H
  H59      1.0000 0.43590  0.35920  0.35210  Biso   1.000  H
  H60      1.0000 0.06410  0.64080  0.85210  Biso   1.000  H
  H61      1.0000 0.43590  0.14080  0.85210  Biso   1.000  H
  H62      1.0000 0.06410  0.85920  0.35210  Biso   1.000  H
  H63      1.0000 0.56410  0.64080  0.64790  Biso   1.000  H
  H64      1.0000 0.93590  0.35920  0.14790  Biso   1.000  H
  O1       1.0000 0.47473  0.76000  0.09998  Biso   1.000  O
  O2       1.0000 0.02527  0.24000  0.59998  Biso   1.000  O
  O3       1.0000 0.52527  0.26000  0.40002  Biso   1.000  O
  O4       1.0000 0.97473  0.74000  0.90002  Biso   1.000  O
  O5       1.0000 0.52527  0.24000  0.90002  Biso   1.000  O
  O6       1.0000 0.97473  0.76000  0.40002  Biso   1.000  O
  O7       1.0000 0.47473  0.74000  0.59998  Biso   1.000  O
  O8       1.0000 0.02527  0.26000  0.09998  Biso   1.000  O
  O9       1.0000 0.39803  0.57710  0.06729  Biso   1.000  O
  O10      1.0000 0.10197  0.42290  0.56729  Biso   1.000  O
  O11      1.0000 0.60197  0.07710  0.43271  Biso   1.000  O
  O12      1.0000 0.89803  0.92290  0.93271  Biso   1.000  O
  O13      1.0000 0.60197  0.42290  0.93271  Biso   1.000  O
  O14      1.0000 0.89803  0.57710  0.43271  Biso   1.000  O
  O15      1.0000 0.39803  0.92290  0.56729  Biso   1.000  O
  O16      1.0000 0.10197  0.07710  0.06729  Biso   1.000  O
  C81      1.0000 0.41873  0.66280  0.09683  Biso   1.000  C
  C82      1.0000 0.08127  0.33720  0.59683  Biso   1.000  C
  C83      1.0000 0.58127  0.16280  0.40317  Biso   1.000  C
  C84      1.0000 0.91873  0.83720  0.90317  Biso   1.000  C
  C85      1.0000 0.58127  0.33720  0.90317  Biso   1.000  C
  C86      1.0000 0.91873  0.66280  0.40317  Biso   1.000  C
  C87      1.0000 0.41873  0.83720  0.59683  Biso   1.000  C
  C88      1.0000 0.08127  0.16280  0.09683  Biso   1.000  C
  C89      1.0000 0.37445  0.64320  0.13304  Biso   1.000  C
  C90      1.0000 0.12555  0.35680  0.63304  Biso   1.000  C
  C91      1.0000 0.62555  0.14320  0.36696  Biso   1.000  C
  C92      1.0000 0.87445  0.85680  0.86696  Biso   1.000  C
  C93      1.0000 0.62555  0.35680  0.86696  Biso   1.000  C
  C94      1.0000 0.87445  0.64320  0.36696  Biso   1.000  C
  C95      1.0000 0.37445  0.85680  0.63304  Biso   1.000  C
  C96      1.0000 0.12555  0.14320  0.13304  Biso   1.000  C
  C97      1.0000 0.30730  0.56480  0.13061  Biso   1.000  C
  C98      1.0000 0.19270  0.43520  0.63061  Biso   1.000  C
  C99      1.0000 0.69270  0.06480  0.36939  Biso   1.000  C
  C100     1.0000 0.80730  0.93520  0.86939  Biso   1.000  C
  C101     1.0000 0.69270  0.43520  0.86939  Biso   1.000  C
  C102     1.0000 0.80730  0.56480  0.36939  Biso   1.000  C
  C103     1.0000 0.30730  0.93520  0.63061  Biso   1.000  C
  C104     1.0000 0.19270  0.06480  0.13061  Biso   1.000  C
  H65      1.0000 0.29770  0.51300  0.10950  Biso   1.000  H
  H66      1.0000 0.20230  0.48700  0.60950  Biso   1.000  H
  H67      1.0000 0.70230  0.01300  0.39050  Biso   1.000  H
  H68      1.0000 0.79770  0.98700  0.89050  Biso   1.000  H
  H69      1.0000 0.70230  0.48700  0.89050  Biso   1.000  H
  H70      1.0000 0.79770  0.51300  0.39050  Biso   1.000  H
  H71      1.0000 0.29770  0.98700  0.60950  Biso   1.000  H
  H72      1.0000 0.20230  0.01300  0.10950  Biso   1.000  H
  C105     1.0000 0.26570  0.54530  0.16276  Biso   1.000  C
  C106     1.0000 0.23430  0.45470  0.66276  Biso   1.000  C
  C107     1.0000 0.73430  0.04530  0.33724  Biso   1.000  C
  C108     1.0000 0.76570  0.95470  0.83724  Biso   1.000  C
  C109     1.0000 0.73430  0.45470  0.83724  Biso   1.000  C
  C110     1.0000 0.76570  0.54530  0.33724  Biso   1.000  C
  C111     1.0000 0.26570  0.95470  0.66276  Biso   1.000  C
  C112     1.0000 0.23430  0.04530  0.16276  Biso   1.000  C
  H73      1.0000 0.22200  0.48500  0.16100  Biso   1.000  H
  H74      1.0000 0.27800  0.51500  0.66100  Biso   1.000  H
  H75      1.0000 0.77800  0.98500  0.33900  Biso   1.000  H
  H76      1.0000 0.72200  0.01500  0.83900  Biso   1.000  H
  H77      1.0000 0.77800  0.51500  0.83900  Biso   1.000  H
  H78      1.0000 0.72200  0.48500  0.33900  Biso   1.000  H
  H79      1.0000 0.22200  0.01500  0.66100  Biso   1.000  H
  H80      1.0000 0.27800  0.98500  0.16100  Biso   1.000  H
  C113     1.0000 0.29040  0.60440  0.19874  Biso   1.000  C
  C114     1.0000 0.20960  0.39560  0.69874  Biso   1.000  C
  C115     1.0000 0.70960  0.10440  0.30126  Biso   1.000  C
  C116     1.0000 0.79040  0.89560  0.80126  Biso   1.000  C
  C117     1.0000 0.70960  0.39560  0.80126  Biso   1.000  C
  C118     1.0000 0.79040  0.60440  0.30126  Biso   1.000  C
  C119     1.0000 0.29040  0.89560  0.69874  Biso   1.000  C
  C120     1.0000 0.20960  0.10440  0.19874  Biso   1.000  C
  C121     1.0000 0.35790  0.68130  0.20197  Biso   1.000  C
  C122     1.0000 0.14210  0.31870  0.70197  Biso   1.000  C
  C123     1.0000 0.64210  0.18130  0.29803  Biso   1.000  C
  C124     1.0000 0.85790  0.81870  0.79803  Biso   1.000  C
  C125     1.0000 0.64210  0.31870  0.79803  Biso   1.000  C
  C126     1.0000 0.85790  0.68130  0.29803  Biso   1.000  C
  C127     1.0000 0.35790  0.81870  0.70197  Biso   1.000  C
  C128     1.0000 0.14210  0.18130  0.20197  Biso   1.000  C
  H81      1.0000 0.37990  0.71800  0.22610  Biso   1.000  H
  H82      1.0000 0.12010  0.28200  0.72610  Biso   1.000  H
  H83      1.0000 0.62010  0.21800  0.27390  Biso   1.000  H
  H84      1.0000 0.87990  0.78200  0.77390  Biso   1.000  H
  H85      1.0000 0.62010  0.28200  0.77390  Biso   1.000  H
  H86      1.0000 0.87990  0.71800  0.27390  Biso   1.000  H
  H87      1.0000 0.37990  0.78200  0.72610  Biso   1.000  H
  H88      1.0000 0.12010  0.21800  0.22610  Biso   1.000  H
  C129     1.0000 0.39897  0.70170  0.16911  Biso   1.000  C
  C130     1.0000 0.10103  0.29830  0.66911  Biso   1.000  C
  C131     1.0000 0.60103  0.20170  0.33089  Biso   1.000  C
  C132     1.0000 0.89897  0.79830  0.83089  Biso   1.000  C
  C133     1.0000 0.60103  0.29830  0.83089  Biso   1.000  C
  C134     1.0000 0.89897  0.70170  0.33089  Biso   1.000  C
  C135     1.0000 0.39897  0.79830  0.66911  Biso   1.000  C
  C136     1.0000 0.10103  0.20170  0.16911  Biso   1.000  C
  H89      1.0000 0.44350  0.75530  0.17120  Biso   1.000  H
  H90      1.0000 0.05650  0.24470  0.67120  Biso   1.000  H
  H91      1.0000 0.55650  0.25530  0.32880  Biso   1.000  H
  H92      1.0000 0.94350  0.74470  0.82880  Biso   1.000  H
  H93      1.0000 0.55650  0.24470  0.82880  Biso   1.000  H
  H94      1.0000 0.94350  0.75530  0.32880  Biso   1.000  H
  H95      1.0000 0.44350  0.74470  0.67120  Biso   1.000  H
  H96      1.0000 0.05650  0.25530  0.17120  Biso   1.000  H
  C137     1.0000 0.24600  0.58520  0.23274  Biso   1.000  C
  C138     1.0000 0.25400  0.41480  0.73274  Biso   1.000  C
  C139     1.0000 0.75400  0.08520  0.26726  Biso   1.000  C
  C140     1.0000 0.74600  0.91480  0.76726  Biso   1.000  C
  C141     1.0000 0.75400  0.41480  0.76726  Biso   1.000  C
  C142     1.0000 0.74600  0.58520  0.26726  Biso   1.000  C
  C143     1.0000 0.24600  0.91480  0.73274  Biso   1.000  C
  C144     1.0000 0.25400  0.08520  0.23274  Biso   1.000  C
  N17      1.0000 0.20940  0.57010  0.25851  Biso   1.000  N
  N18      1.0000 0.29060  0.42990  0.75851  Biso   1.000  N
  N19      1.0000 0.79060  0.07010  0.24149  Biso   1.000  N
  N20      1.0000 0.70940  0.92990  0.74149  Biso   1.000  N
  N21      1.0000 0.79060  0.42990  0.74149  Biso   1.000  N
  N22      1.0000 0.70940  0.57010  0.24149  Biso   1.000  N
  N23      1.0000 0.20940  0.92990  0.75851  Biso   1.000  N
  N24      1.0000 0.29060  0.07010  0.25851  Biso   1.000  N
  O17      1.0000 0.52574  0.16600  0.05554  Biso   1.000  O
  O18      1.0000 0.97426  0.83400  0.55554  Biso   1.000  O
  O19      1.0000 0.47426  0.66600  0.44446  Biso   1.000  O
  O20      1.0000 0.02574  0.33400  0.94446  Biso   1.000  O
  O21      1.0000 0.47426  0.83400  0.94446  Biso   1.000  O
  O22      1.0000 0.02574  0.16600  0.44446  Biso   1.000  O
  O23      1.0000 0.52574  0.33400  0.55554  Biso   1.000  O
  O24      1.0000 0.97426  0.66600  0.05554  Biso   1.000  O
  O25      1.0000 0.58866  0.43290  0.06374  Biso   1.000  O
  O26      1.0000 0.91134  0.56710  0.56374  Biso   1.000  O
  O27      1.0000 0.41134  0.93290  0.43626  Biso   1.000  O
  O28      1.0000 0.08866  0.06710  0.93626  Biso   1.000  O
  O29      1.0000 0.41134  0.56710  0.93626  Biso   1.000  O
  O30      1.0000 0.08866  0.43290  0.43626  Biso   1.000  O
  O31      1.0000 0.58866  0.06710  0.56374  Biso   1.000  O
  O32      1.0000 0.91134  0.93290  0.06374  Biso   1.000  O
  C145     1.0000 0.55040  0.30040  0.07569  Biso   1.000  C
  C146     1.0000 0.94960  0.69960  0.57569  Biso   1.000  C
  C147     1.0000 0.44960  0.80040  0.42431  Biso   1.000  C
  C148     1.0000 0.05040  0.19960  0.92431  Biso   1.000  C
  C149     1.0000 0.44960  0.69960  0.92431  Biso   1.000  C
  C150     1.0000 0.05040  0.30040  0.42431  Biso   1.000  C
  C151     1.0000 0.55040  0.19960  0.57569  Biso   1.000  C
  C152     1.0000 0.94960  0.80040  0.07569  Biso   1.000  C
  C153     1.0000 0.53075  0.30170  0.11850  Biso   1.000  C
  C154     1.0000 0.96925  0.69830  0.61850  Biso   1.000  C
  C155     1.0000 0.46925  0.80170  0.38150  Biso   1.000  C
  C156     1.0000 0.03075  0.19830  0.88150  Biso   1.000  C
  C157     1.0000 0.46925  0.69830  0.88150  Biso   1.000  C
  C158     1.0000 0.03075  0.30170  0.38150  Biso   1.000  C
  C159     1.0000 0.53075  0.19830  0.61850  Biso   1.000  C
  C160     1.0000 0.96925  0.80170  0.11850  Biso   1.000  C
  C161     1.0000 0.47180  0.20540  0.13209  Biso   1.000  C
  C162     1.0000 0.02820  0.79460  0.63209  Biso   1.000  C
  C163     1.0000 0.52820  0.70540  0.36791  Biso   1.000  C
  C164     1.0000 0.97180  0.29460  0.86791  Biso   1.000  C
  C165     1.0000 0.52820  0.79460  0.86791  Biso   1.000  C
  C166     1.0000 0.97180  0.20540  0.36791  Biso   1.000  C
  C167     1.0000 0.47180  0.29460  0.63209  Biso   1.000  C
  C168     1.0000 0.02820  0.70540  0.13209  Biso   1.000  C
  H97      1.0000 0.44410  0.14700  0.11570  Biso   1.000  H
  H98      1.0000 0.05590  0.85300  0.61570  Biso   1.000  H
  H99      1.0000 0.55590  0.64700  0.38430  Biso   1.000  H
  H100     1.0000 0.94410  0.35300  0.88430  Biso   1.000  H
  H101     1.0000 0.55590  0.85300  0.88430  Biso   1.000  H
  H102     1.0000 0.94410  0.14700  0.38430  Biso   1.000  H
  H103     1.0000 0.44410  0.35300  0.61570  Biso   1.000  H
  H104     1.0000 0.05590  0.64700  0.11570  Biso   1.000  H
  C169     1.0000 0.45440  0.21090  0.17138  Biso   1.000  C
  C170     1.0000 0.04560  0.78910  0.67138  Biso   1.000  C
  C171     1.0000 0.54560  0.71090  0.32862  Biso   1.000  C
  C172     1.0000 0.95440  0.28910  0.82862  Biso   1.000  C
  C173     1.0000 0.54560  0.78910  0.82862  Biso   1.000  C
  C174     1.0000 0.95440  0.21090  0.32862  Biso   1.000  C
  C175     1.0000 0.45440  0.28910  0.67138  Biso   1.000  C
  C176     1.0000 0.04560  0.71090  0.17138  Biso   1.000  C
  H105     1.0000 0.42000  0.15500  0.18080  Biso   1.000  H
  H106     1.0000 0.08000  0.84500  0.68080  Biso   1.000  H
  H107     1.0000 0.58000  0.65500  0.31920  Biso   1.000  H
  H108     1.0000 0.92000  0.34500  0.81920  Biso   1.000  H
  H109     1.0000 0.58000  0.84500  0.81920  Biso   1.000  H
  H110     1.0000 0.92000  0.15500  0.31920  Biso   1.000  H
  H111     1.0000 0.42000  0.34500  0.68080  Biso   1.000  H
  H112     1.0000 0.08000  0.65500  0.18080  Biso   1.000  H
  C177     1.0000 0.49710  0.30960  0.19673  Biso   1.000  C
  C178     1.0000 0.00290  0.69040  0.69673  Biso   1.000  C
  C179     1.0000 0.50290  0.80960  0.30327  Biso   1.000  C
  C180     1.0000 0.99710  0.19040  0.80327  Biso   1.000  C
  C181     1.0000 0.50290  0.69040  0.80327  Biso   1.000  C
  C182     1.0000 0.99710  0.30960  0.30327  Biso   1.000  C
  C183     1.0000 0.49710  0.19040  0.69673  Biso   1.000  C
  C184     1.0000 0.00290  0.80960  0.19673  Biso   1.000  C
  C185     1.0000 0.55660  0.40400  0.18367  Biso   1.000  C
  C186     1.0000 0.94340  0.59600  0.68367  Biso   1.000  C
  C187     1.0000 0.44340  0.90400  0.31633  Biso   1.000  C
  C188     1.0000 0.05660  0.09600  0.81633  Biso   1.000  C
  C189     1.0000 0.44340  0.59600  0.81633  Biso   1.000  C
  C190     1.0000 0.05660  0.40400  0.31633  Biso   1.000  C
  C191     1.0000 0.55660  0.09600  0.68367  Biso   1.000  C
  C192     1.0000 0.94340  0.90400  0.18367  Biso   1.000  C
  H113     1.0000 0.58550  0.46890  0.20110  Biso   1.000  H
  H114     1.0000 0.91450  0.53110  0.70110  Biso   1.000  H
  H115     1.0000 0.41450  0.96890  0.29890  Biso   1.000  H
  H116     1.0000 0.08550  0.03110  0.79890  Biso   1.000  H
  H117     1.0000 0.41450  0.53110  0.79890  Biso   1.000  H
  H118     1.0000 0.08550  0.46890  0.29890  Biso   1.000  H
  H119     1.0000 0.58550  0.03110  0.70110  Biso   1.000  H
  H120     1.0000 0.91450  0.96890  0.20110  Biso   1.000  H
  C193     1.0000 0.57230  0.40060  0.14479  Biso   1.000  C
  C194     1.0000 0.92770  0.59940  0.64479  Biso   1.000  C
  C195     1.0000 0.42770  0.90060  0.35521  Biso   1.000  C
  C196     1.0000 0.07230  0.09940  0.85521  Biso   1.000  C
  C197     1.0000 0.42770  0.59940  0.85521  Biso   1.000  C
  C198     1.0000 0.07230  0.40060  0.35521  Biso   1.000  C
  C199     1.0000 0.57230  0.09940  0.64479  Biso   1.000  C
  C200     1.0000 0.92770  0.90060  0.14479  Biso   1.000  C
  H121     1.0000 0.61170  0.46590  0.13590  Biso   1.000  H
  H122     1.0000 0.88830  0.53410  0.63590  Biso   1.000  H
  H123     1.0000 0.38830  0.96590  0.36410  Biso   1.000  H
  H124     1.0000 0.11170  0.03410  0.86410  Biso   1.000  H
  H125     1.0000 0.38830  0.53410  0.86410  Biso   1.000  H
  H126     1.0000 0.11170  0.46590  0.36410  Biso   1.000  H
  H127     1.0000 0.61170  0.03410  0.63590  Biso   1.000  H
  H128     1.0000 0.88830  0.96590  0.13590  Biso   1.000  H
  C201     1.0000 0.47880  0.32160  0.23764  Biso   1.000  C
  C202     1.0000 0.02120  0.67840  0.73764  Biso   1.000  C
  C203     1.0000 0.52120  0.82160  0.26236  Biso   1.000  C
  C204     1.0000 0.97880  0.17840  0.76236  Biso   1.000  C
  C205     1.0000 0.52120  0.67840  0.76236  Biso   1.000  C
  C206     1.0000 0.97880  0.32160  0.26236  Biso   1.000  C
  C207     1.0000 0.47880  0.17840  0.73764  Biso   1.000  C
  C208     1.0000 0.02120  0.82160  0.23764  Biso   1.000  C
  N25      1.0000 0.46530  0.33450  0.26958  Biso   1.000  N
  N26      1.0000 0.03470  0.66550  0.76958  Biso   1.000  N
  N27      1.0000 0.53470  0.83450  0.23042  Biso   1.000  N
  N28      1.0000 0.96530  0.16550  0.73042  Biso   1.000  N
  N29      1.0000 0.53470  0.66550  0.73042  Biso   1.000  N
  N30      1.0000 0.96530  0.33450  0.23042  Biso   1.000  N
  N31      1.0000 0.46530  0.16550  0.76958  Biso   1.000  N
  N32      1.0000 0.03470  0.83450  0.26958  Biso   1.000  N
  O33      1.0000 0.47754  0.76430  0.01884  Biso   1.000  O
  O34      1.0000 0.02246  0.23570  0.51884  Biso   1.000  O
  O35      1.0000 0.52246  0.26430  0.48116  Biso   1.000  O
  O36      1.0000 0.97754  0.73570  0.98116  Biso   1.000  O
  O37      1.0000 0.52246  0.23570  0.98116  Biso   1.000  O
  O38      1.0000 0.97754  0.76430  0.48116  Biso   1.000  O
  O39      1.0000 0.47754  0.73570  0.51884  Biso   1.000  O
  O40      1.0000 0.02246  0.26430  0.01884  Biso   1.000  O
  H129     1.0000 0.49300  0.80480  0.99820  Biso   1.000  H
  H130     1.0000 0.00700  0.19520  0.49820  Biso   1.000  H
  H131     1.0000 0.50700  0.30480  0.50180  Biso   1.000  H
  H132     1.0000 0.99300  0.69520  0.00180  Biso   1.000  H
  H133     1.0000 0.50700  0.19520  0.00180  Biso   1.000  H
  H134     1.0000 0.99300  0.80480  0.50180  Biso   1.000  H
  H135     1.0000 0.49300  0.69520  0.49820  Biso   1.000  H
  H136     1.0000 0.00700  0.30480  0.99820  Biso   1.000  H
  H137     1.0000 0.45000  0.70100  0.02870  Biso   1.000  H
  H138     1.0000 0.05000  0.29900  0.52870  Biso   1.000  H
  H139     1.0000 0.55000  0.20100  0.47130  Biso   1.000  H
  H140     1.0000 0.95000  0.79900  0.97130  Biso   1.000  H
  H141     1.0000 0.55000  0.29900  0.97130  Biso   1.000  H
  H142     1.0000 0.95000  0.70100  0.47130  Biso   1.000  H
  H143     1.0000 0.45000  0.79900  0.52870  Biso   1.000  H
  H144     1.0000 0.05000  0.20100  0.02870  Biso   1.000  H
