data_image0
_cell_length_a       8.759
_cell_length_b       8.879
_cell_length_c       9.735
_cell_angle_alpha    79.269
_cell_angle_beta     63.584
_cell_angle_gamma    86.922

_symmetry_space_group_name_H-M    "P 1"
_symmetry_int_tables_number       1

loop_
  _symmetry_equiv_pos_as_xyz
  'x, y, z'

loop_
  _atom_site_label
  _atom_site_occupancy
  _atom_site_fract_x
  _atom_site_fract_y
  _atom_site_fract_z
  _atom_site_thermal_displace_type
  _atom_site_B_iso_or_equiv
  _atom_site_type_symbol
  Cu1      1.0000 0.36691  0.08450  0.90150  Biso   1.000  Cu
  Cu2      1.0000 0.63309  0.91550  0.09850  Biso   1.000  Cu
  Cl1      1.0000 0.11320  0.00340  0.11360  Biso   1.000  Cl
  Cl2      1.0000 0.88680  0.99660  0.88640  Biso   1.000  Cl
  Cl3      1.0000 0.48140  0.84640  0.92740  Biso   1.000  Cl
  Cl4      1.0000 0.51860  0.15360  0.07260  Biso   1.000  Cl
  N1       1.0000 0.26120  0.28500  0.86460  Biso   1.000  N
  N2       1.0000 0.73880  0.71500  0.13540  Biso   1.000  N
  N3       1.0000 0.10380  0.28760  0.87400  Biso   1.000  N
  N4       1.0000 0.89620  0.71240  0.12600  Biso   1.000  N
  H1       1.0000 0.03710  0.20780  0.90690  Biso   1.000  H
  H2       1.0000 0.96290  0.79220  0.09310  Biso   1.000  H
  N5       1.0000 0.44390  0.86060  0.31290  Biso   1.000  N
  N6       1.0000 0.55610  0.13940  0.68710  Biso   1.000  N
  N7       1.0000 0.27930  0.85360  0.33530  Biso   1.000  N
  N8       1.0000 0.72070  0.14640  0.66470  Biso   1.000  N
  H3       1.0000 0.24750  0.88160  0.26290  Biso   1.000  H
  H4       1.0000 0.75250  0.11840  0.73710  Biso   1.000  H
  C1       1.0000 0.59950  0.80280  0.47200  Biso   1.000  C
  C2       1.0000 0.40050  0.19720  0.52800  Biso   1.000  C
  H5       1.0000 0.68320  0.87290  0.38770  Biso   1.000  H
  H6       1.0000 0.31680  0.12710  0.61230  Biso   1.000  H
  H7       1.0000 0.57540  0.83270  0.56920  Biso   1.000  H
  H8       1.0000 0.42460  0.16730  0.43080  Biso   1.000  H
  H9       1.0000 0.64260  0.70110  0.47160  Biso   1.000  H
  H10      1.0000 0.35740  0.29890  0.52840  Biso   1.000  H
  C3       1.0000 0.44030  0.80540  0.45220  Biso   1.000  C
  C4       1.0000 0.55970  0.19460  0.54780  Biso   1.000  C
  C5       1.0000 0.27050  0.76000  0.56440  Biso   1.000  C
  C6       1.0000 0.72950  0.24000  0.43560  Biso   1.000  C
  C7       1.0000 0.17370  0.79820  0.48340  Biso   1.000  C
  C8       1.0000 0.82630  0.20180  0.51660  Biso   1.000  C
  C9       1.0000 0.98410  0.78560  0.53480  Biso   1.000  C
  C10      1.0000 0.01590  0.21440  0.46520  Biso   1.000  C
  H11      1.0000 0.95370  0.68340  0.53450  Biso   1.000  H
  H12      1.0000 0.04630  0.31660  0.46550  Biso   1.000  H
  H13      1.0000 0.92360  0.80790  0.63820  Biso   1.000  H
  H14      1.0000 0.07640  0.19210  0.36180  Biso   1.000  H
  H15      1.0000 0.95450  0.85750  0.46440  Biso   1.000  H
  H16      1.0000 0.04550  0.14250  0.53560  Biso   1.000  H
  C11      1.0000 0.20910  0.69760  0.73440  Biso   1.000  C
  C12      1.0000 0.79090  0.30240  0.26560  Biso   1.000  C
  H17      1.0000 0.28340  0.73950  0.76890  Biso   1.000  H
  H18      1.0000 0.71660  0.26050  0.23110  Biso   1.000  H
  H19      1.0000 0.09610  0.73560  0.78980  Biso   1.000  H
  H20      1.0000 0.90390  0.26440  0.21020  Biso   1.000  H
  C13      1.0000 0.20000  0.52610  0.78290  Biso   1.000  C
  C14      1.0000 0.80000  0.47390  0.21710  Biso   1.000  C
  C15      1.0000 0.32280  0.43060  0.80850  Biso   1.000  C
  C16      1.0000 0.67720  0.56940  0.19150  Biso   1.000  C
  C17      1.0000 0.49770  0.47470  0.78260  Biso   1.000  C
  C18      1.0000 0.50230  0.52530  0.21740  Biso   1.000  C
  H21      1.0000 0.57770  0.47170  0.67660  Biso   1.000  H
  H22      1.0000 0.42230  0.52830  0.32340  Biso   1.000  H
  H23      1.0000 0.49730  0.57660  0.80280  Biso   1.000  H
  H24      1.0000 0.50270  0.42340  0.19720  Biso   1.000  H
  H25      1.0000 0.53010  0.40410  0.85180  Biso   1.000  H
  H26      1.0000 0.46990  0.59590  0.14820  Biso   1.000  H
  C19      1.0000 0.06150  0.42850  0.82650  Biso   1.000  C
  C20      1.0000 0.93850  0.57150  0.17350  Biso   1.000  C
  C21      1.0000 0.89040  0.45390  0.82900  Biso   1.000  C
  C22      1.0000 0.10960  0.54610  0.17100  Biso   1.000  C
  H27      1.0000 0.80940  0.37900  0.90960  Biso   1.000  H
  H28      1.0000 0.19060  0.62100  0.09040  Biso   1.000  H
  H29      1.0000 0.85470  0.55490  0.84920  Biso   1.000  H
  H30      1.0000 0.14530  0.44510  0.15080  Biso   1.000  H
  H31      1.0000 0.89720  0.44400  0.72990  Biso   1.000  H
  H32      1.0000 0.10280  0.55600  0.27010  Biso   1.000  H
