data_image0
_cell_length_a       9.8382
_cell_length_b       11.9417
_cell_length_c       12.3552
_cell_angle_alpha    116.511
_cell_angle_beta     99.776
_cell_angle_gamma    93.546

_symmetry_space_group_name_H-M    "P 1"
_symmetry_int_tables_number       1

loop_
  _symmetry_equiv_pos_as_xyz
  'x, y, z'

loop_
  _atom_site_label
  _atom_site_occupancy
  _atom_site_fract_x
  _atom_site_fract_y
  _atom_site_fract_z
  _atom_site_thermal_displace_type
  _atom_site_B_iso_or_equiv
  _atom_site_type_symbol
  Na1      1.0000 0.21930  0.88260  0.37790  Biso   1.000  Na
  Cu1      1.0000 0.58315  0.91621  0.45338  Biso   1.000  Cu
  Cu2      1.0000 0.84714  0.81695  0.30558  Biso   1.000  Cu
  Cu3      1.0000 0.22016  0.66743  0.06683  Biso   1.000  Cu
  Cu4      1.0000 0.22869  0.14242  0.33462  Biso   1.000  Cu
  Cu5      1.0000 0.20730  0.03049  0.69600  Biso   1.000  Cu
  Cl1      1.0000 0.57870  0.41510  0.15430  Biso   1.000  Cl
  Cl2      1.0000 0.27490  0.34850  0.67030  Biso   1.000  Cl
  Cl3      1.0000 0.12930  0.38090  0.09430  Biso   1.000  Cl
  Cl4      1.0000 0.19850  0.93830  0.01320  Biso   1.000  Cl
  Cl5      1.0000 0.85020  0.68880  0.66130  Biso   1.000  Cl
  C1       1.0000 0.48910  0.76040  0.19630  Biso   1.000  C
  C2       1.0000 0.51190  0.68840  0.06670  Biso   1.000  C
  H1       1.0000 0.58560  0.63660  0.06580  Biso   1.000  H
  C3       1.0000 0.55180  0.78270  0.02020  Biso   1.000  C
  H2       1.0000 0.56640  0.73730  0.93770  Biso   1.000  H
  H3       1.0000 0.63600  0.83840  0.07410  Biso   1.000  H
  H4       1.0000 0.47780  0.83140  0.01980  Biso   1.000  H
  C4       1.0000 0.95200  0.68830  0.09240  Biso   1.000  C
  C5       1.0000 0.92950  0.61450  0.95260  Biso   1.000  C
  H5       1.0000 0.91080  0.67420  0.91950  Biso   1.000  H
  C6       1.0000 0.81010  0.50960  0.89210  Biso   1.000  C
  H6       1.0000 0.80320  0.46810  0.80420  Biso   1.000  H
  H7       1.0000 0.72550  0.54290  0.90940  Biso   1.000  H
  H8       1.0000 0.82410  0.44990  0.92370  Biso   1.000  H
  C7       1.0000 0.49400  0.10750  0.40010  Biso   1.000  C
  C8       1.0000 0.51950  0.21500  0.36960  Biso   1.000  C
  H9       1.0000 0.55140  0.17910  0.29170  Biso   1.000  H
  C9       1.0000 0.63290  0.31980  0.46280  Biso   1.000  C
  H10      1.0000 0.64350  0.38460  0.43760  Biso   1.000  H
  H11      1.0000 0.71910  0.28700  0.46810  Biso   1.000  H
  H12      1.0000 0.60890  0.35510  0.54240  Biso   1.000  H
  C10      1.0000 0.95930  0.03750  0.29570  Biso   1.000  C
  C11      1.0000 0.93770  0.15160  0.28060  Biso   1.000  C
  H13      1.0000 0.90790  0.21150  0.35420  Biso   1.000  H
  C12      1.0000 0.82540  0.12650  0.16840  Biso   1.000  C
  H14      1.0000 0.73940  0.08760  0.17250  Biso   1.000  H
  H15      1.0000 0.85330  0.07100  0.09420  Biso   1.000  H
  H16      1.0000 0.81230  0.20510  0.16740  Biso   1.000  H
  C13      1.0000 0.47460  0.03320  0.66840  Biso   1.000  C
  C14      1.0000 0.49500  0.11210  0.80650  Biso   1.000  C
  H17      1.0000 0.54370  0.19620  0.82930  Biso   1.000  H
  C15      1.0000 0.58500  0.05600  0.87680  Biso   1.000  C
  H18      1.0000 0.59560  0.10870  0.96430  Biso   1.000  H
  H19      1.0000 0.67480  0.05200  0.85630  Biso   1.000  H
  H20      1.0000 0.54050  0.97240  0.85410  Biso   1.000  H
  C16      1.0000 0.93980  0.96930  0.56020  Biso   1.000  C
  C17      1.0000 0.92270  0.05530  0.69000  Biso   1.000  C
  H21      1.0000 0.84280  0.01680  0.70610  Biso   1.000  H
  C18      1.0000 0.89400  0.18510  0.69890  Biso   1.000  C
  H22      1.0000 0.88310  0.24000  0.78100  Biso   1.000  H
  H23      1.0000 0.81020  0.17290  0.63970  Biso   1.000  H
  H24      1.0000 0.97100  0.22270  0.68150  Biso   1.000  H
  N1       1.0000 0.37660  0.60590  0.98840  Biso   1.000  N
  H25      1.0000 0.38090  0.52620  0.97640  Biso   1.000  H
  H26      1.0000 0.36190  0.60440  0.91380  Biso   1.000  H
  N2       1.0000 0.06300  0.57050  0.92330  Biso   1.000  N
  H27      1.0000 0.07850  0.58010  0.85800  Biso   1.000  H
  H28      1.0000 0.05690  0.48760  0.90250  Biso   1.000  H
  N3       1.0000 0.38740  0.25760  0.34390  Biso   1.000  N
  H29      1.0000 0.37770  0.26070  0.27160  Biso   1.000  H
  H30      1.0000 0.38790  0.33620  0.40420  Biso   1.000  H
  N4       1.0000 0.07490  0.21270  0.27910  Biso   1.000  N
  H31      1.0000 0.08640  0.29670  0.32900  Biso   1.000  H
  H32      1.0000 0.07480  0.20010  0.20170  Biso   1.000  H
  N5       1.0000 0.36140  0.12800  0.84350  Biso   1.000  N
  H33      1.0000 0.35260  0.21060  0.87830  Biso   1.000  H
  H34      1.0000 0.35780  0.10040  0.90000  Biso   1.000  H
  N6       1.0000 0.04800  0.06930  0.77980  Biso   1.000  N
  H35      1.0000 0.03440  0.01610  0.81180  Biso   1.000  H
  H36      1.0000 0.06690  0.14910  0.84220  Biso   1.000  H
  O1       1.0000 0.36940  0.76610  0.21710  Biso   1.000  O
  O2       1.0000 0.59860  0.81500  0.28400  Biso   1.000  O
  O3       1.0000 0.07380  0.72570  0.15830  Biso   1.000  O
  O4       1.0000 0.84500  0.70980  0.13600  Biso   1.000  O
  O5       1.0000 0.37190  0.06180  0.38980  Biso   1.000  O
  O6       1.0000 0.59780  0.06700  0.43280  Biso   1.000  O
  O7       1.0000 0.08340  0.02040  0.32900  Biso   1.000  O
  O8       1.0000 0.85110  0.96440  0.27910  Biso   1.000  O
  O9       1.0000 0.35380  0.99130  0.60240  Biso   1.000  O
  O10      1.0000 0.58190  0.01380  0.62620  Biso   1.000  O
  O11      1.0000 0.05960  0.95150  0.54280  Biso   1.000  O
  O12      1.0000 0.82920  0.91840  0.47510  Biso   1.000  O
  O13      1.0000 0.54030  0.75900  0.46360  Biso   1.000  O
  O14      1.0000 0.86330  0.67120  0.33990  Biso   1.000  O
  O15      1.0000 0.19900  0.70100  0.40510  Biso   1.000  O
  O16      1.0000 0.05000  0.47060  0.46000  Biso   1.000  O
  O17      1.0000 0.48500  0.71800  0.64600  Biso   1.000  O
  O18      1.0000 0.22080  0.81600  0.67610  Biso   1.000  O
  O19      1.0000 0.52300  0.40040  0.03240  Biso   1.000  O
  O20      1.0000 0.72730  0.43420  0.17440  Biso   1.000  O
  O21      1.0000 0.52860  0.30430  0.15650  Biso   1.000  O
  O22      1.0000 0.53710  0.52280  0.24190  Biso   1.000  O
  O23      1.0000 0.41790  0.35300  0.68600  Biso   1.000  O
  O24      1.0000 0.19690  0.27710  0.55670  Biso   1.000  O
  O25      1.0000 0.24100  0.46810  0.71060  Biso   1.000  O
  O26      1.0000 0.24900  0.32300  0.76140  Biso   1.000  O
  O27      1.0000 0.22000  0.49280  0.13000  Biso   1.000  O
  O28      1.0000 0.18300  0.29100  0.10900  Biso   1.000  O
  O29      1.0000 0.10500  0.34970  0.97720  Biso   1.000  O
  O30      1.0000 0.05200  0.43600  0.16700  Biso   1.000  O
  O31      1.0000 0.20440  0.81090  0.94960  Biso   1.000  O
  O32      1.0000 0.25900  0.97700  0.12470  Biso   1.000  O
  O33      1.0000 0.25100  0.99700  0.97100  Biso   1.000  O
  O34      1.0000 0.06040  0.96300  0.02000  Biso   1.000  O
  O35      1.0000 0.74500  0.67800  0.72100  Biso   1.000  O
  O36      1.0000 0.89700  0.80010  0.68300  Biso   1.000  O
  O37      1.0000 0.78800  0.63160  0.53560  Biso   1.000  O
  O38      1.0000 0.94500  0.61420  0.68500  Biso   1.000  O
