data_image0
_cell_length_a       21.2859
_cell_length_b       12.8286
_cell_length_c       12.6456
_cell_angle_alpha    90
_cell_angle_beta     90
_cell_angle_gamma    90

_symmetry_space_group_name_H-M    "P 1"
_symmetry_int_tables_number       1

loop_
  _symmetry_equiv_pos_as_xyz
  'x, y, z'

loop_
  _atom_site_label
  _atom_site_occupancy
  _atom_site_fract_x
  _atom_site_fract_y
  _atom_site_fract_z
  _atom_site_thermal_displace_type
  _atom_site_B_iso_or_equiv
  _atom_site_type_symbol
  Cu1      1.0000 0.84328  0.83928  0.77215  Biso   1.000  Cu
  Cu2      1.0000 0.15672  0.16072  0.27215  Biso   1.000  Cu
  Cu3      1.0000 0.34328  0.16072  0.77215  Biso   1.000  Cu
  Cu4      1.0000 0.65672  0.83928  0.27215  Biso   1.000  Cu
  Cu5      1.0000 0.95943  0.74415  0.11885  Biso   1.000  Cu
  Cu6      1.0000 0.04057  0.25585  0.61885  Biso   1.000  Cu
  Cu7      1.0000 0.45943  0.25585  0.11885  Biso   1.000  Cu
  Cu8      1.0000 0.54057  0.74415  0.61885  Biso   1.000  Cu
  Cu9      1.0000 0.09274  0.67817  0.45332  Biso   1.000  Cu
  Cu10     1.0000 0.90726  0.32183  0.95332  Biso   1.000  Cu
  Cu11     1.0000 0.59274  0.32183  0.45332  Biso   1.000  Cu
  Cu12     1.0000 0.40726  0.67817  0.95332  Biso   1.000  Cu
  O1       1.0000 0.90618  0.73660  0.81840  Biso   1.000  O
  O2       1.0000 0.09382  0.26340  0.31840  Biso   1.000  O
  O3       1.0000 0.40618  0.26340  0.81840  Biso   1.000  O
  O4       1.0000 0.59382  0.73660  0.31840  Biso   1.000  O
  O5       1.0000 0.84659  0.88730  0.92160  Biso   1.000  O
  O6       1.0000 0.15341  0.11270  0.42160  Biso   1.000  O
  O7       1.0000 0.34659  0.11270  0.92160  Biso   1.000  O
  O8       1.0000 0.65341  0.88730  0.42160  Biso   1.000  O
  O9       1.0000 0.89932  0.85040  0.06990  Biso   1.000  O
  O10      1.0000 0.10068  0.14960  0.56990  Biso   1.000  O
  O11      1.0000 0.39932  0.14960  0.06990  Biso   1.000  O
  O12      1.0000 0.60068  0.85040  0.56990  Biso   1.000  O
  O13      1.0000 0.95117  0.47120  0.04910  Biso   1.000  O
  O14      1.0000 0.04883  0.52880  0.54910  Biso   1.000  O
  O15      1.0000 0.45117  0.52880  0.04910  Biso   1.000  O
  O16      1.0000 0.54883  0.47120  0.54910  Biso   1.000  O
  H1       1.0000 0.93360  0.44210  0.99950  Biso   1.000  H
  H2       1.0000 0.06640  0.55790  0.49950  Biso   1.000  H
  H3       1.0000 0.43360  0.55790  0.99950  Biso   1.000  H
  H4       1.0000 0.56640  0.44210  0.49950  Biso   1.000  H
  O17      1.0000 0.96693  0.80240  0.26380  Biso   1.000  O
  O18      1.0000 0.03307  0.19760  0.76380  Biso   1.000  O
  O19      1.0000 0.46693  0.19760  0.26380  Biso   1.000  O
  O20      1.0000 0.53307  0.80240  0.76380  Biso   1.000  O
  O21      1.0000 0.07962  0.60980  0.31570  Biso   1.000  O
  O22      1.0000 0.92038  0.39020  0.81570  Biso   1.000  O
  O23      1.0000 0.57962  0.39020  0.31570  Biso   1.000  O
  O24      1.0000 0.42038  0.60980  0.81570  Biso   1.000  O
  O25      1.0000 0.01826  0.76270  0.41240  Biso   1.000  O
  O26      1.0000 0.98174  0.23730  0.91240  Biso   1.000  O
  O27      1.0000 0.51826  0.23730  0.41240  Biso   1.000  O
  O28      1.0000 0.48174  0.76270  0.91240  Biso   1.000  O
  N1       1.0000 0.76566  0.92520  0.74150  Biso   1.000  N
  N2       1.0000 0.23434  0.07480  0.24150  Biso   1.000  N
  N3       1.0000 0.26566  0.07480  0.74150  Biso   1.000  N
  N4       1.0000 0.73434  0.92520  0.24150  Biso   1.000  N
  N5       1.0000 0.82700  0.76390  0.63400  Biso   1.000  N
  N6       1.0000 0.17300  0.23610  0.13400  Biso   1.000  N
  N7       1.0000 0.32700  0.23610  0.63400  Biso   1.000  N
  N8       1.0000 0.67300  0.76390  0.13400  Biso   1.000  N
  N9       1.0000 0.95476  0.69150  0.97610  Biso   1.000  N
  N10      1.0000 0.04524  0.30850  0.47610  Biso   1.000  N
  N11      1.0000 0.45476  0.30850  0.97610  Biso   1.000  N
  N12      1.0000 0.54524  0.69150  0.47610  Biso   1.000  N
  N13      1.0000 0.01899  0.64050  0.16660  Biso   1.000  N
  N14      1.0000 0.98101  0.35950  0.66660  Biso   1.000  N
  N15      1.0000 0.51899  0.35950  0.16660  Biso   1.000  N
  N16      1.0000 0.48101  0.64050  0.66660  Biso   1.000  N
  N17      1.0000 0.18257  0.63000  0.46110  Biso   1.000  N
  N18      1.0000 0.81743  0.37000  0.96110  Biso   1.000  N
  N19      1.0000 0.68257  0.37000  0.46110  Biso   1.000  N
  N20      1.0000 0.31743  0.63000  0.96110  Biso   1.000  N
  N21      1.0000 0.10950  0.76660  0.58200  Biso   1.000  N
  N22      1.0000 0.89050  0.23340  0.08200  Biso   1.000  N
  N23      1.0000 0.60950  0.23340  0.58200  Biso   1.000  N
  N24      1.0000 0.39050  0.76660  0.08200  Biso   1.000  N
  C1       1.0000 0.75510  0.91180  0.62650  Biso   1.000  C
  C2       1.0000 0.24490  0.08820  0.12650  Biso   1.000  C
  C3       1.0000 0.25510  0.08820  0.62650  Biso   1.000  C
  C4       1.0000 0.74490  0.91180  0.12650  Biso   1.000  C
  H5       1.0000 0.78470  0.95400  0.58700  Biso   1.000  H
  H6       1.0000 0.21530  0.04600  0.08700  Biso   1.000  H
  H7       1.0000 0.28470  0.04600  0.58700  Biso   1.000  H
  H8       1.0000 0.71530  0.95400  0.08700  Biso   1.000  H
  H9       1.0000 0.71290  0.93380  0.60810  Biso   1.000  H
  H10      1.0000 0.28710  0.06620  0.10810  Biso   1.000  H
  H11      1.0000 0.21290  0.06620  0.60810  Biso   1.000  H
  H12      1.0000 0.78710  0.93380  0.10810  Biso   1.000  H
  C5       1.0000 0.76380  0.79810  0.59930  Biso   1.000  C
  C6       1.0000 0.23620  0.20190  0.09930  Biso   1.000  C
  C7       1.0000 0.26380  0.20190  0.59930  Biso   1.000  C
  C8       1.0000 0.73620  0.79810  0.09930  Biso   1.000  C
  H13      1.0000 0.73190  0.75670  0.63430  Biso   1.000  H
  H14      1.0000 0.26810  0.24330  0.13430  Biso   1.000  H
  H15      1.0000 0.23190  0.24330  0.63430  Biso   1.000  H
  H16      1.0000 0.76810  0.75670  0.13430  Biso   1.000  H
  H17      1.0000 0.75950  0.78830  0.52360  Biso   1.000  H
  H18      1.0000 0.24050  0.21170  0.02360  Biso   1.000  H
  H19      1.0000 0.25950  0.21170  0.52360  Biso   1.000  H
  H20      1.0000 0.74050  0.78830  0.02360  Biso   1.000  H
  C9       1.0000 0.71200  0.88640  0.80550  Biso   1.000  C
  C10      1.0000 0.28800  0.11360  0.30550  Biso   1.000  C
  C11      1.0000 0.21200  0.11360  0.80550  Biso   1.000  C
  C12      1.0000 0.78800  0.88640  0.30550  Biso   1.000  C
  H21      1.0000 0.67400  0.91970  0.78240  Biso   1.000  H
  H22      1.0000 0.32600  0.08030  0.28240  Biso   1.000  H
  H23      1.0000 0.17400  0.08030  0.78240  Biso   1.000  H
  H24      1.0000 0.82600  0.91970  0.28240  Biso   1.000  H
  H25      1.0000 0.71910  0.90200  0.87870  Biso   1.000  H
  H26      1.0000 0.28090  0.09800  0.37870  Biso   1.000  H
  H27      1.0000 0.21910  0.09800  0.87870  Biso   1.000  H
  H28      1.0000 0.78090  0.90200  0.37870  Biso   1.000  H
  H29      1.0000 0.70820  0.81230  0.79660  Biso   1.000  H
  H30      1.0000 0.29180  0.18770  0.29660  Biso   1.000  H
  H31      1.0000 0.20820  0.18770  0.79660  Biso   1.000  H
  H32      1.0000 0.79180  0.81230  0.29660  Biso   1.000  H
  C13      1.0000 0.77440  0.03740  0.76690  Biso   1.000  C
  C14      1.0000 0.22560  0.96260  0.26690  Biso   1.000  C
  C15      1.0000 0.27440  0.96260  0.76690  Biso   1.000  C
  C16      1.0000 0.72560  0.03740  0.26690  Biso   1.000  C
  H33      1.0000 0.73550  0.07380  0.75650  Biso   1.000  H
  H34      1.0000 0.26450  0.92620  0.25650  Biso   1.000  H
  H35      1.0000 0.23550  0.92620  0.75650  Biso   1.000  H
  H36      1.0000 0.76450  0.07380  0.25650  Biso   1.000  H
  H37      1.0000 0.80600  0.06630  0.72140  Biso   1.000  H
  H38      1.0000 0.19400  0.93370  0.22140  Biso   1.000  H
  H39      1.0000 0.30600  0.93370  0.72140  Biso   1.000  H
  H40      1.0000 0.69400  0.06630  0.22140  Biso   1.000  H
  H41      1.0000 0.78740  0.04440  0.83920  Biso   1.000  H
  H42      1.0000 0.21260  0.95560  0.33920  Biso   1.000  H
  H43      1.0000 0.28740  0.95560  0.83920  Biso   1.000  H
  H44      1.0000 0.71260  0.04440  0.33920  Biso   1.000  H
  C17      1.0000 0.87550  0.79650  0.55370  Biso   1.000  C
  C18      1.0000 0.12450  0.20350  0.05370  Biso   1.000  C
  C19      1.0000 0.37550  0.20350  0.55370  Biso   1.000  C
  C20      1.0000 0.62450  0.79650  0.05370  Biso   1.000  C
  H45      1.0000 0.86350  0.77110  0.48510  Biso   1.000  H
  H46      1.0000 0.13650  0.22890  0.98510  Biso   1.000  H
  H47      1.0000 0.36350  0.22890  0.48510  Biso   1.000  H
  H48      1.0000 0.63650  0.77110  0.98510  Biso   1.000  H
  H49      1.0000 0.91560  0.76790  0.57280  Biso   1.000  H
  H50      1.0000 0.08440  0.23210  0.07280  Biso   1.000  H
  H51      1.0000 0.41560  0.23210  0.57280  Biso   1.000  H
  H52      1.0000 0.58440  0.76790  0.07280  Biso   1.000  H
  H53      1.0000 0.87820  0.87120  0.55190  Biso   1.000  H
  H54      1.0000 0.12180  0.12880  0.05190  Biso   1.000  H
  H55      1.0000 0.37820  0.12880  0.55190  Biso   1.000  H
  H56      1.0000 0.62180  0.87120  0.05190  Biso   1.000  H
  C21      1.0000 0.82630  0.64850  0.64730  Biso   1.000  C
  C22      1.0000 0.17370  0.35150  0.14730  Biso   1.000  C
  C23      1.0000 0.32630  0.35150  0.64730  Biso   1.000  C
  C24      1.0000 0.67370  0.64850  0.14730  Biso   1.000  C
  H57      1.0000 0.81660  0.61610  0.58090  Biso   1.000  H
  H58      1.0000 0.18340  0.38390  0.08090  Biso   1.000  H
  H59      1.0000 0.31660  0.38390  0.58090  Biso   1.000  H
  H60      1.0000 0.68340  0.61610  0.08090  Biso   1.000  H
  H61      1.0000 0.79510  0.62970  0.69870  Biso   1.000  H
  H62      1.0000 0.20490  0.37030  0.19870  Biso   1.000  H
  H63      1.0000 0.29510  0.37030  0.69870  Biso   1.000  H
  H64      1.0000 0.70490  0.62970  0.19870  Biso   1.000  H
  H65      1.0000 0.86690  0.62540  0.67100  Biso   1.000  H
  H66      1.0000 0.13310  0.37460  0.17100  Biso   1.000  H
  H67      1.0000 0.36690  0.37460  0.67100  Biso   1.000  H
  H68      1.0000 0.63310  0.62540  0.17100  Biso   1.000  H
  C25      1.0000 0.91830  0.74750  0.91640  Biso   1.000  C
  C26      1.0000 0.08170  0.25250  0.41640  Biso   1.000  C
  C27      1.0000 0.41830  0.25250  0.91640  Biso   1.000  C
  C28      1.0000 0.58170  0.74750  0.41640  Biso   1.000  C
  C29      1.0000 0.88550  0.83650  0.97400  Biso   1.000  C
  C30      1.0000 0.11450  0.16350  0.47400  Biso   1.000  C
  C31      1.0000 0.38550  0.16350  0.97400  Biso   1.000  C
  C32      1.0000 0.61450  0.83650  0.47400  Biso   1.000  C
  C33      1.0000 0.99060  0.60360  0.93170  Biso   1.000  C
  C34      1.0000 0.00940  0.39640  0.43170  Biso   1.000  C
  C35      1.0000 0.49060  0.39640  0.93170  Biso   1.000  C
  C36      1.0000 0.50940  0.60360  0.43170  Biso   1.000  C
  H69      1.0000 0.02950  0.62980  0.90180  Biso   1.000  H
  H70      1.0000 0.97050  0.37020  0.40180  Biso   1.000  H
  H71      1.0000 0.52950  0.37020  0.90180  Biso   1.000  H
  H72      1.0000 0.47050  0.62980  0.40180  Biso   1.000  H
  H73      1.0000 0.96650  0.57220  0.87490  Biso   1.000  H
  H74      1.0000 0.03350  0.42780  0.37490  Biso   1.000  H
  H75      1.0000 0.46650  0.42780  0.87490  Biso   1.000  H
  H76      1.0000 0.53350  0.57220  0.37490  Biso   1.000  H
  C37      1.0000 0.00550  0.52210  0.01220  Biso   1.000  C
  C38      1.0000 0.99450  0.47790  0.51220  Biso   1.000  C
  C39      1.0000 0.50550  0.47790  0.01220  Biso   1.000  C
  C40      1.0000 0.49450  0.52210  0.51220  Biso   1.000  C
  H77      1.0000 0.02960  0.46870  0.97440  Biso   1.000  H
  H78      1.0000 0.97040  0.53130  0.47440  Biso   1.000  H
  H79      1.0000 0.52960  0.53130  0.97440  Biso   1.000  H
  H80      1.0000 0.47040  0.46870  0.47440  Biso   1.000  H
  C41      1.0000 0.04690  0.55550  0.10470  Biso   1.000  C
  C42      1.0000 0.95310  0.44450  0.60470  Biso   1.000  C
  C43      1.0000 0.54690  0.44450  0.10470  Biso   1.000  C
  C44      1.0000 0.45310  0.55550  0.60470  Biso   1.000  C
  H81      1.0000 0.05380  0.49610  0.15070  Biso   1.000  H
  H82      1.0000 0.94620  0.50390  0.65070  Biso   1.000  H
  H83      1.0000 0.55380  0.50390  0.15070  Biso   1.000  H
  H84      1.0000 0.44620  0.49610  0.65070  Biso   1.000  H
  H85      1.0000 0.08740  0.57780  0.07780  Biso   1.000  H
  H86      1.0000 0.91260  0.42220  0.57780  Biso   1.000  H
  H87      1.0000 0.58740  0.42220  0.07780  Biso   1.000  H
  H88      1.0000 0.41260  0.57780  0.57780  Biso   1.000  H
  C45      1.0000 0.03777  0.65850  0.26100  Biso   1.000  C
  C46      1.0000 0.96223  0.34150  0.76100  Biso   1.000  C
  C47      1.0000 0.53777  0.34150  0.26100  Biso   1.000  C
  C48      1.0000 0.46223  0.65850  0.76100  Biso   1.000  C
  C49      1.0000 0.00460  0.74780  0.31720  Biso   1.000  C
  C50      1.0000 0.99540  0.25220  0.81720  Biso   1.000  C
  C51      1.0000 0.50460  0.25220  0.31720  Biso   1.000  C
  C52      1.0000 0.49540  0.74780  0.81720  Biso   1.000  C
  C53      1.0000 0.20440  0.66440  0.56580  Biso   1.000  C
  C54      1.0000 0.79560  0.33560  0.06580  Biso   1.000  C
  C55      1.0000 0.70440  0.33560  0.56580  Biso   1.000  C
  C56      1.0000 0.29560  0.66440  0.06580  Biso   1.000  C
  H89      1.0000 0.19930  0.60670  0.61460  Biso   1.000  H
  H90      1.0000 0.80070  0.39330  0.11460  Biso   1.000  H
  H91      1.0000 0.69930  0.39330  0.61460  Biso   1.000  H
  H92      1.0000 0.30070  0.60670  0.11460  Biso   1.000  H
  H93      1.0000 0.24910  0.67870  0.56090  Biso   1.000  H
  H94      1.0000 0.75090  0.32130  0.06090  Biso   1.000  H
  H95      1.0000 0.74910  0.32130  0.56090  Biso   1.000  H
  H96      1.0000 0.25090  0.67870  0.06090  Biso   1.000  H
  C57      1.0000 0.17710  0.74650  0.60740  Biso   1.000  C
  C58      1.0000 0.82290  0.25350  0.10740  Biso   1.000  C
  C59      1.0000 0.67710  0.25350  0.60740  Biso   1.000  C
  C60      1.0000 0.32290  0.74650  0.10740  Biso   1.000  C
  H97      1.0000 0.20090  0.80750  0.58600  Biso   1.000  H
  H98      1.0000 0.79910  0.19250  0.08600  Biso   1.000  H
  H99      1.0000 0.70090  0.19250  0.58600  Biso   1.000  H
  H100     1.0000 0.29910  0.80750  0.08600  Biso   1.000  H
  H101     1.0000 0.18080  0.74100  0.68360  Biso   1.000  H
  H102     1.0000 0.81920  0.25900  0.18360  Biso   1.000  H
  H103     1.0000 0.68080  0.25900  0.68360  Biso   1.000  H
  H104     1.0000 0.31920  0.74100  0.18360  Biso   1.000  H
  C61      1.0000 0.18890  0.51450  0.45260  Biso   1.000  C
  C62      1.0000 0.81110  0.48550  0.95260  Biso   1.000  C
  C63      1.0000 0.68890  0.48550  0.45260  Biso   1.000  C
  C64      1.0000 0.31110  0.51450  0.95260  Biso   1.000  C
  H105     1.0000 0.23250  0.49630  0.44690  Biso   1.000  H
  H106     1.0000 0.76750  0.50370  0.94690  Biso   1.000  H
  H107     1.0000 0.73250  0.50370  0.44690  Biso   1.000  H
  H108     1.0000 0.26750  0.49630  0.94690  Biso   1.000  H
  H109     1.0000 0.16680  0.49050  0.39100  Biso   1.000  H
  H110     1.0000 0.83320  0.50950  0.89100  Biso   1.000  H
  H111     1.0000 0.66680  0.50950  0.39100  Biso   1.000  H
  H112     1.0000 0.33320  0.49050  0.89100  Biso   1.000  H
  H113     1.0000 0.17130  0.48230  0.51440  Biso   1.000  H
  H114     1.0000 0.82870  0.51770  0.01440  Biso   1.000  H
  H115     1.0000 0.67130  0.51770  0.51440  Biso   1.000  H
  H116     1.0000 0.32870  0.48230  0.01440  Biso   1.000  H
  C65      1.0000 0.21700  0.67820  0.37420  Biso   1.000  C
  C66      1.0000 0.78300  0.32180  0.87420  Biso   1.000  C
  C67      1.0000 0.71700  0.32180  0.37420  Biso   1.000  C
  C68      1.0000 0.28300  0.67820  0.87420  Biso   1.000  C
  H117     1.0000 0.26010  0.65630  0.37650  Biso   1.000  H
  H118     1.0000 0.73990  0.34370  0.87650  Biso   1.000  H
  H119     1.0000 0.76010  0.34370  0.37650  Biso   1.000  H
  H120     1.0000 0.23990  0.65630  0.87650  Biso   1.000  H
  H121     1.0000 0.21490  0.75270  0.38090  Biso   1.000  H
  H122     1.0000 0.78510  0.24730  0.88090  Biso   1.000  H
  H123     1.0000 0.71490  0.24730  0.38090  Biso   1.000  H
  H124     1.0000 0.28510  0.75270  0.88090  Biso   1.000  H
  H125     1.0000 0.19860  0.65740  0.30820  Biso   1.000  H
  H126     1.0000 0.80140  0.34260  0.80820  Biso   1.000  H
  H127     1.0000 0.69860  0.34260  0.30820  Biso   1.000  H
  H128     1.0000 0.30140  0.65740  0.80820  Biso   1.000  H
  C69      1.0000 0.10280  0.88040  0.56030  Biso   1.000  C
  C70      1.0000 0.89720  0.11960  0.06030  Biso   1.000  C
  C71      1.0000 0.60280  0.11960  0.56030  Biso   1.000  C
  C72      1.0000 0.39720  0.88040  0.06030  Biso   1.000  C
  H129     1.0000 0.12810  0.91900  0.60930  Biso   1.000  H
  H130     1.0000 0.87190  0.08100  0.10930  Biso   1.000  H
  H131     1.0000 0.62810  0.08100  0.60930  Biso   1.000  H
  H132     1.0000 0.37190  0.91900  0.10930  Biso   1.000  H
  H133     1.0000 0.05950  0.90030  0.56810  Biso   1.000  H
  H134     1.0000 0.94050  0.09970  0.06810  Biso   1.000  H
  H135     1.0000 0.55950  0.09970  0.56810  Biso   1.000  H
  H136     1.0000 0.44050  0.90030  0.06810  Biso   1.000  H
  H137     1.0000 0.11640  0.89490  0.48940  Biso   1.000  H
  H138     1.0000 0.88360  0.10510  0.98940  Biso   1.000  H
  H139     1.0000 0.61640  0.10510  0.48940  Biso   1.000  H
  H140     1.0000 0.38360  0.89490  0.98940  Biso   1.000  H
  C73      1.0000 0.06770  0.74020  0.66930  Biso   1.000  C
  C74      1.0000 0.93230  0.25980  0.16930  Biso   1.000  C
  C75      1.0000 0.56770  0.25980  0.66930  Biso   1.000  C
  C76      1.0000 0.43230  0.74020  0.16930  Biso   1.000  C
  H141     1.0000 0.07780  0.78280  0.72950  Biso   1.000  H
  H142     1.0000 0.92220  0.21720  0.22950  Biso   1.000  H
  H143     1.0000 0.57780  0.21720  0.72950  Biso   1.000  H
  H144     1.0000 0.42220  0.78280  0.22950  Biso   1.000  H
  H145     1.0000 0.07300  0.66810  0.68740  Biso   1.000  H
  H146     1.0000 0.92700  0.33190  0.18740  Biso   1.000  H
  H147     1.0000 0.57300  0.33190  0.68740  Biso   1.000  H
  H148     1.0000 0.42700  0.66810  0.18740  Biso   1.000  H
  H149     1.0000 0.02500  0.75250  0.64870  Biso   1.000  H
  H150     1.0000 0.97500  0.24750  0.14870  Biso   1.000  H
  H151     1.0000 0.52500  0.24750  0.64870  Biso   1.000  H
  H152     1.0000 0.47500  0.75250  0.14870  Biso   1.000  H
  O29      1.0000 0.91920  0.95390  0.72330  Biso   1.000  O
  O30      1.0000 0.08080  0.04610  0.22330  Biso   1.000  O
  O31      1.0000 0.41920  0.04610  0.72330  Biso   1.000  O
  O32      1.0000 0.58080  0.95390  0.22330  Biso   1.000  O
  H153     1.0000 0.95480  0.95510  0.76380  Biso   1.000  H
  H154     1.0000 0.04520  0.04490  0.26380  Biso   1.000  H
  H155     1.0000 0.45480  0.04490  0.76380  Biso   1.000  H
  H156     1.0000 0.54520  0.95510  0.26380  Biso   1.000  H
  H157     1.0000 0.91310  0.01130  0.68690  Biso   1.000  H
  H158     1.0000 0.08690  0.98870  0.18690  Biso   1.000  H
  H159     1.0000 0.41310  0.98870  0.68690  Biso   1.000  H
  H160     1.0000 0.58690  0.01130  0.18690  Biso   1.000  H
  Cl1      1.0000 0.14735  0.42381  0.78237  Biso   1.000  Cl
  Cl2      1.0000 0.85265  0.57619  0.28237  Biso   1.000  Cl
  Cl3      1.0000 0.64735  0.57619  0.78237  Biso   1.000  Cl
  Cl4      1.0000 0.35265  0.42381  0.28237  Biso   1.000  Cl
  O33      1.0000 0.14610  0.52910  0.79480  Biso   1.000  O
  O34      1.0000 0.85390  0.47090  0.29480  Biso   1.000  O
  O35      1.0000 0.64610  0.47090  0.79480  Biso   1.000  O
  O36      1.0000 0.35390  0.52910  0.29480  Biso   1.000  O
  O37      1.0000 0.10200  0.37560  0.85500  Biso   1.000  O
  O38      1.0000 0.89800  0.62440  0.35500  Biso   1.000  O
  O39      1.0000 0.60200  0.62440  0.85500  Biso   1.000  O
  O40      1.0000 0.39800  0.37560  0.35500  Biso   1.000  O
  O41      1.0000 0.19360  0.36650  0.83290  Biso   1.000  O
  O42      1.0000 0.80640  0.63350  0.33290  Biso   1.000  O
  O43      1.0000 0.69360  0.63350  0.83290  Biso   1.000  O
  O44      1.0000 0.30640  0.36650  0.33290  Biso   1.000  O
  O45      1.0000 0.13640  0.37710  0.68050  Biso   1.000  O
  O46      1.0000 0.86360  0.62290  0.18050  Biso   1.000  O
  O47      1.0000 0.63640  0.62290  0.68050  Biso   1.000  O
  O48      1.0000 0.36360  0.37710  0.18050  Biso   1.000  O
  Cl5      1.0000 0.87333  0.16516  0.51644  Biso   1.000  Cl
  Cl6      1.0000 0.12667  0.83484  0.01644  Biso   1.000  Cl
  Cl7      1.0000 0.37333  0.83484  0.51644  Biso   1.000  Cl
  Cl8      1.0000 0.62667  0.16516  0.01644  Biso   1.000  Cl
  O49      1.0000 0.85230  0.21870  0.60940  Biso   1.000  O
  O50      1.0000 0.14770  0.78130  0.10940  Biso   1.000  O
  O51      1.0000 0.35230  0.78130  0.60940  Biso   1.000  O
  O52      1.0000 0.64770  0.21870  0.10940  Biso   1.000  O
  O53      1.0000 0.92820  0.11580  0.54590  Biso   1.000  O
  O54      1.0000 0.07180  0.88420  0.04590  Biso   1.000  O
  O55      1.0000 0.42820  0.88420  0.54590  Biso   1.000  O
  O56      1.0000 0.57180  0.11580  0.04590  Biso   1.000  O
  O57      1.0000 0.82670  0.09790  0.49040  Biso   1.000  O
  O58      1.0000 0.17330  0.90210  0.99040  Biso   1.000  O
  O59      1.0000 0.32670  0.90210  0.49040  Biso   1.000  O
  O60      1.0000 0.67330  0.09790  0.99040  Biso   1.000  O
  O61      1.0000 0.88710  0.23900  0.44210  Biso   1.000  O
  O62      1.0000 0.11290  0.76100  0.94210  Biso   1.000  O
  O63      1.0000 0.38710  0.76100  0.44210  Biso   1.000  O
  O64      1.0000 0.61290  0.23900  0.94210  Biso   1.000  O
  O65      1.0000 0.97520  0.01600  0.33700  Biso   1.000  O
  O66      1.0000 0.02480  0.98400  0.83700  Biso   1.000  O
  O67      1.0000 0.47520  0.98400  0.33700  Biso   1.000  O
  O68      1.0000 0.52480  0.01600  0.83700  Biso   1.000  O
  H161     1.0000 0.00720  0.97670  0.36580  Biso   1.000  H
  H162     1.0000 0.99280  0.02330  0.86580  Biso   1.000  H
  H163     1.0000 0.50720  0.02330  0.36580  Biso   1.000  H
  H164     1.0000 0.49280  0.97670  0.86580  Biso   1.000  H
  H165     1.0000 0.96050  0.05500  0.38450  Biso   1.000  H
  H166     1.0000 0.03950  0.94500  0.88450  Biso   1.000  H
  H167     1.0000 0.46050  0.94500  0.38450  Biso   1.000  H
  H168     1.0000 0.53950  0.05500  0.88450  Biso   1.000  H
  O69      1.0000 0.19970  0.49450  0.75860  Biso   1.000  O
  O70      1.0000 0.80030  0.50550  0.25860  Biso   1.000  O
  O71      1.0000 0.69970  0.50550  0.75860  Biso   1.000  O
  O72      1.0000 0.30030  0.49450  0.25860  Biso   1.000  O
  O73      1.0000 0.09460  0.47600  0.79900  Biso   1.000  O
  O74      1.0000 0.90540  0.52400  0.29900  Biso   1.000  O
  O75      1.0000 0.59460  0.52400  0.79900  Biso   1.000  O
  O76      1.0000 0.40540  0.47600  0.29900  Biso   1.000  O
