data_image0
_cell_length_a       21.2818
_cell_length_b       12.8206
_cell_length_c       12.6462
_cell_angle_alpha    90
_cell_angle_beta     90
_cell_angle_gamma    90

_symmetry_space_group_name_H-M    "P 1"
_symmetry_int_tables_number       1

loop_
  _symmetry_equiv_pos_as_xyz
  'x, y, z'

loop_
  _atom_site_label
  _atom_site_occupancy
  _atom_site_fract_x
  _atom_site_fract_y
  _atom_site_fract_z
  _atom_site_thermal_displace_type
  _atom_site_B_iso_or_equiv
  _atom_site_type_symbol
  Cu1      1.0000 0.54050  0.25570  0.90119  Biso   1.000  Cu
  Cu2      1.0000 0.45950  0.74430  0.40119  Biso   1.000  Cu
  Cu3      1.0000 0.04050  0.74430  0.90119  Biso   1.000  Cu
  Cu4      1.0000 0.95950  0.25570  0.40119  Biso   1.000  Cu
  Cu5      1.0000 0.65671  0.16077  0.55441  Biso   1.000  Cu
  Cu6      1.0000 0.34329  0.83923  0.05441  Biso   1.000  Cu
  Cu7      1.0000 0.15671  0.83923  0.55441  Biso   1.000  Cu
  Cu8      1.0000 0.84329  0.16077  0.05441  Biso   1.000  Cu
  Cu9      1.0000 0.40722  0.32158  0.23557  Biso   1.000  Cu
  Cu10     1.0000 0.59278  0.67842  0.73557  Biso   1.000  Cu
  Cu11     1.0000 0.90722  0.67842  0.23557  Biso   1.000  Cu
  Cu12     1.0000 0.09278  0.32158  0.73557  Biso   1.000  Cu
  O1       1.0000 0.60070  0.14920  0.85210  Biso   1.000  O
  O2       1.0000 0.39930  0.85080  0.35210  Biso   1.000  O
  O3       1.0000 0.10070  0.85080  0.85210  Biso   1.000  O
  O4       1.0000 0.89930  0.14920  0.35210  Biso   1.000  O
  O5       1.0000 0.53290  0.19730  0.04640  Biso   1.000  O
  O6       1.0000 0.46710  0.80270  0.54640  Biso   1.000  O
  O7       1.0000 0.03290  0.80270  0.04640  Biso   1.000  O
  O8       1.0000 0.96710  0.19730  0.54640  Biso   1.000  O
  N1       1.0000 0.54560  0.30890  0.75870  Biso   1.000  N
  N2       1.0000 0.45440  0.69110  0.25870  Biso   1.000  N
  N3       1.0000 0.04560  0.69110  0.75870  Biso   1.000  N
  N4       1.0000 0.95440  0.30890  0.25870  Biso   1.000  N
  N5       1.0000 0.48100  0.35950  0.94880  Biso   1.000  N
  N6       1.0000 0.51900  0.64050  0.44880  Biso   1.000  N
  N7       1.0000 0.98100  0.64050  0.94880  Biso   1.000  N
  N8       1.0000 0.01900  0.35950  0.44880  Biso   1.000  N
  O9       1.0000 0.65296  0.11290  0.70460  Biso   1.000  O
  O10      1.0000 0.34704  0.88710  0.20460  Biso   1.000  O
  O11      1.0000 0.15296  0.88710  0.70460  Biso   1.000  O
  O12      1.0000 0.84704  0.11290  0.20460  Biso   1.000  O
  O13      1.0000 0.59411  0.26330  0.60060  Biso   1.000  O
  O14      1.0000 0.40589  0.73670  0.10060  Biso   1.000  O
  O15      1.0000 0.09411  0.73670  0.60060  Biso   1.000  O
  O16      1.0000 0.90589  0.26330  0.10060  Biso   1.000  O
  N9       1.0000 0.67270  0.23630  0.41620  Biso   1.000  N
  N10      1.0000 0.32730  0.76370  0.91620  Biso   1.000  N
  N11      1.0000 0.17270  0.76370  0.41620  Biso   1.000  N
  N12      1.0000 0.82730  0.23630  0.91620  Biso   1.000  N
  N13      1.0000 0.73460  0.07510  0.52330  Biso   1.000  N
  N14      1.0000 0.26540  0.92490  0.02330  Biso   1.000  N
  N15      1.0000 0.23460  0.92490  0.52330  Biso   1.000  N
  N16      1.0000 0.76540  0.07510  0.02330  Biso   1.000  N
  O17      1.0000 0.48170  0.23770  0.19500  Biso   1.000  O
  O18      1.0000 0.51830  0.76230  0.69500  Biso   1.000  O
  O19      1.0000 0.98170  0.76230  0.19500  Biso   1.000  O
  O20      1.0000 0.01830  0.23770  0.69500  Biso   1.000  O
  O21      1.0000 0.42041  0.39030  0.09850  Biso   1.000  O
  O22      1.0000 0.57959  0.60970  0.59850  Biso   1.000  O
  O23      1.0000 0.92041  0.60970  0.09850  Biso   1.000  O
  O24      1.0000 0.07959  0.39030  0.59850  Biso   1.000  O
  O25      1.0000 0.54910  0.52840  0.83090  Biso   1.000  O
  O26      1.0000 0.45090  0.47160  0.33090  Biso   1.000  O
  O27      1.0000 0.04910  0.47160  0.83090  Biso   1.000  O
  O28      1.0000 0.95090  0.52840  0.33090  Biso   1.000  O
  H1       1.0000 0.56680  0.55740  0.78130  Biso   1.000  H
  H2       1.0000 0.43320  0.44260  0.28130  Biso   1.000  H
  H3       1.0000 0.06680  0.44260  0.78130  Biso   1.000  H
  H4       1.0000 0.93320  0.55740  0.28130  Biso   1.000  H
  N17      1.0000 0.31750  0.36860  0.24210  Biso   1.000  N
  N18      1.0000 0.68250  0.63140  0.74210  Biso   1.000  N
  N19      1.0000 0.81750  0.63140  0.24210  Biso   1.000  N
  N20      1.0000 0.18250  0.36860  0.74210  Biso   1.000  N
  N21      1.0000 0.39050  0.23310  0.36360  Biso   1.000  N
  N22      1.0000 0.60950  0.76690  0.86360  Biso   1.000  N
  N23      1.0000 0.89050  0.76690  0.36360  Biso   1.000  N
  N24      1.0000 0.10950  0.23310  0.86360  Biso   1.000  N
  O29      1.0000 0.58000  0.04550  0.50610  Biso   1.000  O
  O30      1.0000 0.42000  0.95450  0.00610  Biso   1.000  O
  O31      1.0000 0.08000  0.95450  0.50610  Biso   1.000  O
  O32      1.0000 0.92000  0.04550  0.00610  Biso   1.000  O
  C1       1.0000 0.61460  0.16280  0.75710  Biso   1.000  C
  C2       1.0000 0.38540  0.83720  0.25710  Biso   1.000  C
  C3       1.0000 0.11460  0.83720  0.75710  Biso   1.000  C
  C4       1.0000 0.88540  0.16280  0.25710  Biso   1.000  C
  C5       1.0000 0.58200  0.25300  0.69870  Biso   1.000  C
  C6       1.0000 0.41800  0.74700  0.19870  Biso   1.000  C
  C7       1.0000 0.08200  0.74700  0.69870  Biso   1.000  C
  C8       1.0000 0.91800  0.25300  0.19870  Biso   1.000  C
  C9       1.0000 0.50940  0.39640  0.71410  Biso   1.000  C
  C10      1.0000 0.49060  0.60360  0.21410  Biso   1.000  C
  C11      1.0000 0.00940  0.60360  0.71410  Biso   1.000  C
  C12      1.0000 0.99060  0.39640  0.21410  Biso   1.000  C
  H5       1.0000 0.47050  0.36970  0.68470  Biso   1.000  H
  H6       1.0000 0.52950  0.63030  0.18470  Biso   1.000  H
  H7       1.0000 0.97050  0.63030  0.68470  Biso   1.000  H
  H8       1.0000 0.02950  0.36970  0.18470  Biso   1.000  H
  H9       1.0000 0.53320  0.42760  0.65690  Biso   1.000  H
  H10      1.0000 0.46680  0.57240  0.15690  Biso   1.000  H
  H11      1.0000 0.03320  0.57240  0.65690  Biso   1.000  H
  H12      1.0000 0.96680  0.42760  0.15690  Biso   1.000  H
  C13      1.0000 0.49430  0.47890  0.79450  Biso   1.000  C
  C14      1.0000 0.50570  0.52110  0.29450  Biso   1.000  C
  C15      1.0000 0.99430  0.52110  0.79450  Biso   1.000  C
  C16      1.0000 0.00570  0.47890  0.29450  Biso   1.000  C
  H13      1.0000 0.47020  0.53250  0.75690  Biso   1.000  H
  H14      1.0000 0.52980  0.46750  0.25690  Biso   1.000  H
  H15      1.0000 0.97020  0.46750  0.75690  Biso   1.000  H
  H16      1.0000 0.02980  0.53250  0.25690  Biso   1.000  H
  C17      1.0000 0.45350  0.44470  0.88760  Biso   1.000  C
  C18      1.0000 0.54650  0.55530  0.38760  Biso   1.000  C
  C19      1.0000 0.95350  0.55530  0.88760  Biso   1.000  C
  C20      1.0000 0.04650  0.44470  0.38760  Biso   1.000  C
  H17      1.0000 0.44680  0.50400  0.93400  Biso   1.000  H
  H18      1.0000 0.55320  0.49600  0.43400  Biso   1.000  H
  H19      1.0000 0.94680  0.49600  0.93400  Biso   1.000  H
  H20      1.0000 0.05320  0.50400  0.43400  Biso   1.000  H
  H21      1.0000 0.41280  0.42290  0.86110  Biso   1.000  H
  H22      1.0000 0.58720  0.57710  0.36110  Biso   1.000  H
  H23      1.0000 0.91280  0.57710  0.86110  Biso   1.000  H
  H24      1.0000 0.08720  0.42290  0.36110  Biso   1.000  H
  C21      1.0000 0.46200  0.34140  0.04370  Biso   1.000  C
  C22      1.0000 0.53800  0.65860  0.54370  Biso   1.000  C
  C23      1.0000 0.96200  0.65860  0.04370  Biso   1.000  C
  C24      1.0000 0.03800  0.34140  0.54370  Biso   1.000  C
  C25      1.0000 0.49550  0.25070  0.10040  Biso   1.000  C
  C26      1.0000 0.50450  0.74930  0.60040  Biso   1.000  C
  C27      1.0000 0.99550  0.74930  0.10040  Biso   1.000  C
  C28      1.0000 0.00450  0.25070  0.60040  Biso   1.000  C
  C29      1.0000 0.73580  0.20140  0.38040  Biso   1.000  C
  C30      1.0000 0.26420  0.79860  0.88040  Biso   1.000  C
  C31      1.0000 0.23580  0.79860  0.38040  Biso   1.000  C
  C32      1.0000 0.76420  0.20140  0.88040  Biso   1.000  C
  H25      1.0000 0.76800  0.24340  0.41420  Biso   1.000  H
  H26      1.0000 0.23200  0.75660  0.91420  Biso   1.000  H
  H27      1.0000 0.26800  0.75660  0.41420  Biso   1.000  H
  H28      1.0000 0.73200  0.24340  0.91420  Biso   1.000  H
  H29      1.0000 0.73940  0.21050  0.30450  Biso   1.000  H
  H30      1.0000 0.26060  0.78950  0.80450  Biso   1.000  H
  H31      1.0000 0.23940  0.78950  0.30450  Biso   1.000  H
  H32      1.0000 0.76060  0.21050  0.80450  Biso   1.000  H
  C33      1.0000 0.74520  0.08840  0.40840  Biso   1.000  C
  C34      1.0000 0.25480  0.91160  0.90840  Biso   1.000  C
  C35      1.0000 0.24520  0.91160  0.40840  Biso   1.000  C
  C36      1.0000 0.75480  0.08840  0.90840  Biso   1.000  C
  H33      1.0000 0.71580  0.04540  0.36900  Biso   1.000  H
  H34      1.0000 0.28420  0.95460  0.86900  Biso   1.000  H
  H35      1.0000 0.21580  0.95460  0.36900  Biso   1.000  H
  H36      1.0000 0.78420  0.04540  0.86900  Biso   1.000  H
  H37      1.0000 0.78750  0.06690  0.39010  Biso   1.000  H
  H38      1.0000 0.21250  0.93310  0.89010  Biso   1.000  H
  H39      1.0000 0.28750  0.93310  0.39010  Biso   1.000  H
  H40      1.0000 0.71250  0.06690  0.89010  Biso   1.000  H
  C37      1.0000 0.67270  0.35170  0.42960  Biso   1.000  C
  C38      1.0000 0.32730  0.64830  0.92960  Biso   1.000  C
  C39      1.0000 0.17270  0.64830  0.42960  Biso   1.000  C
  C40      1.0000 0.82730  0.35170  0.92960  Biso   1.000  C
  H41      1.0000 0.68060  0.38440  0.36260  Biso   1.000  H
  H42      1.0000 0.31940  0.61560  0.86260  Biso   1.000  H
  H43      1.0000 0.18060  0.61560  0.36260  Biso   1.000  H
  H44      1.0000 0.81940  0.38440  0.86260  Biso   1.000  H
  H45      1.0000 0.70500  0.37120  0.47880  Biso   1.000  H
  H46      1.0000 0.29500  0.62880  0.97880  Biso   1.000  H
  H47      1.0000 0.20500  0.62880  0.47880  Biso   1.000  H
  H48      1.0000 0.79500  0.37120  0.97880  Biso   1.000  H
  H49      1.0000 0.63260  0.37390  0.45610  Biso   1.000  H
  H50      1.0000 0.36740  0.62610  0.95610  Biso   1.000  H
  H51      1.0000 0.13260  0.62610  0.45610  Biso   1.000  H
  H52      1.0000 0.86740  0.37390  0.95610  Biso   1.000  H
  C41      1.0000 0.62470  0.20450  0.33540  Biso   1.000  C
  C42      1.0000 0.37530  0.79550  0.83540  Biso   1.000  C
  C43      1.0000 0.12470  0.79550  0.33540  Biso   1.000  C
  C44      1.0000 0.87530  0.20450  0.83540  Biso   1.000  C
  H53      1.0000 0.63270  0.24050  0.27030  Biso   1.000  H
  H54      1.0000 0.36730  0.75950  0.77030  Biso   1.000  H
  H55      1.0000 0.13270  0.75950  0.27030  Biso   1.000  H
  H56      1.0000 0.86730  0.24050  0.77030  Biso   1.000  H
  H57      1.0000 0.58350  0.22190  0.36060  Biso   1.000  H
  H58      1.0000 0.41650  0.77810  0.86060  Biso   1.000  H
  H59      1.0000 0.08350  0.77810  0.36060  Biso   1.000  H
  H60      1.0000 0.91650  0.22190  0.86060  Biso   1.000  H
  H61      1.0000 0.62730  0.13060  0.32390  Biso   1.000  H
  H62      1.0000 0.37270  0.86940  0.82390  Biso   1.000  H
  H63      1.0000 0.12730  0.86940  0.32390  Biso   1.000  H
  H64      1.0000 0.87270  0.13060  0.82390  Biso   1.000  H
  C45      1.0000 0.78740  0.11330  0.58770  Biso   1.000  C
  C46      1.0000 0.21260  0.88670  0.08770  Biso   1.000  C
  C47      1.0000 0.28740  0.88670  0.58770  Biso   1.000  C
  C48      1.0000 0.71260  0.11330  0.08770  Biso   1.000  C
  H65      1.0000 0.82420  0.07250  0.57290  Biso   1.000  H
  H66      1.0000 0.17580  0.92750  0.07290  Biso   1.000  H
  H67      1.0000 0.32420  0.92750  0.57290  Biso   1.000  H
  H68      1.0000 0.67580  0.07250  0.07290  Biso   1.000  H
  H69      1.0000 0.77700  0.10730  0.66130  Biso   1.000  H
  H70      1.0000 0.22300  0.89270  0.16130  Biso   1.000  H
  H71      1.0000 0.27700  0.89270  0.66130  Biso   1.000  H
  H72      1.0000 0.72300  0.10730  0.16130  Biso   1.000  H
  H73      1.0000 0.79550  0.18510  0.57090  Biso   1.000  H
  H74      1.0000 0.20450  0.81490  0.07090  Biso   1.000  H
  H75      1.0000 0.29550  0.81490  0.57090  Biso   1.000  H
  H76      1.0000 0.70450  0.18510  0.07090  Biso   1.000  H
  C49      1.0000 0.72540  0.96260  0.54820  Biso   1.000  C
  C50      1.0000 0.27460  0.03740  0.04820  Biso   1.000  C
  C51      1.0000 0.22540  0.03740  0.54820  Biso   1.000  C
  C52      1.0000 0.77460  0.96260  0.04820  Biso   1.000  C
  H77      1.0000 0.76320  0.92490  0.53240  Biso   1.000  H
  H78      1.0000 0.23680  0.07510  0.03240  Biso   1.000  H
  H79      1.0000 0.26320  0.07510  0.53240  Biso   1.000  H
  H80      1.0000 0.73680  0.92490  0.03240  Biso   1.000  H
  H81      1.0000 0.69150  0.93550  0.50630  Biso   1.000  H
  H82      1.0000 0.30850  0.06450  0.00630  Biso   1.000  H
  H83      1.0000 0.19150  0.06450  0.50630  Biso   1.000  H
  H84      1.0000 0.80850  0.93550  0.00630  Biso   1.000  H
  H85      1.0000 0.71560  0.95490  0.62180  Biso   1.000  H
  H86      1.0000 0.28440  0.04510  0.12180  Biso   1.000  H
  H87      1.0000 0.21560  0.04510  0.62180  Biso   1.000  H
  H88      1.0000 0.78440  0.95490  0.12180  Biso   1.000  H
  C53      1.0000 0.32390  0.25430  0.39080  Biso   1.000  C
  C54      1.0000 0.67610  0.74570  0.89080  Biso   1.000  C
  C55      1.0000 0.82390  0.74570  0.39080  Biso   1.000  C
  C56      1.0000 0.17610  0.25430  0.89080  Biso   1.000  C
  H89      1.0000 0.29960  0.19300  0.37190  Biso   1.000  H
  H90      1.0000 0.70040  0.80700  0.87190  Biso   1.000  H
  H91      1.0000 0.79960  0.80700  0.37190  Biso   1.000  H
  H92      1.0000 0.20040  0.19300  0.87190  Biso   1.000  H
  H93      1.0000 0.32120  0.26170  0.46700  Biso   1.000  H
  H94      1.0000 0.67880  0.73830  0.96700  Biso   1.000  H
  H95      1.0000 0.82120  0.73830  0.46700  Biso   1.000  H
  H96      1.0000 0.17880  0.26170  0.96700  Biso   1.000  H
  C57      1.0000 0.29590  0.33700  0.34750  Biso   1.000  C
  C58      1.0000 0.70410  0.66300  0.84750  Biso   1.000  C
  C59      1.0000 0.79590  0.66300  0.34750  Biso   1.000  C
  C60      1.0000 0.20410  0.33700  0.84750  Biso   1.000  C
  H97      1.0000 0.30140  0.39570  0.39490  Biso   1.000  H
  H98      1.0000 0.69860  0.60430  0.89490  Biso   1.000  H
  H99      1.0000 0.80140  0.60430  0.39490  Biso   1.000  H
  H100     1.0000 0.19860  0.39570  0.89490  Biso   1.000  H
  H101     1.0000 0.25120  0.32270  0.34330  Biso   1.000  H
  H102     1.0000 0.74880  0.67730  0.84330  Biso   1.000  H
  H103     1.0000 0.75120  0.67730  0.34330  Biso   1.000  H
  H104     1.0000 0.24880  0.32270  0.84330  Biso   1.000  H
  C61      1.0000 0.43400  0.25720  0.44970  Biso   1.000  C
  C62      1.0000 0.56600  0.74280  0.94970  Biso   1.000  C
  C63      1.0000 0.93400  0.74280  0.44970  Biso   1.000  C
  C64      1.0000 0.06600  0.25720  0.94970  Biso   1.000  C
  H105     1.0000 0.42480  0.21360  0.50940  Biso   1.000  H
  H106     1.0000 0.57520  0.78640  0.00940  Biso   1.000  H
  H107     1.0000 0.92480  0.78640  0.50940  Biso   1.000  H
  H108     1.0000 0.07520  0.21360  0.00940  Biso   1.000  H
  H109     1.0000 0.42960  0.32910  0.46940  Biso   1.000  H
  H110     1.0000 0.57040  0.67090  0.96940  Biso   1.000  H
  H111     1.0000 0.92960  0.67090  0.46940  Biso   1.000  H
  H112     1.0000 0.07040  0.32910  0.96940  Biso   1.000  H
  H113     1.0000 0.47640  0.24460  0.42660  Biso   1.000  H
  H114     1.0000 0.52360  0.75540  0.92660  Biso   1.000  H
  H115     1.0000 0.97640  0.75540  0.42660  Biso   1.000  H
  H116     1.0000 0.02360  0.24460  0.92660  Biso   1.000  H
  C65      1.0000 0.39660  0.11940  0.34270  Biso   1.000  C
  C66      1.0000 0.60340  0.88060  0.84270  Biso   1.000  C
  C67      1.0000 0.89660  0.88060  0.34270  Biso   1.000  C
  C68      1.0000 0.10340  0.11940  0.84270  Biso   1.000  C
  H117     1.0000 0.38850  0.08130  0.40660  Biso   1.000  H
  H118     1.0000 0.61150  0.91870  0.90660  Biso   1.000  H
  H119     1.0000 0.88850  0.91870  0.40660  Biso   1.000  H
  H120     1.0000 0.11150  0.08130  0.90660  Biso   1.000  H
  H121     1.0000 0.43840  0.10450  0.31860  Biso   1.000  H
  H122     1.0000 0.56160  0.89550  0.81860  Biso   1.000  H
  H123     1.0000 0.93840  0.89550  0.31860  Biso   1.000  H
  H124     1.0000 0.06160  0.10450  0.81860  Biso   1.000  H
  H125     1.0000 0.36690  0.09910  0.28950  Biso   1.000  H
  H126     1.0000 0.63310  0.90090  0.78950  Biso   1.000  H
  H127     1.0000 0.86690  0.90090  0.28950  Biso   1.000  H
  H128     1.0000 0.13310  0.09910  0.78950  Biso   1.000  H
  C69      1.0000 0.30980  0.48630  0.23320  Biso   1.000  C
  C70      1.0000 0.69020  0.51370  0.73320  Biso   1.000  C
  C71      1.0000 0.80980  0.51370  0.23320  Biso   1.000  C
  C72      1.0000 0.19020  0.48630  0.73320  Biso   1.000  C
  H129     1.0000 0.26600  0.50390  0.23680  Biso   1.000  H
  H130     1.0000 0.73400  0.49610  0.73680  Biso   1.000  H
  H131     1.0000 0.76600  0.49610  0.23680  Biso   1.000  H
  H132     1.0000 0.23400  0.50390  0.73680  Biso   1.000  H
  H133     1.0000 0.32680  0.50970  0.16700  Biso   1.000  H
  H134     1.0000 0.67320  0.49030  0.66700  Biso   1.000  H
  H135     1.0000 0.82680  0.49030  0.16700  Biso   1.000  H
  H136     1.0000 0.17320  0.50970  0.66700  Biso   1.000  H
  H137     1.0000 0.33180  0.51960  0.29030  Biso   1.000  H
  H138     1.0000 0.66820  0.48040  0.79030  Biso   1.000  H
  H139     1.0000 0.83180  0.48040  0.29030  Biso   1.000  H
  H140     1.0000 0.16820  0.51960  0.79030  Biso   1.000  H
  C73      1.0000 0.28180  0.32300  0.15670  Biso   1.000  C
  C74      1.0000 0.71820  0.67700  0.65670  Biso   1.000  C
  C75      1.0000 0.78180  0.67700  0.15670  Biso   1.000  C
  C76      1.0000 0.21820  0.32300  0.65670  Biso   1.000  C
  H141     1.0000 0.23900  0.34630  0.16070  Biso   1.000  H
  H142     1.0000 0.76100  0.65370  0.66070  Biso   1.000  H
  H143     1.0000 0.73900  0.65370  0.16070  Biso   1.000  H
  H144     1.0000 0.26100  0.34630  0.66070  Biso   1.000  H
  H145     1.0000 0.28310  0.24840  0.16230  Biso   1.000  H
  H146     1.0000 0.71690  0.75160  0.66230  Biso   1.000  H
  H147     1.0000 0.78310  0.75160  0.16230  Biso   1.000  H
  H148     1.0000 0.21690  0.24840  0.66230  Biso   1.000  H
  H149     1.0000 0.29960  0.34400  0.09030  Biso   1.000  H
  H150     1.0000 0.70040  0.65600  0.59030  Biso   1.000  H
  H151     1.0000 0.79960  0.65600  0.09030  Biso   1.000  H
  H152     1.0000 0.20040  0.34400  0.59030  Biso   1.000  H
  Cl1      1.0000 0.64740  0.42392  0.06474  Biso   1.000  Cl
  Cl2      1.0000 0.35260  0.57608  0.56474  Biso   1.000  Cl
  Cl3      1.0000 0.14740  0.57608  0.06474  Biso   1.000  Cl
  Cl4      1.0000 0.85260  0.42392  0.56474  Biso   1.000  Cl
  O33      1.0000 0.63630  0.37720  0.96340  Biso   1.000  O
  O34      1.0000 0.36370  0.62280  0.46340  Biso   1.000  O
  O35      1.0000 0.13630  0.62280  0.96340  Biso   1.000  O
  O36      1.0000 0.86370  0.37720  0.46340  Biso   1.000  O
  O37      1.0000 0.59850  0.40470  0.12930  Biso   1.000  O
  O38      1.0000 0.40150  0.59530  0.62930  Biso   1.000  O
  O39      1.0000 0.09850  0.59530  0.12930  Biso   1.000  O
  O40      1.0000 0.90150  0.40470  0.62930  Biso   1.000  O
  O41      1.0000 0.66970  0.51590  0.06200  Biso   1.000  O
  O42      1.0000 0.33030  0.48410  0.56200  Biso   1.000  O
  O43      1.0000 0.16970  0.48410  0.06200  Biso   1.000  O
  O44      1.0000 0.83030  0.51590  0.56200  Biso   1.000  O
  O45      1.0000 0.69400  0.36470  0.11590  Biso   1.000  O
  O46      1.0000 0.30600  0.63530  0.61590  Biso   1.000  O
  O47      1.0000 0.19400  0.63530  0.11590  Biso   1.000  O
  O48      1.0000 0.80600  0.36470  0.61590  Biso   1.000  O
  Cl5      1.0000 0.87332  0.83496  0.79894  Biso   1.000  Cl
  Cl6      1.0000 0.12668  0.16504  0.29894  Biso   1.000  Cl
  Cl7      1.0000 0.37332  0.16504  0.79894  Biso   1.000  Cl
  Cl8      1.0000 0.62668  0.83496  0.29894  Biso   1.000  Cl
  O49      1.0000 0.85220  0.78080  0.89160  Biso   1.000  O
  O50      1.0000 0.14780  0.21920  0.39160  Biso   1.000  O
  O51      1.0000 0.35220  0.21920  0.89160  Biso   1.000  O
  O52      1.0000 0.64780  0.78080  0.39160  Biso   1.000  O
  O53      1.0000 0.82710  0.90240  0.77320  Biso   1.000  O
  O54      1.0000 0.17290  0.09760  0.27320  Biso   1.000  O
  O55      1.0000 0.32710  0.09760  0.77320  Biso   1.000  O
  O56      1.0000 0.67290  0.90240  0.27320  Biso   1.000  O
  O57      1.0000 0.92900  0.88290  0.82590  Biso   1.000  O
  O58      1.0000 0.07100  0.11710  0.32590  Biso   1.000  O
  O59      1.0000 0.42900  0.11710  0.82590  Biso   1.000  O
  O60      1.0000 0.57100  0.88290  0.32590  Biso   1.000  O
  O61      1.0000 0.88630  0.75850  0.72560  Biso   1.000  O
  O62      1.0000 0.11370  0.24150  0.22560  Biso   1.000  O
  O63      1.0000 0.38630  0.24150  0.72560  Biso   1.000  O
  O64      1.0000 0.61370  0.75850  0.22560  Biso   1.000  O
  O65      1.0000 0.97770  0.98500  0.62390  Biso   1.000  O
  O66      1.0000 0.02230  0.01500  0.12390  Biso   1.000  O
  O67      1.0000 0.47770  0.01500  0.62390  Biso   1.000  O
  O68      1.0000 0.52230  0.98500  0.12390  Biso   1.000  O
