data_image0
_cell_length_a       7.4252
_cell_length_b       13.5409
_cell_length_c       23.02
_cell_angle_alpha    90
_cell_angle_beta     94.488
_cell_angle_gamma    90

_symmetry_space_group_name_H-M    "P 1"
_symmetry_int_tables_number       1

loop_
  _symmetry_equiv_pos_as_xyz
  'x, y, z'

loop_
  _atom_site_label
  _atom_site_occupancy
  _atom_site_fract_x
  _atom_site_fract_y
  _atom_site_fract_z
  _atom_site_thermal_displace_type
  _atom_site_B_iso_or_equiv
  _atom_site_type_symbol
  Cu1      1.0000 0.62348  0.89743  0.85985  Biso   1.000  Cu
  Cu2      1.0000 0.87652  0.39743  0.64015  Biso   1.000  Cu
  Cu3      1.0000 0.37652  0.10257  0.14015  Biso   1.000  Cu
  Cu4      1.0000 0.12348  0.60257  0.35985  Biso   1.000  Cu
  N1       1.0000 0.69450  0.04070  0.86660  Biso   1.000  N
  N2       1.0000 0.80550  0.54070  0.63340  Biso   1.000  N
  N3       1.0000 0.30550  0.95930  0.13340  Biso   1.000  N
  N4       1.0000 0.19450  0.45930  0.36660  Biso   1.000  N
  N5       1.0000 0.67440  0.90410  0.94820  Biso   1.000  N
  N6       1.0000 0.82560  0.40410  0.55180  Biso   1.000  N
  N7       1.0000 0.32560  0.09590  0.05180  Biso   1.000  N
  N8       1.0000 0.17440  0.59590  0.44820  Biso   1.000  N
  O1       1.0000 0.53280  0.76410  0.86750  Biso   1.000  O
  O2       1.0000 0.96720  0.26410  0.63250  Biso   1.000  O
  O3       1.0000 0.46720  0.23590  0.13250  Biso   1.000  O
  O4       1.0000 0.03280  0.73590  0.36750  Biso   1.000  O
  O5       1.0000 0.68740  0.68610  0.80240  Biso   1.000  O
  O6       1.0000 0.81260  0.18610  0.69760  Biso   1.000  O
  O7       1.0000 0.31260  0.31390  0.19760  Biso   1.000  O
  O8       1.0000 0.18740  0.81390  0.30240  Biso   1.000  O
  O9       1.0000 0.98600  0.41780  0.71980  Biso   1.000  O
  O10      1.0000 0.51400  0.91780  0.78020  Biso   1.000  O
  O11      1.0000 0.01400  0.58220  0.28020  Biso   1.000  O
  O12      1.0000 0.48600  0.08220  0.21980  Biso   1.000  O
  O13      1.0000 0.25720  0.42330  0.68522  Biso   1.000  O
  O14      1.0000 0.24280  0.92330  0.81478  Biso   1.000  O
  O15      1.0000 0.74280  0.57670  0.31478  Biso   1.000  O
  O16      1.0000 0.75720  0.07670  0.18522  Biso   1.000  O
  O17      1.0000 0.89440  0.84700  0.83441  Biso   1.000  O
  O18      1.0000 0.60560  0.34700  0.66559  Biso   1.000  O
  O19      1.0000 0.10560  0.15300  0.16559  Biso   1.000  O
  O20      1.0000 0.39440  0.65300  0.33441  Biso   1.000  O
  H1       1.0000 0.86430  0.79600  0.81400  Biso   1.000  H
  H2       1.0000 0.63570  0.29600  0.68600  Biso   1.000  H
  H3       1.0000 0.13570  0.20400  0.18600  Biso   1.000  H
  H4       1.0000 0.36430  0.70400  0.31400  Biso   1.000  H
  H5       1.0000 0.97770  0.87770  0.81880  Biso   1.000  H
  H6       1.0000 0.52230  0.37770  0.68120  Biso   1.000  H
  H7       1.0000 0.02230  0.12230  0.18120  Biso   1.000  H
  H8       1.0000 0.47770  0.62230  0.31880  Biso   1.000  H
  B1       1.0000 0.23590  0.61690  0.86750  Biso   1.000  B
  B2       1.0000 0.26410  0.11690  0.63250  Biso   1.000  B
  B3       1.0000 0.76410  0.38310  0.13250  Biso   1.000  B
  B4       1.0000 0.73590  0.88310  0.36750  Biso   1.000  B
  H9       1.0000 0.18350  0.68770  0.88250  Biso   1.000  H
  H10      1.0000 0.31650  0.18770  0.61750  Biso   1.000  H
  H11      1.0000 0.81650  0.31230  0.11750  Biso   1.000  H
  H12      1.0000 0.68350  0.81230  0.38250  Biso   1.000  H
  B5       1.0000 0.40980  0.55340  0.90910  Biso   1.000  B
  B6       1.0000 0.09020  0.05340  0.59090  Biso   1.000  B
  B7       1.0000 0.59020  0.44660  0.09090  Biso   1.000  B
  B8       1.0000 0.90980  0.94660  0.40910  Biso   1.000  B
  H13      1.0000 0.46930  0.58330  0.95070  Biso   1.000  H
  H14      1.0000 0.03070  0.08330  0.54930  Biso   1.000  H
  H15      1.0000 0.53070  0.41670  0.04930  Biso   1.000  H
  H16      1.0000 0.96930  0.91670  0.45070  Biso   1.000  H
  B9       1.0000 0.54200  0.48880  0.85920  Biso   1.000  B
  B10      1.0000 0.95800  0.98880  0.64080  Biso   1.000  B
  B11      1.0000 0.45800  0.51120  0.14080  Biso   1.000  B
  B12      1.0000 0.04200  0.01120  0.35920  Biso   1.000  B
  H17      1.0000 0.68790  0.47720  0.86900  Biso   1.000  H
  H18      1.0000 0.81210  0.97720  0.63100  Biso   1.000  H
  H19      1.0000 0.31210  0.52280  0.13100  Biso   1.000  H
  H20      1.0000 0.18790  0.02280  0.36900  Biso   1.000  H
  B13      1.0000 0.44920  0.51300  0.78830  Biso   1.000  B
  B14      1.0000 0.05080  0.01300  0.71170  Biso   1.000  B
  B15      1.0000 0.55080  0.48700  0.21170  Biso   1.000  B
  B16      1.0000 0.94920  0.98700  0.28830  Biso   1.000  B
  H21      1.0000 0.53420  0.51620  0.75130  Biso   1.000  H
  H22      1.0000 0.96580  0.01620  0.74870  Biso   1.000  H
  H23      1.0000 0.46580  0.48380  0.24870  Biso   1.000  H
  H24      1.0000 0.03420  0.98380  0.25130  Biso   1.000  H
  B17      1.0000 0.26040  0.59330  0.79310  Biso   1.000  B
  B18      1.0000 0.23960  0.09330  0.70690  Biso   1.000  B
  B19      1.0000 0.73960  0.40670  0.20690  Biso   1.000  B
  B20      1.0000 0.76040  0.90670  0.29310  Biso   1.000  B
  H25      1.0000 0.22310  0.64890  0.75940  Biso   1.000  H
  H26      1.0000 0.27690  0.14890  0.74060  Biso   1.000  H
  H27      1.0000 0.77690  0.35110  0.24060  Biso   1.000  H
  H28      1.0000 0.72310  0.85110  0.25940  Biso   1.000  H
  B21      1.0000 0.09430  0.52820  0.82870  Biso   1.000  B
  B22      1.0000 0.40570  0.02820  0.67130  Biso   1.000  B
  B23      1.0000 0.90570  0.47180  0.17130  Biso   1.000  B
  B24      1.0000 0.59430  0.97180  0.32870  Biso   1.000  B
  H29      1.0000 0.94900  0.54010  0.81800  Biso   1.000  H
  H30      1.0000 0.55100  0.04010  0.68200  Biso   1.000  H
  H31      1.0000 0.05100  0.45990  0.18200  Biso   1.000  H
  H32      1.0000 0.44900  0.95990  0.31800  Biso   1.000  H
  B25      1.0000 0.18910  0.50270  0.90120  Biso   1.000  B
  B26      1.0000 0.31090  0.00270  0.59880  Biso   1.000  B
  B27      1.0000 0.81090  0.49730  0.09880  Biso   1.000  B
  B28      1.0000 0.68910  0.99730  0.40120  Biso   1.000  B
  H33      1.0000 0.10430  0.49860  0.93820  Biso   1.000  H
  H34      1.0000 0.39570  0.99860  0.56180  Biso   1.000  H
  H35      1.0000 0.89570  0.50140  0.06180  Biso   1.000  H
  H36      1.0000 0.60430  0.00140  0.43820  Biso   1.000  H
  B29      1.0000 0.37920  0.42360  0.89610  Biso   1.000  B
  B30      1.0000 0.12080  0.92360  0.60390  Biso   1.000  B
  B31      1.0000 0.62080  0.57640  0.10390  Biso   1.000  B
  B32      1.0000 0.87920  0.07640  0.39610  Biso   1.000  B
  H37      1.0000 0.41870  0.36850  0.92990  Biso   1.000  H
  H38      1.0000 0.08130  0.86850  0.57010  Biso   1.000  H
  H39      1.0000 0.58130  0.63150  0.07010  Biso   1.000  H
  H40      1.0000 0.91870  0.13150  0.42990  Biso   1.000  H
  B33      1.0000 0.40170  0.40050  0.82140  Biso   1.000  B
  B34      1.0000 0.09830  0.90050  0.67860  Biso   1.000  B
  B35      1.0000 0.59830  0.59950  0.17860  Biso   1.000  B
  B36      1.0000 0.90170  0.09950  0.32140  Biso   1.000  B
  H41      1.0000 0.45390  0.33000  0.80590  Biso   1.000  H
  H42      1.0000 0.04610  0.83000  0.69410  Biso   1.000  H
  H43      1.0000 0.54610  0.67000  0.19410  Biso   1.000  H
  H44      1.0000 0.95390  0.17000  0.30590  Biso   1.000  H
  B37      1.0000 0.18370  0.40830  0.84700  Biso   1.000  B
  B38      1.0000 0.31630  0.90830  0.65300  Biso   1.000  B
  B39      1.0000 0.81630  0.59170  0.15300  Biso   1.000  B
  B40      1.0000 0.68370  0.09170  0.34700  Biso   1.000  B
  H45      1.0000 0.09540  0.34330  0.84820  Biso   1.000  H
  H46      1.0000 0.40460  0.84330  0.65180  Biso   1.000  H
  H47      1.0000 0.90460  0.65670  0.15180  Biso   1.000  H
  H48      1.0000 0.59540  0.15670  0.34820  Biso   1.000  H
  C1       1.0000 0.44420  0.60050  0.84120  Biso   1.000  C
  C2       1.0000 0.05580  0.10050  0.65880  Biso   1.000  C
  C3       1.0000 0.55580  0.39950  0.15880  Biso   1.000  C
  C4       1.0000 0.94420  0.89950  0.34120  Biso   1.000  C
  C5       1.0000 0.23510  0.46850  0.78460  Biso   1.000  C
  C6       1.0000 0.26490  0.96850  0.71540  Biso   1.000  C
  C7       1.0000 0.76490  0.53150  0.21540  Biso   1.000  C
  C8       1.0000 0.73510  0.03150  0.28460  Biso   1.000  C
  C9       1.0000 0.56890  0.69120  0.83650  Biso   1.000  C
  C10      1.0000 0.93110  0.19120  0.66350  Biso   1.000  C
  C11      1.0000 0.43110  0.30880  0.16350  Biso   1.000  C
  C12      1.0000 0.06890  0.80880  0.33650  Biso   1.000  C
  C13      1.0000 0.15480  0.43260  0.72470  Biso   1.000  C
  C14      1.0000 0.34520  0.93260  0.77530  Biso   1.000  C
  C15      1.0000 0.84520  0.56740  0.27530  Biso   1.000  C
  C16      1.0000 0.65480  0.06740  0.22470  Biso   1.000  C
  C17      1.0000 0.71060  0.10780  0.82450  Biso   1.000  C
  C18      1.0000 0.78940  0.60780  0.67550  Biso   1.000  C
  C19      1.0000 0.28940  0.89220  0.17550  Biso   1.000  C
  C20      1.0000 0.21060  0.39220  0.32450  Biso   1.000  C
  H49      1.0000 0.68390  0.08910  0.78600  Biso   1.000  H
  H50      1.0000 0.81610  0.58910  0.71400  Biso   1.000  H
  H51      1.0000 0.31610  0.91090  0.21400  Biso   1.000  H
  H52      1.0000 0.18390  0.41090  0.28600  Biso   1.000  H
  C21      1.0000 0.76620  0.20530  0.83660  Biso   1.000  C
  C22      1.0000 0.73380  0.70530  0.66340  Biso   1.000  C
  C23      1.0000 0.23380  0.79470  0.16340  Biso   1.000  C
  C24      1.0000 0.26620  0.29470  0.33660  Biso   1.000  C
  H53      1.0000 0.77790  0.24940  0.80620  Biso   1.000  H
  H54      1.0000 0.72210  0.74940  0.69380  Biso   1.000  H
  H55      1.0000 0.22210  0.75060  0.19380  Biso   1.000  H
  H56      1.0000 0.27790  0.25060  0.30620  Biso   1.000  H
  C25      1.0000 0.80310  0.23550  0.89240  Biso   1.000  C
  C26      1.0000 0.69690  0.73550  0.60760  Biso   1.000  C
  C27      1.0000 0.19690  0.76450  0.10760  Biso   1.000  C
  C28      1.0000 0.30310  0.26450  0.39240  Biso   1.000  C
  H57      1.0000 0.83640  0.30070  0.90020  Biso   1.000  H
  H58      1.0000 0.66360  0.80070  0.59980  Biso   1.000  H
  H59      1.0000 0.16360  0.69930  0.09980  Biso   1.000  H
  H60      1.0000 0.33640  0.19930  0.40020  Biso   1.000  H
  C29      1.0000 0.79080  0.16770  0.93890  Biso   1.000  C
  C30      1.0000 0.70920  0.66770  0.56110  Biso   1.000  C
  C31      1.0000 0.20920  0.83230  0.06110  Biso   1.000  C
  C32      1.0000 0.29080  0.33230  0.43890  Biso   1.000  C
  C33      1.0000 0.73750  0.07020  0.92320  Biso   1.000  C
  C34      1.0000 0.76250  0.57020  0.57680  Biso   1.000  C
  C35      1.0000 0.26250  0.92980  0.07680  Biso   1.000  C
  C36      1.0000 0.23750  0.42980  0.42320  Biso   1.000  C
  C37      1.0000 0.72640  0.99560  0.96730  Biso   1.000  C
  C38      1.0000 0.77360  0.49560  0.53270  Biso   1.000  C
  C39      1.0000 0.27360  0.00440  0.03270  Biso   1.000  C
  C40      1.0000 0.22640  0.50440  0.46730  Biso   1.000  C
  C41      1.0000 0.76830  0.01920  0.02620  Biso   1.000  C
  C42      1.0000 0.73170  0.51920  0.47380  Biso   1.000  C
  C43      1.0000 0.23170  0.98080  0.97380  Biso   1.000  C
  C44      1.0000 0.26830  0.48080  0.52620  Biso   1.000  C
  C45      1.0000 0.81950  0.11860  0.04150  Biso   1.000  C
  C46      1.0000 0.68050  0.61860  0.45850  Biso   1.000  C
  C47      1.0000 0.18050  0.88140  0.95850  Biso   1.000  C
  C48      1.0000 0.31950  0.38140  0.54150  Biso   1.000  C
  H61      1.0000 0.84510  0.13510  0.08050  Biso   1.000  H
  H62      1.0000 0.65490  0.63510  0.41950  Biso   1.000  H
  H63      1.0000 0.15490  0.86490  0.91950  Biso   1.000  H
  H64      1.0000 0.34510  0.36490  0.58050  Biso   1.000  H
  C49      1.0000 0.83120  0.18930  0.99970  Biso   1.000  C
  C50      1.0000 0.66880  0.68930  0.50030  Biso   1.000  C
  C51      1.0000 0.16880  0.81070  0.00030  Biso   1.000  C
  C52      1.0000 0.33120  0.31070  0.49970  Biso   1.000  C
  H65      1.0000 0.86620  0.25290  0.01080  Biso   1.000  H
  H66      1.0000 0.63380  0.75290  0.48920  Biso   1.000  H
  H67      1.0000 0.13380  0.74710  0.98920  Biso   1.000  H
  H68      1.0000 0.36620  0.24710  0.51080  Biso   1.000  H
  C53      1.0000 0.75630  0.94230  0.06670  Biso   1.000  C
  C54      1.0000 0.74370  0.44230  0.43330  Biso   1.000  C
  C55      1.0000 0.24370  0.05770  0.93330  Biso   1.000  C
  C56      1.0000 0.25630  0.55770  0.56670  Biso   1.000  C
  H69      1.0000 0.78320  0.95380  0.10630  Biso   1.000  H
  H70      1.0000 0.71680  0.45380  0.39370  Biso   1.000  H
  H71      1.0000 0.21680  0.04620  0.89370  Biso   1.000  H
  H72      1.0000 0.28320  0.54620  0.60630  Biso   1.000  H
  C57      1.0000 0.70420  0.84990  0.04730  Biso   1.000  C
  C58      1.0000 0.79580  0.34990  0.45270  Biso   1.000  C
  C59      1.0000 0.29580  0.15010  0.95270  Biso   1.000  C
  C60      1.0000 0.20420  0.65010  0.54730  Biso   1.000  C
  H73      1.0000 0.69710  0.79840  0.07370  Biso   1.000  H
  H74      1.0000 0.80290  0.29840  0.42630  Biso   1.000  H
  H75      1.0000 0.30290  0.20160  0.92630  Biso   1.000  H
  H76      1.0000 0.19710  0.70160  0.57370  Biso   1.000  H
  C61      1.0000 0.66210  0.83340  0.98810  Biso   1.000  C
  C62      1.0000 0.83790  0.33340  0.51190  Biso   1.000  C
  C63      1.0000 0.33790  0.16660  0.01190  Biso   1.000  C
  C64      1.0000 0.16210  0.66660  0.48810  Biso   1.000  C
  H77      1.0000 0.62400  0.77080  0.97590  Biso   1.000  H
  H78      1.0000 0.87600  0.27080  0.52410  Biso   1.000  H
  H79      1.0000 0.37600  0.22920  0.02410  Biso   1.000  H
  H80      1.0000 0.12400  0.72920  0.47590  Biso   1.000  H
