data_image0
_cell_length_a       9.912
_cell_length_b       5.1327
_cell_length_c       13.4588
_cell_angle_alpha    90
_cell_angle_beta     101.654
_cell_angle_gamma    90

_symmetry_space_group_name_H-M    "P 1"
_symmetry_int_tables_number       1

loop_
  _symmetry_equiv_pos_as_xyz
  'x, y, z'

loop_
  _atom_site_label
  _atom_site_occupancy
  _atom_site_fract_x
  _atom_site_fract_y
  _atom_site_fract_z
  _atom_site_thermal_displace_type
  _atom_site_B_iso_or_equiv
  _atom_site_type_symbol
  Cu1      1.0000 0.50000  0.50000  0.50000  Biso   1.000  Cu
  Cu2      1.0000 0.00000  0.00000  0.00000  Biso   1.000  Cu
  O1       1.0000 0.11351  0.18990  0.45163  Biso   1.000  O
  O2       1.0000 0.38649  0.68990  0.04837  Biso   1.000  O
  O3       1.0000 0.88649  0.81010  0.54837  Biso   1.000  O
  O4       1.0000 0.61351  0.31010  0.95163  Biso   1.000  O
  O5       1.0000 0.93404  0.15390  0.32027  Biso   1.000  O
  O6       1.0000 0.56596  0.65390  0.17973  Biso   1.000  O
  O7       1.0000 0.06596  0.84610  0.67973  Biso   1.000  O
  O8       1.0000 0.43404  0.34610  0.82027  Biso   1.000  O
  N1       1.0000 0.34059  0.68040  0.41931  Biso   1.000  N
  N2       1.0000 0.15941  0.18040  0.08069  Biso   1.000  N
  N3       1.0000 0.65941  0.31960  0.58069  Biso   1.000  N
  N4       1.0000 0.84059  0.81960  0.91931  Biso   1.000  N
  N5       1.0000 0.49886  0.80600  0.65229  Biso   1.000  N
  N6       1.0000 0.00114  0.30600  0.84771  Biso   1.000  N
  N7       1.0000 0.50114  0.19400  0.34771  Biso   1.000  N
  N8       1.0000 0.99886  0.69400  0.15229  Biso   1.000  N
  C1       1.0000 0.05870  0.08740  0.37209  Biso   1.000  C
  C2       1.0000 0.44130  0.58740  0.12791  Biso   1.000  C
  C3       1.0000 0.94130  0.91260  0.62791  Biso   1.000  C
  C4       1.0000 0.55870  0.41260  0.87209  Biso   1.000  C
  C5       1.0000 0.11807  0.87930  0.32351  Biso   1.000  C
  C6       1.0000 0.38193  0.37930  0.17649  Biso   1.000  C
  C7       1.0000 0.88193  0.12070  0.67649  Biso   1.000  C
  C8       1.0000 0.61807  0.62070  0.82351  Biso   1.000  C
  C9       1.0000 0.24150  0.76830  0.37494  Biso   1.000  C
  C10      1.0000 0.25850  0.26830  0.12506  Biso   1.000  C
  C11      1.0000 0.75850  0.23170  0.62506  Biso   1.000  C
  C12      1.0000 0.74150  0.73170  0.87494  Biso   1.000  C
  C13      1.0000 0.55279  0.72620  0.72971  Biso   1.000  C
  C14      1.0000 0.94721  0.22620  0.77029  Biso   1.000  C
  C15      1.0000 0.44721  0.27380  0.27029  Biso   1.000  C
  C16      1.0000 0.05279  0.77380  0.22971  Biso   1.000  C
  C17      1.0000 0.86190  0.35520  0.36470  Biso   1.000  C
  C18      1.0000 0.63810  0.85520  0.13530  Biso   1.000  C
  C19      1.0000 0.13810  0.64480  0.63530  Biso   1.000  C
  C20      1.0000 0.36190  0.14480  0.86470  Biso   1.000  C
  H1       1.0000 0.77580  0.39280  0.31990  Biso   1.000  H
  H2       1.0000 0.72420  0.89280  0.18010  Biso   1.000  H
  H3       1.0000 0.22420  0.60720  0.68010  Biso   1.000  H
  H4       1.0000 0.27580  0.10720  0.81990  Biso   1.000  H
  H5       1.0000 0.91720  0.51010  0.37500  Biso   1.000  H
  H6       1.0000 0.58280  0.01010  0.12500  Biso   1.000  H
  H7       1.0000 0.08280  0.48990  0.62500  Biso   1.000  H
  H8       1.0000 0.41720  0.98990  0.87500  Biso   1.000  H
  H9       1.0000 0.84490  0.29570  0.42870  Biso   1.000  H
  H10      1.0000 0.65510  0.79570  0.07130  Biso   1.000  H
  H11      1.0000 0.15510  0.70430  0.57130  Biso   1.000  H
  H12      1.0000 0.34490  0.20430  0.92870  Biso   1.000  H
  O9       1.0000 0.37593  0.26540  0.55247  Biso   1.000  O
  O10      1.0000 0.12407  0.76540  0.94753  Biso   1.000  O
  O11      1.0000 0.62407  0.73460  0.44753  Biso   1.000  O
  O12      1.0000 0.87593  0.23460  0.05247  Biso   1.000  O
  H13      1.0000 0.40700  0.14400  0.57930  Biso   1.000  H
  H14      1.0000 0.09300  0.64400  0.92070  Biso   1.000  H
  H15      1.0000 0.59300  0.85600  0.42070  Biso   1.000  H
  H16      1.0000 0.90700  0.35600  0.07930  Biso   1.000  H
  H17      1.0000 0.31200  0.24200  0.52000  Biso   1.000  H
  H18      1.0000 0.18800  0.74200  0.98000  Biso   1.000  H
  H19      1.0000 0.68800  0.75800  0.48000  Biso   1.000  H
  H20      1.0000 0.81200  0.25800  0.02000  Biso   1.000  H
