data_image0
_cell_length_a       13.611
_cell_length_b       10.957
_cell_length_c       14.8464
_cell_angle_alpha    90
_cell_angle_beta     102.34
_cell_angle_gamma    90

_symmetry_space_group_name_H-M    "P 1"
_symmetry_int_tables_number       1

loop_
  _symmetry_equiv_pos_as_xyz
  'x, y, z'

loop_
  _atom_site_label
  _atom_site_occupancy
  _atom_site_fract_x
  _atom_site_fract_y
  _atom_site_fract_z
  _atom_site_thermal_displace_type
  _atom_site_B_iso_or_equiv
  _atom_site_type_symbol
  Cu1      1.0000 0.10176  0.98673  0.09855  Biso   1.000  Cu
  Cu2      1.0000 0.60176  0.51327  0.59855  Biso   1.000  Cu
  Cu3      1.0000 0.89824  0.01327  0.90145  Biso   1.000  Cu
  Cu4      1.0000 0.39824  0.48673  0.40145  Biso   1.000  Cu
  N1       1.0000 0.11160  0.89560  0.22170  Biso   1.000  N
  N2       1.0000 0.61160  0.60440  0.72170  Biso   1.000  N
  N3       1.0000 0.88840  0.10440  0.77830  Biso   1.000  N
  N4       1.0000 0.38840  0.39560  0.27830  Biso   1.000  N
  N5       1.0000 0.12560  0.82270  0.04910  Biso   1.000  N
  N6       1.0000 0.62560  0.67730  0.54910  Biso   1.000  N
  N7       1.0000 0.87440  0.17730  0.95090  Biso   1.000  N
  N8       1.0000 0.37440  0.32270  0.45090  Biso   1.000  N
  H1       1.0000 0.08090  0.80930  0.99590  Biso   1.000  H
  H2       1.0000 0.58090  0.69070  0.49590  Biso   1.000  H
  H3       1.0000 0.91910  0.19070  0.00410  Biso   1.000  H
  H4       1.0000 0.41910  0.30930  0.50410  Biso   1.000  H
  H5       1.0000 0.18780  0.81980  0.03730  Biso   1.000  H
  H6       1.0000 0.68780  0.68020  0.53730  Biso   1.000  H
  H7       1.0000 0.81220  0.18020  0.96270  Biso   1.000  H
  H8       1.0000 0.31220  0.31980  0.46270  Biso   1.000  H
  C1       1.0000 0.01380  0.88960  0.24920  Biso   1.000  C
  C2       1.0000 0.51380  0.61040  0.74920  Biso   1.000  C
  C3       1.0000 0.98620  0.11040  0.75080  Biso   1.000  C
  C4       1.0000 0.48620  0.38960  0.25080  Biso   1.000  C
  H9       1.0000 0.97260  0.82510  0.21570  Biso   1.000  H
  H10      1.0000 0.47260  0.67490  0.71570  Biso   1.000  H
  H11      1.0000 0.02740  0.17490  0.78430  Biso   1.000  H
  H12      1.0000 0.52740  0.32510  0.28430  Biso   1.000  H
  H13      1.0000 0.97820  0.96640  0.23590  Biso   1.000  H
  H14      1.0000 0.47820  0.53360  0.73590  Biso   1.000  H
  H15      1.0000 0.02180  0.03360  0.76410  Biso   1.000  H
  H16      1.0000 0.52180  0.46640  0.26410  Biso   1.000  H
  C5       1.0000 0.15440  0.77700  0.20870  Biso   1.000  C
  C6       1.0000 0.65440  0.72300  0.70870  Biso   1.000  C
  C7       1.0000 0.84560  0.22300  0.79130  Biso   1.000  C
  C8       1.0000 0.34560  0.27700  0.29130  Biso   1.000  C
  H17      1.0000 0.13900  0.72020  0.25380  Biso   1.000  H
  H18      1.0000 0.63900  0.77980  0.75380  Biso   1.000  H
  H19      1.0000 0.86100  0.27980  0.74620  Biso   1.000  H
  H20      1.0000 0.36100  0.22020  0.24620  Biso   1.000  H
  H21      1.0000 0.22700  0.78420  0.21900  Biso   1.000  H
  H22      1.0000 0.72700  0.71580  0.71900  Biso   1.000  H
  H23      1.0000 0.77300  0.21580  0.78100  Biso   1.000  H
  H24      1.0000 0.27300  0.28420  0.28100  Biso   1.000  H
  C9       1.0000 0.03570  0.86390  0.35190  Biso   1.000  C
  C10      1.0000 0.53570  0.63610  0.85190  Biso   1.000  C
  C11      1.0000 0.96430  0.13610  0.64810  Biso   1.000  C
  C12      1.0000 0.46430  0.36390  0.14810  Biso   1.000  C
  H25      1.0000 0.98920  0.90760  0.38140  Biso   1.000  H
  H26      1.0000 0.48920  0.59240  0.88140  Biso   1.000  H
  H27      1.0000 0.01080  0.09240  0.61860  Biso   1.000  H
  H28      1.0000 0.51080  0.40760  0.11860  Biso   1.000  H
  H29      1.0000 0.03070  0.77730  0.36360  Biso   1.000  H
  H30      1.0000 0.53070  0.72270  0.86360  Biso   1.000  H
  H31      1.0000 0.96930  0.22270  0.63640  Biso   1.000  H
  H32      1.0000 0.46930  0.27730  0.13640  Biso   1.000  H
  C13      1.0000 0.17550  0.95830  0.30260  Biso   1.000  C
  C14      1.0000 0.67550  0.54170  0.80260  Biso   1.000  C
  C15      1.0000 0.82450  0.04170  0.69740  Biso   1.000  C
  C16      1.0000 0.32450  0.45830  0.19740  Biso   1.000  C
  H33      1.0000 0.16580  0.04590  0.29800  Biso   1.000  H
  H34      1.0000 0.66580  0.45410  0.79800  Biso   1.000  H
  H35      1.0000 0.83420  0.95410  0.70200  Biso   1.000  H
  H36      1.0000 0.33420  0.54590  0.20200  Biso   1.000  H
  H37      1.0000 0.24600  0.94040  0.30630  Biso   1.000  H
  H38      1.0000 0.74600  0.55960  0.80630  Biso   1.000  H
  H39      1.0000 0.75400  0.05960  0.69370  Biso   1.000  H
  H40      1.0000 0.25400  0.44040  0.19370  Biso   1.000  H
  C17      1.0000 0.11550  0.72850  0.11580  Biso   1.000  C
  C18      1.0000 0.61550  0.77150  0.61580  Biso   1.000  C
  C19      1.0000 0.88450  0.27150  0.88420  Biso   1.000  C
  C20      1.0000 0.38450  0.22850  0.38420  Biso   1.000  C
  H41      1.0000 0.15310  0.65640  0.10570  Biso   1.000  H
  H42      1.0000 0.65310  0.84360  0.60570  Biso   1.000  H
  H43      1.0000 0.84690  0.34360  0.89430  Biso   1.000  H
  H44      1.0000 0.34690  0.15640  0.39430  Biso   1.000  H
  H45      1.0000 0.04530  0.70600  0.10880  Biso   1.000  H
  H46      1.0000 0.54530  0.79400  0.60880  Biso   1.000  H
  H47      1.0000 0.95470  0.29400  0.89120  Biso   1.000  H
  H48      1.0000 0.45470  0.20600  0.39120  Biso   1.000  H
  C21      1.0000 0.14160  0.90860  0.38640  Biso   1.000  C
  C22      1.0000 0.64160  0.59140  0.88640  Biso   1.000  C
  C23      1.0000 0.85840  0.09140  0.61360  Biso   1.000  C
  C24      1.0000 0.35840  0.40860  0.11360  Biso   1.000  C
  H49      1.0000 0.18490  0.84230  0.41400  Biso   1.000  H
  H50      1.0000 0.68490  0.65770  0.91400  Biso   1.000  H
  H51      1.0000 0.81510  0.15770  0.58600  Biso   1.000  H
  H52      1.0000 0.31510  0.34230  0.08600  Biso   1.000  H
  H53      1.0000 0.14340  0.97220  0.43220  Biso   1.000  H
  H54      1.0000 0.64340  0.52780  0.93220  Biso   1.000  H
  H55      1.0000 0.85660  0.02780  0.56780  Biso   1.000  H
  H56      1.0000 0.35660  0.47220  0.06780  Biso   1.000  H
  N9       1.0000 0.15660  0.10730  0.94820  Biso   1.000  N
  N10      1.0000 0.65660  0.39270  0.44820  Biso   1.000  N
  N11      1.0000 0.84340  0.89270  0.05180  Biso   1.000  N
  N12      1.0000 0.34340  0.60730  0.55180  Biso   1.000  N
  N13      1.0000 0.09000  0.05980  0.97270  Biso   1.000  N
  N14      1.0000 0.59000  0.44020  0.47270  Biso   1.000  N
  N15      1.0000 0.91000  0.94020  0.02730  Biso   1.000  N
  N16      1.0000 0.41000  0.55980  0.52730  Biso   1.000  N
  N17      1.0000 0.21870  0.15680  0.92110  Biso   1.000  N
  N18      1.0000 0.71870  0.34320  0.42110  Biso   1.000  N
  N19      1.0000 0.78130  0.84320  0.07890  Biso   1.000  N
  N20      1.0000 0.28130  0.65680  0.57890  Biso   1.000  N
  N21      1.0000 0.08370  0.23690  0.12210  Biso   1.000  N
  N22      1.0000 0.58370  0.26310  0.62210  Biso   1.000  N
  N23      1.0000 0.91630  0.76310  0.87790  Biso   1.000  N
  N24      1.0000 0.41630  0.73690  0.37790  Biso   1.000  N
  N25      1.0000 0.07630  0.14200  0.15490  Biso   1.000  N
  N26      1.0000 0.57630  0.35800  0.65490  Biso   1.000  N
  N27      1.0000 0.92370  0.85800  0.84510  Biso   1.000  N
  N28      1.0000 0.42370  0.64200  0.34510  Biso   1.000  N
  N29      1.0000 0.08650  0.33180  0.09320  Biso   1.000  N
  N30      1.0000 0.58650  0.16820  0.59320  Biso   1.000  N
  N31      1.0000 0.91350  0.66820  0.90680  Biso   1.000  N
  N32      1.0000 0.41350  0.83180  0.40680  Biso   1.000  N
  Cu5      1.0000 0.39542  0.04265  0.91158  Biso   1.000  Cu
  Cu6      1.0000 0.89542  0.45735  0.41158  Biso   1.000  Cu
  Cu7      1.0000 0.60458  0.95735  0.08842  Biso   1.000  Cu
  Cu8      1.0000 0.10458  0.54265  0.58842  Biso   1.000  Cu
  N33      1.0000 0.42430  0.02810  0.04990  Biso   1.000  N
  N34      1.0000 0.92430  0.47190  0.54990  Biso   1.000  N
  N35      1.0000 0.57570  0.97190  0.95010  Biso   1.000  N
  N36      1.0000 0.07570  0.52810  0.45010  Biso   1.000  N
  N37      1.0000 0.35960  0.02110  0.09210  Biso   1.000  N
  N38      1.0000 0.85960  0.47890  0.59210  Biso   1.000  N
  N39      1.0000 0.64040  0.97890  0.90790  Biso   1.000  N
  N40      1.0000 0.14040  0.52110  0.40790  Biso   1.000  N
  N41      1.0000 0.37950  0.06870  0.77180  Biso   1.000  N
  N42      1.0000 0.87950  0.43130  0.27180  Biso   1.000  N
  N43      1.0000 0.62050  0.93130  0.22820  Biso   1.000  N
  N44      1.0000 0.12050  0.56870  0.72820  Biso   1.000  N
  N45      1.0000 0.43260  0.21930  0.92090  Biso   1.000  N
  N46      1.0000 0.93260  0.28070  0.42090  Biso   1.000  N
  N47      1.0000 0.56740  0.78070  0.07910  Biso   1.000  N
  N48      1.0000 0.06740  0.71930  0.57910  Biso   1.000  N
  H57      1.0000 0.38980  0.26060  0.94810  Biso   1.000  H
  H58      1.0000 0.88980  0.23940  0.44810  Biso   1.000  H
  H59      1.0000 0.61020  0.73940  0.05190  Biso   1.000  H
  H60      1.0000 0.11020  0.76060  0.55190  Biso   1.000  H
  H61      1.0000 0.49510  0.22820  0.95540  Biso   1.000  H
  H62      1.0000 0.99510  0.27180  0.45540  Biso   1.000  H
  H63      1.0000 0.50490  0.77180  0.04460  Biso   1.000  H
  H64      1.0000 0.00490  0.72820  0.54460  Biso   1.000  H
  N49      1.0000 0.33480  0.80880  0.94860  Biso   1.000  N
  N50      1.0000 0.83480  0.69120  0.44860  Biso   1.000  N
  N51      1.0000 0.66520  0.19120  0.05140  Biso   1.000  N
  N52      1.0000 0.16520  0.30880  0.55140  Biso   1.000  N
  N53      1.0000 0.33300  0.88080  0.88960  Biso   1.000  N
  N54      1.0000 0.83300  0.61920  0.38960  Biso   1.000  N
  N55      1.0000 0.66700  0.11920  0.11040  Biso   1.000  N
  N56      1.0000 0.16700  0.38080  0.61040  Biso   1.000  N
  N57      1.0000 0.30020  0.01420  0.13620  Biso   1.000  N
  N58      1.0000 0.80020  0.48580  0.63620  Biso   1.000  N
  N59      1.0000 0.69980  0.98580  0.86380  Biso   1.000  N
  N60      1.0000 0.19980  0.51420  0.36380  Biso   1.000  N
  N61      1.0000 0.33620  0.73750  0.00530  Biso   1.000  N
  N62      1.0000 0.83620  0.76250  0.50530  Biso   1.000  N
  N63      1.0000 0.66380  0.26250  0.99470  Biso   1.000  N
  N64      1.0000 0.16380  0.23750  0.49470  Biso   1.000  N
  C25      1.0000 0.27440  0.05500  0.72050  Biso   1.000  C
  C26      1.0000 0.77440  0.44500  0.22050  Biso   1.000  C
  C27      1.0000 0.72560  0.94500  0.27950  Biso   1.000  C
  C28      1.0000 0.22560  0.55500  0.77950  Biso   1.000  C
  H65      1.0000 0.24060  0.13350  0.71410  Biso   1.000  H
  H66      1.0000 0.74060  0.36650  0.21410  Biso   1.000  H
  H67      1.0000 0.75940  0.86650  0.28590  Biso   1.000  H
  H68      1.0000 0.25940  0.63350  0.78590  Biso   1.000  H
  H69      1.0000 0.23810  0.00000  0.75290  Biso   1.000  H
  H70      1.0000 0.73810  0.50000  0.25290  Biso   1.000  H
  H71      1.0000 0.76190  0.00000  0.24710  Biso   1.000  H
  H72      1.0000 0.26190  0.50000  0.74710  Biso   1.000  H
  C29      1.0000 0.43280  0.97710  0.72690  Biso   1.000  C
  C30      1.0000 0.93280  0.52290  0.22690  Biso   1.000  C
  C31      1.0000 0.56720  0.02290  0.27310  Biso   1.000  C
  C32      1.0000 0.06720  0.47710  0.77310  Biso   1.000  C
  H73      1.0000 0.43140  0.89810  0.75610  Biso   1.000  H
  H74      1.0000 0.93140  0.60190  0.25610  Biso   1.000  H
  H75      1.0000 0.56860  0.10190  0.24390  Biso   1.000  H
  H76      1.0000 0.06860  0.39810  0.74390  Biso   1.000  H
  H77      1.0000 0.50230  0.00100  0.73190  Biso   1.000  H
  H78      1.0000 0.00230  0.49900  0.23190  Biso   1.000  H
  H79      1.0000 0.49770  0.99900  0.26810  Biso   1.000  H
  H80      1.0000 0.99770  0.50100  0.76810  Biso   1.000  H
  C33      1.0000 0.42200  0.18710  0.76100  Biso   1.000  C
  C34      1.0000 0.92200  0.31290  0.26100  Biso   1.000  C
  C35      1.0000 0.57800  0.81290  0.23900  Biso   1.000  C
  C36      1.0000 0.07800  0.68710  0.73900  Biso   1.000  C
  H81      1.0000 0.48930  0.17470  0.75060  Biso   1.000  H
  H82      1.0000 0.98930  0.32530  0.25060  Biso   1.000  H
  H83      1.0000 0.51070  0.82530  0.24940  Biso   1.000  H
  H84      1.0000 0.01070  0.67470  0.74940  Biso   1.000  H
  H85      1.0000 0.38250  0.22400  0.70560  Biso   1.000  H
  H86      1.0000 0.88250  0.27600  0.20560  Biso   1.000  H
  H87      1.0000 0.61750  0.77600  0.29440  Biso   1.000  H
  H88      1.0000 0.11750  0.72400  0.79440  Biso   1.000  H
  C37      1.0000 0.37920  0.97090  0.62750  Biso   1.000  C
  C38      1.0000 0.87920  0.52910  0.12750  Biso   1.000  C
  C39      1.0000 0.62080  0.02910  0.37250  Biso   1.000  C
  C40      1.0000 0.12080  0.47090  0.87250  Biso   1.000  C
  H89      1.0000 0.40860  0.02730  0.59030  Biso   1.000  H
  H90      1.0000 0.90860  0.47270  0.09030  Biso   1.000  H
  H91      1.0000 0.59140  0.97270  0.40970  Biso   1.000  H
  H92      1.0000 0.09140  0.52730  0.90970  Biso   1.000  H
  H93      1.0000 0.38180  0.88910  0.60320  Biso   1.000  H
  H94      1.0000 0.88180  0.61090  0.10320  Biso   1.000  H
  H95      1.0000 0.61820  0.11090  0.39680  Biso   1.000  H
  H96      1.0000 0.11820  0.38910  0.89680  Biso   1.000  H
  C41      1.0000 0.42830  0.26720  0.82920  Biso   1.000  C
  C42      1.0000 0.92830  0.23280  0.32920  Biso   1.000  C
  C43      1.0000 0.57170  0.73280  0.17080  Biso   1.000  C
  C44      1.0000 0.07170  0.76720  0.67080  Biso   1.000  C
  H97      1.0000 0.37060  0.32110  0.81400  Biso   1.000  H
  H98      1.0000 0.87060  0.17890  0.31400  Biso   1.000  H
  H99      1.0000 0.62940  0.67890  0.18600  Biso   1.000  H
  H100     1.0000 0.12940  0.82110  0.68600  Biso   1.000  H
  H101     1.0000 0.48780  0.31660  0.83120  Biso   1.000  H
  H102     1.0000 0.98780  0.18340  0.33120  Biso   1.000  H
  H103     1.0000 0.51220  0.68340  0.16880  Biso   1.000  H
  H104     1.0000 0.01220  0.81660  0.66880  Biso   1.000  H
  C45      1.0000 0.27810  0.00500  0.62870  Biso   1.000  C
  C46      1.0000 0.77810  0.49500  0.12870  Biso   1.000  C
  C47      1.0000 0.72190  0.99500  0.37130  Biso   1.000  C
  C48      1.0000 0.22190  0.50500  0.87130  Biso   1.000  C
  H105     1.0000 0.23450  0.93420  0.61580  Biso   1.000  H
  H106     1.0000 0.73450  0.56580  0.11580  Biso   1.000  H
  H107     1.0000 0.76550  0.06580  0.38420  Biso   1.000  H
  H108     1.0000 0.26550  0.43420  0.88420  Biso   1.000  H
  H109     1.0000 0.25470  0.06580  0.58160  Biso   1.000  H
  H110     1.0000 0.75470  0.43420  0.08160  Biso   1.000  H
  H111     1.0000 0.74530  0.93420  0.41840  Biso   1.000  H
  H112     1.0000 0.24530  0.56580  0.91840  Biso   1.000  H
