data_image0
_cell_length_a       8.375
_cell_length_b       13.382
_cell_length_c       18.232
_cell_angle_alpha    81.49
_cell_angle_beta     89.74
_cell_angle_gamma    75.69

_symmetry_space_group_name_H-M    "P 1"
_symmetry_int_tables_number       1

loop_
  _symmetry_equiv_pos_as_xyz
  'x, y, z'

loop_
  _atom_site_label
  _atom_site_occupancy
  _atom_site_fract_x
  _atom_site_fract_y
  _atom_site_fract_z
  _atom_site_thermal_displace_type
  _atom_site_B_iso_or_equiv
  _atom_site_type_symbol
  Cu1      1.0000 0.50347  0.23784  0.76366  Biso   1.000  Cu
  Cu2      1.0000 0.49653  0.76216  0.23634  Biso   1.000  Cu
  C1       1.0000 0.29360  0.28190  0.62536  Biso   1.000  C
  C2       1.0000 0.70640  0.71810  0.37464  Biso   1.000  C
  H1       1.0000 0.37190  0.30630  0.59650  Biso   1.000  H
  H2       1.0000 0.62810  0.69370  0.40350  Biso   1.000  H
  C3       1.0000 0.17510  0.21210  0.71640  Biso   1.000  C
  C4       1.0000 0.82490  0.78790  0.28360  Biso   1.000  C
  H3       1.0000 0.15620  0.17890  0.76300  Biso   1.000  H
  H4       1.0000 0.84380  0.82110  0.23700  Biso   1.000  H
  C5       1.0000 0.06470  0.24690  0.66000  Biso   1.000  C
  C6       1.0000 0.93530  0.75310  0.34000  Biso   1.000  C
  H5       1.0000 0.95600  0.24170  0.66010  Biso   1.000  H
  H6       1.0000 0.04400  0.75830  0.33990  Biso   1.000  H
  C7       1.0000 0.06490  0.35310  0.53210  Biso   1.000  C
  C8       1.0000 0.93510  0.64690  0.46790  Biso   1.000  C
  H7       1.0000 0.96210  0.33600  0.52200  Biso   1.000  H
  H8       1.0000 0.03790  0.66400  0.47800  Biso   1.000  H
  H9       1.0000 0.13800  0.33610  0.49190  Biso   1.000  H
  H10      1.0000 0.86200  0.66390  0.50810  Biso   1.000  H
  C9       1.0000 0.03280  0.46720  0.53600  Biso   1.000  C
  C10      1.0000 0.96720  0.53280  0.46400  Biso   1.000  C
  H11      1.0000 0.95420  0.48460  0.57420  Biso   1.000  H
  H12      1.0000 0.04580  0.51540  0.42580  Biso   1.000  H
  H13      1.0000 0.13460  0.48290  0.54990  Biso   1.000  H
  H14      1.0000 0.86540  0.51710  0.45010  Biso   1.000  H
  C11      1.0000 0.32980  0.38730  0.86159  Biso   1.000  C
  C12      1.0000 0.67020  0.61270  0.13841  Biso   1.000  C
  H15      1.0000 0.38520  0.34610  0.90390  Biso   1.000  H
  H16      1.0000 0.61480  0.65390  0.09610  Biso   1.000  H
  C13      1.0000 0.24950  0.44460  0.74910  Biso   1.000  C
  C14      1.0000 0.75050  0.55540  0.25090  Biso   1.000  C
  H17      1.0000 0.23950  0.45030  0.69780  Biso   1.000  H
  H18      1.0000 0.76050  0.54970  0.30220  Biso   1.000  H
  C15      1.0000 0.16340  0.51300  0.79010  Biso   1.000  C
  C16      1.0000 0.83660  0.48700  0.20990  Biso   1.000  C
  H19      1.0000 0.08360  0.57370  0.77290  Biso   1.000  H
  H20      1.0000 0.91640  0.42630  0.22710  Biso   1.000  H
  C17      1.0000 0.15190  0.52480  0.92600  Biso   1.000  C
  C18      1.0000 0.84810  0.47520  0.07400  Biso   1.000  C
  H21      1.0000 0.09990  0.59800  0.91000  Biso   1.000  H
  H22      1.0000 0.90010  0.40200  0.09000  Biso   1.000  H
  H23      1.0000 0.24330  0.52050  0.95980  Biso   1.000  H
  H24      1.0000 0.75670  0.47950  0.04020  Biso   1.000  H
  C19      1.0000 0.02990  0.47400  0.96630  Biso   1.000  C
  C20      1.0000 0.97010  0.52600  0.03370  Biso   1.000  C
  H25      1.0000 0.08070  0.40060  0.98200  Biso   1.000  H
  H26      1.0000 0.91930  0.59940  0.01800  Biso   1.000  H
  H27      1.0000 0.93670  0.47960  0.93320  Biso   1.000  H
  H28      1.0000 0.06330  0.52040  0.06680  Biso   1.000  H
  C21      1.0000 0.70360  0.18640  0.90610  Biso   1.000  C
  C22      1.0000 0.29640  0.81360  0.09390  Biso   1.000  C
  H29      1.0000 0.63200  0.15020  0.93010  Biso   1.000  H
  H30      1.0000 0.36800  0.84980  0.06990  Biso   1.000  H
  C23      1.0000 0.81170  0.27890  0.82460  Biso   1.000  C
  C24      1.0000 0.18830  0.72110  0.17540  Biso   1.000  C
  H31      1.0000 0.82930  0.31890  0.78050  Biso   1.000  H
  H32      1.0000 0.17070  0.68110  0.21950  Biso   1.000  H
  C25      1.0000 0.91330  0.25200  0.88450  Biso   1.000  C
  C26      1.0000 0.08670  0.74800  0.11550  Biso   1.000  C
  H33      1.0000 0.01190  0.27070  0.89000  Biso   1.000  H
  H34      1.0000 0.98810  0.72930  0.11000  Biso   1.000  H
  C27      1.0000 0.90770  0.14550  0.01120  Biso   1.000  C
  C28      1.0000 0.09230  0.85450  0.98880  Biso   1.000  C
  H35      1.0000 0.82990  0.17520  0.04650  Biso   1.000  H
  H36      1.0000 0.17010  0.82480  0.95350  Biso   1.000  H
  H37      1.0000 0.01090  0.16320  0.01980  Biso   1.000  H
  H38      1.0000 0.98910  0.83680  0.98020  Biso   1.000  H
  C29      1.0000 0.93580  0.02790  0.02460  Biso   1.000  C
  C30      1.0000 0.06420  0.97210  0.97540  Biso   1.000  C
  H39      1.0000 0.83220  0.01050  0.01630  Biso   1.000  H
  H40      1.0000 0.16780  0.98950  0.98370  Biso   1.000  H
  H41      1.0000 0.97040  0.00230  0.07610  Biso   1.000  H
  H42      1.0000 0.02960  0.99770  0.92390  Biso   1.000  H
  C31      1.0000 0.68700  0.12720  0.64790  Biso   1.000  C
  C32      1.0000 0.31300  0.87280  0.35210  Biso   1.000  C
  H43      1.0000 0.61530  0.17080  0.61110  Biso   1.000  H
  H44      1.0000 0.38470  0.82920  0.38890  Biso   1.000  H
  C33      1.0000 0.79820  0.05380  0.75340  Biso   1.000  C
  C34      1.0000 0.20180  0.94620  0.24660  Biso   1.000  C
  H45      1.0000 0.81740  0.03630  0.80450  Biso   1.000  H
  H46      1.0000 0.18260  0.96370  0.19550  Biso   1.000  H
  C35      1.0000 0.89460  0.00970  0.70200  Biso   1.000  C
  C36      1.0000 0.10540  0.99030  0.29800  Biso   1.000  C
  H47      1.0000 0.99220  0.95770  0.71020  Biso   1.000  H
  H48      1.0000 0.00780  0.04230  0.28980  Biso   1.000  H
  C37      1.0000 0.87930  0.03800  0.55950  Biso   1.000  C
  C38      1.0000 0.12070  0.96200  0.44050  Biso   1.000  C
  C39      1.0000 0.01240  0.04820  0.53900  Biso   1.000  C
  C40      1.0000 0.98760  0.95180  0.46100  Biso   1.000  C
  C41      1.0000 0.94540  0.95550  0.54520  Biso   1.000  C
  C42      1.0000 0.05460  0.04450  0.45480  Biso   1.000  C
  C43      1.0000 0.66190  0.75260  0.86921  Biso   1.000  C
  C44      1.0000 0.33810  0.24740  0.13079  Biso   1.000  C
  C45      1.0000 0.59950  0.66450  0.87840  Biso   1.000  C
  C46      1.0000 0.40050  0.33550  0.12160  Biso   1.000  C
  C47      1.0000 0.62310  0.59700  0.82680  Biso   1.000  C
  C48      1.0000 0.37690  0.40300  0.17320  Biso   1.000  C
  H49      1.0000 0.58360  0.53740  0.83580  Biso   1.000  H
  H50      1.0000 0.41640  0.46260  0.16420  Biso   1.000  H
  C49      1.0000 0.70360  0.61580  0.76260  Biso   1.000  C
  C50      1.0000 0.29640  0.38420  0.23740  Biso   1.000  C
  C51      1.0000 0.76720  0.70480  0.75330  Biso   1.000  C
  C52      1.0000 0.23280  0.29520  0.24670  Biso   1.000  C
  C53      1.0000 0.74430  0.77150  0.80549  Biso   1.000  C
  C54      1.0000 0.25570  0.22850  0.19451  Biso   1.000  C
  H51      1.0000 0.78560  0.83060  0.79730  Biso   1.000  H
  H52      1.0000 0.21440  0.16940  0.20270  Biso   1.000  H
  C55      1.0000 0.39990  0.74650  0.61117  Biso   1.000  C
  C56      1.0000 0.60010  0.25350  0.38883  Biso   1.000  C
  C57      1.0000 0.46390  0.83350  0.59655  Biso   1.000  C
  C58      1.0000 0.53610  0.16650  0.40345  Biso   1.000  C
  C59      1.0000 0.44840  0.90460  0.64560  Biso   1.000  C
  C60      1.0000 0.55160  0.09540  0.35440  Biso   1.000  C
  H53      1.0000 0.49100  0.96270  0.63390  Biso   1.000  H
  H54      1.0000 0.50900  0.03730  0.36610  Biso   1.000  H
  C61      1.0000 0.36990  0.89010  0.71210  Biso   1.000  C
  C62      1.0000 0.63010  0.10990  0.28790  Biso   1.000  C
  C63      1.0000 0.30150  0.80450  0.72523  Biso   1.000  C
  C64      1.0000 0.69850  0.19550  0.27477  Biso   1.000  C
  C65      1.0000 0.31830  0.73380  0.67610  Biso   1.000  C
  C66      1.0000 0.68170  0.26620  0.32390  Biso   1.000  C
  H55      1.0000 0.27360  0.67650  0.68710  Biso   1.000  H
  H56      1.0000 0.72640  0.32350  0.31290  Biso   1.000  H
  N1       1.0000 0.32190  0.23400  0.69381  Biso   1.000  N
  N2       1.0000 0.67810  0.76600  0.30619  Biso   1.000  N
  N3       1.0000 0.14030  0.29150  0.60223  Biso   1.000  N
  N4       1.0000 0.85970  0.70850  0.39777  Biso   1.000  N
  N5       1.0000 0.35380  0.36560  0.79395  Biso   1.000  N
  N6       1.0000 0.64620  0.63440  0.20605  Biso   1.000  N
  N7       1.0000 0.21500  0.47660  0.86143  Biso   1.000  N
  N8       1.0000 0.78500  0.52340  0.13857  Biso   1.000  N
  N9       1.0000 0.67730  0.23850  0.83837  Biso   1.000  N
  N10      1.0000 0.32270  0.76150  0.16163  Biso   1.000  N
  N11      1.0000 0.84450  0.19190  0.93587  Biso   1.000  N
  N12      1.0000 0.15550  0.80810  0.06413  Biso   1.000  N
  N13      1.0000 0.66780  0.12830  0.71925  Biso   1.000  N
  N14      1.0000 0.33220  0.87170  0.28075  Biso   1.000  N
  N15      1.0000 0.81910  0.05740  0.63483  Biso   1.000  N
  N16      1.0000 0.18090  0.94260  0.36517  Biso   1.000  N
  N17      1.0000 0.72940  0.54890  0.71150  Biso   1.000  N
  N18      1.0000 0.27060  0.45110  0.28850  Biso   1.000  N
  H57      1.0000 0.65400  0.50700  0.71900  Biso   1.000  H
  H58      1.0000 0.34600  0.49300  0.28100  Biso   1.000  H
  H59      1.0000 0.73400  0.57700  0.66940  Biso   1.000  H
  H60      1.0000 0.26600  0.42300  0.33060  Biso   1.000  H
  N19      1.0000 0.35480  0.96060  0.76100  Biso   1.000  N
  N20      1.0000 0.64520  0.03940  0.23900  Biso   1.000  N
  H61      1.0000 0.34300  0.93600  0.80300  Biso   1.000  H
  H62      1.0000 0.65700  0.06400  0.19700  Biso   1.000  H
  H63      1.0000 0.41600  0.00900  0.75800  Biso   1.000  H
  H64      1.0000 0.58400  0.99100  0.24200  Biso   1.000  H
  O1       1.0000 0.69720  0.78920  0.00302  Biso   1.000  O
  O2       1.0000 0.30280  0.21080  0.99698  Biso   1.000  O
  O3       1.0000 0.45400  0.88780  0.93214  Biso   1.000  O
  O4       1.0000 0.54600  0.11220  0.06786  Biso   1.000  O
  O5       1.0000 0.39380  0.11870  0.86384  Biso   1.000  O
  O6       1.0000 0.60620  0.88130  0.13616  Biso   1.000  O
  H65      1.0000 0.43500  0.06100  0.87900  Biso   1.000  H
  H66      1.0000 0.56500  0.93900  0.12100  Biso   1.000  H
  H67      1.0000 0.33300  0.14300  0.89900  Biso   1.000  H
  H68      1.0000 0.66700  0.85700  0.10100  Biso   1.000  H
  O7       1.0000 0.71500  0.92140  0.90096  Biso   1.000  O
  O8       1.0000 0.28500  0.07860  0.09904  Biso   1.000  O
  O9       1.0000 0.59370  0.38120  0.65372  Biso   1.000  O
  O10      1.0000 0.40630  0.61880  0.34628  Biso   1.000  O
  H69      1.0000 0.51000  0.44400  0.63400  Biso   1.000  H
  H70      1.0000 0.49000  0.55600  0.36600  Biso   1.000  H
  H71      1.0000 0.64100  0.37600  0.61800  Biso   1.000  H
  H72      1.0000 0.35900  0.62400  0.38200  Biso   1.000  H
  O11      1.0000 0.35640  0.56840  0.59429  Biso   1.000  O
  O12      1.0000 0.64360  0.43160  0.40571  Biso   1.000  O
  O13      1.0000 0.59730  0.61340  0.54273  Biso   1.000  O
  O14      1.0000 0.40270  0.38660  0.45727  Biso   1.000  O
  O15      1.0000 0.33330  0.69770  0.48512  Biso   1.000  O
  O16      1.0000 0.66670  0.30230  0.51488  Biso   1.000  O
  S1       1.0000 0.42445  0.64817  0.55323  Biso   1.000  S
  S2       1.0000 0.57555  0.35183  0.44677  Biso   1.000  S
  Cl1      1.0000 0.48813  0.63562  0.95565  Biso   1.000  Cl
  Cl2      1.0000 0.51187  0.36438  0.04435  Biso   1.000  Cl
  Cl3      1.0000 0.87118  0.73207  0.67357  Biso   1.000  Cl
  Cl4      1.0000 0.12882  0.26793  0.32643  Biso   1.000  Cl
  Cl5      1.0000 0.56960  0.85636  0.51647  Biso   1.000  Cl
  Cl6      1.0000 0.43040  0.14364  0.48353  Biso   1.000  Cl
  S3       1.0000 0.62847  0.84542  0.93178  Biso   1.000  S
  S4       1.0000 0.37153  0.15458  0.06822  Biso   1.000  S
  Cl7      1.0000 0.19619  0.78553  0.80598  Biso   1.000  Cl
  Cl8      1.0000 0.80381  0.21447  0.19402  Biso   1.000  Cl
