data_image0
_cell_length_a       10.337
_cell_length_b       11.2409
_cell_length_c       17.2356
_cell_angle_alpha    90
_cell_angle_beta     100.713
_cell_angle_gamma    90

_symmetry_space_group_name_H-M    "P 1"
_symmetry_int_tables_number       1

loop_
  _symmetry_equiv_pos_as_xyz
  'x, y, z'

loop_
  _atom_site_label
  _atom_site_occupancy
  _atom_site_fract_x
  _atom_site_fract_y
  _atom_site_fract_z
  _atom_site_thermal_displace_type
  _atom_site_B_iso_or_equiv
  _atom_site_type_symbol
  Cu1      1.0000 0.50000  0.00000  0.00000  Biso   1.000  Cu
  Cu2      1.0000 0.50000  0.50000  0.50000  Biso   1.000  Cu
  C1       1.0000 0.76700  0.66360  0.12543  Biso   1.000  C
  C2       1.0000 0.23300  0.16360  0.37457  Biso   1.000  C
  C3       1.0000 0.23300  0.33640  0.87457  Biso   1.000  C
  C4       1.0000 0.76700  0.83640  0.62543  Biso   1.000  C
  C5       1.0000 0.85830  0.72990  0.18045  Biso   1.000  C
  C6       1.0000 0.14170  0.22990  0.31955  Biso   1.000  C
  C7       1.0000 0.14170  0.27010  0.81955  Biso   1.000  C
  C8       1.0000 0.85830  0.77010  0.68045  Biso   1.000  C
  C9       1.0000 0.89860  0.68590  0.25657  Biso   1.000  C
  C10      1.0000 0.10140  0.18590  0.24343  Biso   1.000  C
  C11      1.0000 0.10140  0.31410  0.74343  Biso   1.000  C
  C12      1.0000 0.89860  0.81410  0.75657  Biso   1.000  C
  C13      1.0000 0.85060  0.58030  0.27600  Biso   1.000  C
  C14      1.0000 0.14940  0.08030  0.22400  Biso   1.000  C
  C15      1.0000 0.14940  0.41970  0.72400  Biso   1.000  C
  C16      1.0000 0.85060  0.91970  0.77600  Biso   1.000  C
  H1       1.0000 0.87950  0.55150  0.32690  Biso   1.000  H
  H2       1.0000 0.12050  0.05150  0.17310  Biso   1.000  H
  H3       1.0000 0.12050  0.44850  0.67310  Biso   1.000  H
  H4       1.0000 0.87950  0.94850  0.82690  Biso   1.000  H
  C17      1.0000 0.76090  0.51220  0.22460  Biso   1.000  C
  C18      1.0000 0.23910  0.01220  0.27540  Biso   1.000  C
  C19      1.0000 0.23910  0.48780  0.77540  Biso   1.000  C
  C20      1.0000 0.76090  0.98780  0.72460  Biso   1.000  C
  C21      1.0000 0.71610  0.55660  0.14619  Biso   1.000  C
  C22      1.0000 0.28390  0.05660  0.35381  Biso   1.000  C
  C23      1.0000 0.28390  0.44340  0.85381  Biso   1.000  C
  C24      1.0000 0.71610  0.94340  0.64619  Biso   1.000  C
  C25      1.0000 0.70120  0.39610  0.24720  Biso   1.000  C
  C26      1.0000 0.29880  0.89610  0.25280  Biso   1.000  C
  C27      1.0000 0.29880  0.60390  0.75280  Biso   1.000  C
  C28      1.0000 0.70120  0.10390  0.74720  Biso   1.000  C
  H5       1.0000 0.64110  0.36550  0.20240  Biso   1.000  H
  H6       1.0000 0.35890  0.86550  0.29760  Biso   1.000  H
  H7       1.0000 0.35890  0.63450  0.79760  Biso   1.000  H
  H8       1.0000 0.64110  0.13450  0.70240  Biso   1.000  H
  H9       1.0000 0.65480  0.41050  0.28960  Biso   1.000  H
  H10      1.0000 0.34520  0.91050  0.21040  Biso   1.000  H
  H11      1.0000 0.34520  0.58950  0.71040  Biso   1.000  H
  H12      1.0000 0.65480  0.08950  0.78960  Biso   1.000  H
  H13      1.0000 0.77010  0.33920  0.26370  Biso   1.000  H
  H14      1.0000 0.22990  0.83920  0.23630  Biso   1.000  H
  H15      1.0000 0.22990  0.66080  0.73630  Biso   1.000  H
  H16      1.0000 0.77010  0.16080  0.76370  Biso   1.000  H
  C29      1.0000 0.99270  0.75570  0.31730  Biso   1.000  C
  C30      1.0000 0.00730  0.25570  0.18270  Biso   1.000  C
  C31      1.0000 0.00730  0.24430  0.68270  Biso   1.000  C
  C32      1.0000 0.99270  0.74430  0.81730  Biso   1.000  C
  H17      1.0000 0.97180  0.83880  0.31190  Biso   1.000  H
  H18      1.0000 0.02820  0.33880  0.18810  Biso   1.000  H
  H19      1.0000 0.02820  0.16120  0.68810  Biso   1.000  H
  H20      1.0000 0.97180  0.66120  0.81190  Biso   1.000  H
  H21      1.0000 0.08120  0.74300  0.30940  Biso   1.000  H
  H22      1.0000 0.91880  0.24300  0.19060  Biso   1.000  H
  H23      1.0000 0.91880  0.25700  0.69060  Biso   1.000  H
  H24      1.0000 0.08120  0.75700  0.80940  Biso   1.000  H
  H25      1.0000 0.98500  0.72950  0.36930  Biso   1.000  H
  H26      1.0000 0.01500  0.22950  0.13070  Biso   1.000  H
  H27      1.0000 0.01500  0.27050  0.63070  Biso   1.000  H
  H28      1.0000 0.98500  0.77050  0.86930  Biso   1.000  H
  C33      1.0000 0.34220  0.78000  0.01002  Biso   1.000  C
  C34      1.0000 0.65780  0.28000  0.48998  Biso   1.000  C
  C35      1.0000 0.65780  0.22000  0.98998  Biso   1.000  C
  C36      1.0000 0.34220  0.72000  0.51002  Biso   1.000  C
  H29      1.0000 0.41470  0.73260  0.00680  Biso   1.000  H
  H30      1.0000 0.58530  0.23260  0.49320  Biso   1.000  H
  H31      1.0000 0.58530  0.26740  0.99320  Biso   1.000  H
  H32      1.0000 0.41470  0.76740  0.50680  Biso   1.000  H
  C37      1.0000 0.21860  0.93210  0.01640  Biso   1.000  C
  C38      1.0000 0.78140  0.43210  0.48360  Biso   1.000  C
  C39      1.0000 0.78140  0.06790  0.98360  Biso   1.000  C
  C40      1.0000 0.21860  0.56790  0.51640  Biso   1.000  C
  H33      1.0000 0.18970  0.01030  0.01800  Biso   1.000  H
  H34      1.0000 0.81030  0.51030  0.48200  Biso   1.000  H
  H35      1.0000 0.81030  0.98970  0.98200  Biso   1.000  H
  H36      1.0000 0.18970  0.48970  0.51800  Biso   1.000  H
  C41      1.0000 0.14320  0.83430  0.01919  Biso   1.000  C
  C42      1.0000 0.85680  0.33430  0.48081  Biso   1.000  C
  C43      1.0000 0.85680  0.16570  0.98081  Biso   1.000  C
  C44      1.0000 0.14320  0.66570  0.51919  Biso   1.000  C
  H37      1.0000 0.05490  0.83260  0.02340  Biso   1.000  H
  H38      1.0000 0.94510  0.33260  0.47660  Biso   1.000  H
  H39      1.0000 0.94510  0.16740  0.97660  Biso   1.000  H
  H40      1.0000 0.05490  0.66740  0.52340  Biso   1.000  H
  C45      1.0000 0.18660  0.61180  0.01189  Biso   1.000  C
  C46      1.0000 0.81340  0.11180  0.48811  Biso   1.000  C
  C47      1.0000 0.81340  0.38820  0.98811  Biso   1.000  C
  C48      1.0000 0.18660  0.88820  0.51189  Biso   1.000  C
  H41      1.0000 0.26540  0.56430  0.01340  Biso   1.000  H
  H42      1.0000 0.73460  0.06430  0.48660  Biso   1.000  H
  H43      1.0000 0.73460  0.43570  0.98660  Biso   1.000  H
  H44      1.0000 0.26540  0.93570  0.51340  Biso   1.000  H
  H45      1.0000 0.12810  0.59580  0.96210  Biso   1.000  H
  H46      1.0000 0.87190  0.09580  0.53790  Biso   1.000  H
  H47      1.0000 0.87190  0.40420  0.03790  Biso   1.000  H
  H48      1.0000 0.12810  0.90420  0.46210  Biso   1.000  H
  C49      1.0000 0.12010  0.57340  0.07838  Biso   1.000  C
  C50      1.0000 0.87990  0.07340  0.42162  Biso   1.000  C
  C51      1.0000 0.87990  0.42660  0.92162  Biso   1.000  C
  C52      1.0000 0.12010  0.92660  0.57838  Biso   1.000  C
  H49      1.0000 0.09980  0.48920  0.07240  Biso   1.000  H
  H50      1.0000 0.90020  0.98920  0.42760  Biso   1.000  H
  H51      1.0000 0.90020  0.51080  0.92760  Biso   1.000  H
  H52      1.0000 0.09980  0.01080  0.57240  Biso   1.000  H
  H53      1.0000 0.03730  0.61580  0.07390  Biso   1.000  H
  H54      1.0000 0.96270  0.11580  0.42610  Biso   1.000  H
  H55      1.0000 0.96270  0.38420  0.92610  Biso   1.000  H
  H56      1.0000 0.03730  0.88420  0.57390  Biso   1.000  H
  C53      1.0000 0.19990  0.59410  0.16001  Biso   1.000  C
  C54      1.0000 0.80010  0.09410  0.33999  Biso   1.000  C
  C55      1.0000 0.80010  0.40590  0.83999  Biso   1.000  C
  C56      1.0000 0.19990  0.90590  0.66001  Biso   1.000  C
  H57      1.0000 0.14300  0.58470  0.19850  Biso   1.000  H
  H58      1.0000 0.85700  0.08470  0.30150  Biso   1.000  H
  H59      1.0000 0.85700  0.41530  0.80150  Biso   1.000  H
  H60      1.0000 0.14300  0.91530  0.69850  Biso   1.000  H
  H61      1.0000 0.23210  0.67530  0.16350  Biso   1.000  H
  H62      1.0000 0.76790  0.17530  0.33650  Biso   1.000  H
  H63      1.0000 0.76790  0.32470  0.83650  Biso   1.000  H
  H64      1.0000 0.23210  0.82470  0.66350  Biso   1.000  H
  C57      1.0000 0.31670  0.50930  0.18082  Biso   1.000  C
  C58      1.0000 0.68330  0.00930  0.31918  Biso   1.000  C
  C59      1.0000 0.68330  0.49070  0.81918  Biso   1.000  C
  C60      1.0000 0.31670  0.99070  0.68082  Biso   1.000  C
  H65      1.0000 0.28470  0.42850  0.18310  Biso   1.000  H
  H66      1.0000 0.71530  0.92850  0.31690  Biso   1.000  H
  H67      1.0000 0.71530  0.57150  0.81690  Biso   1.000  H
  H68      1.0000 0.28470  0.07150  0.68310  Biso   1.000  H
  H69      1.0000 0.36970  0.51270  0.14000  Biso   1.000  H
  H70      1.0000 0.63030  0.01270  0.36000  Biso   1.000  H
  H71      1.0000 0.63030  0.48730  0.86000  Biso   1.000  H
  H72      1.0000 0.36970  0.98730  0.64000  Biso   1.000  H
  C61      1.0000 0.39300  0.49230  0.32701  Biso   1.000  C
  C62      1.0000 0.60700  0.99230  0.17299  Biso   1.000  C
  C63      1.0000 0.60700  0.50770  0.67299  Biso   1.000  C
  C64      1.0000 0.39300  0.00770  0.82701  Biso   1.000  C
  H73      1.0000 0.33800  0.42940  0.33410  Biso   1.000  H
  H74      1.0000 0.66200  0.92940  0.16590  Biso   1.000  H
  H75      1.0000 0.66200  0.57060  0.66590  Biso   1.000  H
  H76      1.0000 0.33800  0.07060  0.83410  Biso   1.000  H
  C65      1.0000 0.48980  0.63030  0.27114  Biso   1.000  C
  C66      1.0000 0.51020  0.13030  0.22886  Biso   1.000  C
  C67      1.0000 0.51020  0.36970  0.72886  Biso   1.000  C
  C68      1.0000 0.48980  0.86970  0.77114  Biso   1.000  C
  H77      1.0000 0.51480  0.68060  0.23370  Biso   1.000  H
  H78      1.0000 0.48520  0.18060  0.26630  Biso   1.000  H
  H79      1.0000 0.48520  0.31940  0.76630  Biso   1.000  H
  H80      1.0000 0.51480  0.81940  0.73370  Biso   1.000  H
  C69      1.0000 0.53610  0.63110  0.34823  Biso   1.000  C
  C70      1.0000 0.46390  0.13110  0.15177  Biso   1.000  C
  C71      1.0000 0.46390  0.36890  0.65177  Biso   1.000  C
  C72      1.0000 0.53610  0.86890  0.84823  Biso   1.000  C
  H81      1.0000 0.60020  0.68280  0.37400  Biso   1.000  H
  H82      1.0000 0.39980  0.18280  0.12600  Biso   1.000  H
  H83      1.0000 0.39980  0.31720  0.62600  Biso   1.000  H
  H84      1.0000 0.60020  0.81720  0.87400  Biso   1.000  H
  N1       1.0000 0.34410  0.89813  0.01077  Biso   1.000  N
  N2       1.0000 0.65590  0.39813  0.48923  Biso   1.000  N
  N3       1.0000 0.65590  0.10187  0.98923  Biso   1.000  N
  N4       1.0000 0.34410  0.60187  0.51077  Biso   1.000  N
  N5       1.0000 0.22320  0.73793  0.01451  Biso   1.000  N
  N6       1.0000 0.77680  0.23793  0.48549  Biso   1.000  N
  N7       1.0000 0.77680  0.26207  0.98549  Biso   1.000  N
  N8       1.0000 0.22320  0.76207  0.51451  Biso   1.000  N
  N9       1.0000 0.39800  0.54100  0.25714  Biso   1.000  N
  N10      1.0000 0.60200  0.04100  0.24286  Biso   1.000  N
  N11      1.0000 0.60200  0.45900  0.74286  Biso   1.000  N
  N12      1.0000 0.39800  0.95900  0.75714  Biso   1.000  N
  N13      1.0000 0.47480  0.54370  0.38451  Biso   1.000  N
  N14      1.0000 0.52520  0.04370  0.11549  Biso   1.000  N
  N15      1.0000 0.52520  0.45630  0.61549  Biso   1.000  N
  N16      1.0000 0.47480  0.95630  0.88451  Biso   1.000  N
  N17      1.0000 0.90570  0.84080  0.16320  Biso   1.000  N
  N18      1.0000 0.09430  0.34080  0.33680  Biso   1.000  N
  N19      1.0000 0.09430  0.15920  0.83680  Biso   1.000  N
  N20      1.0000 0.90570  0.65920  0.66320  Biso   1.000  N
  N21      1.0000 0.61430  0.49400  0.10500  Biso   1.000  N
  N22      1.0000 0.38570  0.99400  0.39500  Biso   1.000  N
  N23      1.0000 0.38570  0.50600  0.89500  Biso   1.000  N
  N24      1.0000 0.61430  0.00600  0.60500  Biso   1.000  N
  O1       1.0000 0.64910  0.83301  0.03965  Biso   1.000  O
  O2       1.0000 0.35090  0.33301  0.46035  Biso   1.000  O
  O3       1.0000 0.35090  0.16699  0.96035  Biso   1.000  O
  O4       1.0000 0.64910  0.66699  0.53965  Biso   1.000  O
  O5       1.0000 0.83160  0.73880  0.99662  Biso   1.000  O
  O6       1.0000 0.16840  0.23880  0.50338  Biso   1.000  O
  O7       1.0000 0.16840  0.26120  0.00338  Biso   1.000  O
  O8       1.0000 0.83160  0.76120  0.49662  Biso   1.000  O
  O9       1.0000 0.62430  0.63600  0.98594  Biso   1.000  O
  O10      1.0000 0.37570  0.13600  0.51406  Biso   1.000  O
  O11      1.0000 0.37570  0.36400  0.01406  Biso   1.000  O
  O12      1.0000 0.62430  0.86400  0.48594  Biso   1.000  O
  S1       1.0000 0.71501  0.72150  0.02891  Biso   1.000  S
  S2       1.0000 0.28499  0.22150  0.47109  Biso   1.000  S
  S3       1.0000 0.28499  0.27850  0.97109  Biso   1.000  S
  S4       1.0000 0.71501  0.77850  0.52891  Biso   1.000  S
