data_image0
_cell_length_a       9.1123
_cell_length_b       11.2413
_cell_length_c       14.5418
_cell_angle_alpha    69.421
_cell_angle_beta     85.203
_cell_angle_gamma    75.75

_symmetry_space_group_name_H-M    "P 1"
_symmetry_int_tables_number       1

loop_
  _symmetry_equiv_pos_as_xyz
  'x, y, z'

loop_
  _atom_site_label
  _atom_site_occupancy
  _atom_site_fract_x
  _atom_site_fract_y
  _atom_site_fract_z
  _atom_site_thermal_displace_type
  _atom_site_B_iso_or_equiv
  _atom_site_type_symbol
  Cu1      1.0000 0.50000  0.50000  0.50000  Biso   1.000  Cu
  C1       1.0000 0.18990  0.62740  0.40260  Biso   1.000  C
  C2       1.0000 0.81010  0.37260  0.59740  Biso   1.000  C
  H1       1.0000 0.15460  0.55230  0.43470  Biso   1.000  H
  H2       1.0000 0.84540  0.44770  0.56530  Biso   1.000  H
  C3       1.0000 0.10670  0.73920  0.34270  Biso   1.000  C
  C4       1.0000 0.89330  0.26080  0.65730  Biso   1.000  C
  H3       1.0000 0.00510  0.75710  0.32650  Biso   1.000  H
  H4       1.0000 0.99490  0.24290  0.67350  Biso   1.000  H
  C5       1.0000 0.33290  0.75540  0.35440  Biso   1.000  C
  C6       1.0000 0.66710  0.24460  0.64560  Biso   1.000  C
  H5       1.0000 0.41630  0.79210  0.34500  Biso   1.000  H
  H6       1.0000 0.58370  0.20790  0.65500  Biso   1.000  H
  C7       1.0000 0.14430  0.96340  0.26860  Biso   1.000  C
  C8       1.0000 0.85570  0.03660  0.73140  Biso   1.000  C
  C9       1.0000 0.31260  0.07860  0.48440  Biso   1.000  C
  C10      1.0000 0.68740  0.92140  0.51560  Biso   1.000  C
  H7       1.0000 0.33580  0.03200  0.55350  Biso   1.000  H
  H8       1.0000 0.66420  0.96800  0.44650  Biso   1.000  H
  H9       1.0000 0.36200  0.02180  0.44820  Biso   1.000  H
  H10      1.0000 0.63800  0.97820  0.55180  Biso   1.000  H
  C11      1.0000 0.11980  0.98750  0.15820  Biso   1.000  C
  C12      1.0000 0.88020  0.01250  0.84180  Biso   1.000  C
  C13      1.0000 0.12740  0.14510  0.11070  Biso   1.000  C
  C14      1.0000 0.87260  0.85490  0.88930  Biso   1.000  C
  C15      1.0000 0.08870  0.17100  0.01240  Biso   1.000  C
  C16      1.0000 0.91130  0.82900  0.98760  Biso   1.000  C
  H11      1.0000 0.98210  0.17300  0.00990  Biso   1.000  H
  H12      1.0000 0.01790  0.82700  0.99010  Biso   1.000  H
  H13      1.0000 0.14520  0.09900  0.99230  Biso   1.000  H
  H14      1.0000 0.85480  0.90100  0.00770  Biso   1.000  H
  C17      1.0000 0.11790  0.29890  0.93730  Biso   1.000  C
  C18      1.0000 0.88210  0.70110  0.06270  Biso   1.000  C
  H15      1.0000 0.06180  0.37230  0.95580  Biso   1.000  H
  H16      1.0000 0.93820  0.62770  0.04420  Biso   1.000  H
  H17      1.0000 0.22480  0.29760  0.93680  Biso   1.000  H
  H18      1.0000 0.77520  0.70240  0.06320  Biso   1.000  H
  C19      1.0000 0.07040  0.31420  0.83870  Biso   1.000  C
  C20      1.0000 0.92960  0.68580  0.16130  Biso   1.000  C
  H19      1.0000 0.10200  0.23030  0.82940  Biso   1.000  H
  H20      1.0000 0.89800  0.76970  0.17060  Biso   1.000  H
  H21      1.0000 0.96070  0.33960  0.83520  Biso   1.000  H
  H22      1.0000 0.03930  0.66040  0.16480  Biso   1.000  H
  C21      1.0000 0.08200  0.54030  0.72320  Biso   1.000  C
  C22      1.0000 0.91800  0.45970  0.27680  Biso   1.000  C
  H23      1.0000 0.00200  0.59100  0.74680  Biso   1.000  H
  H24      1.0000 0.99800  0.40900  0.25320  Biso   1.000  H
  C23      1.0000 0.25590  0.38330  0.70640  Biso   1.000  C
  C24      1.0000 0.74410  0.61670  0.29360  Biso   1.000  C
  H25      1.0000 0.31540  0.29930  0.71860  Biso   1.000  H
  H26      1.0000 0.68460  0.70070  0.28140  Biso   1.000  H
  C25      1.0000 0.17090  0.58170  0.64740  Biso   1.000  C
  C26      1.0000 0.82910  0.41830  0.35260  Biso   1.000  C
  H27      1.0000 0.15600  0.66800  0.60540  Biso   1.000  H
  H28      1.0000 0.84400  0.33200  0.39460  Biso   1.000  H
  C27      1.0000 0.14340  0.11070  0.46930  Biso   1.000  C
  C28      1.0000 0.85660  0.88930  0.53070  Biso   1.000  C
  H29      1.0000 0.12010  0.15310  0.39980  Biso   1.000  H
  H30      1.0000 0.87990  0.84690  0.60020  Biso   1.000  H
  H31      1.0000 0.09390  0.17060  0.50280  Biso   1.000  H
  H32      1.0000 0.90610  0.82940  0.49720  Biso   1.000  H
  C29      1.0000 0.08420  0.98680  0.50880  Biso   1.000  C
  C30      1.0000 0.91580  0.01320  0.49120  Biso   1.000  C
  H33      1.0000 0.13810  0.92550  0.47750  Biso   1.000  H
  H34      1.0000 0.86190  0.07450  0.52250  Biso   1.000  H
  H35      1.0000 0.10440  0.94680  0.57880  Biso   1.000  H
  H36      1.0000 0.89560  0.05320  0.42120  Biso   1.000  H
  C31      1.0000 0.38720  0.26490  0.50680  Biso   1.000  C
  C32      1.0000 0.61280  0.73510  0.49320  Biso   1.000  C
  H37      1.0000 0.36160  0.24400  0.57290  Biso   1.000  H
  H38      1.0000 0.63840  0.75600  0.42710  Biso   1.000  H
  C33      1.0000 0.42190  0.25480  0.36130  Biso   1.000  C
  C34      1.0000 0.57810  0.74520  0.63870  Biso   1.000  C
  H39      1.0000 0.42510  0.22900  0.30680  Biso   1.000  H
  H40      1.0000 0.57490  0.77100  0.69320  Biso   1.000  H
  C35      1.0000 0.46730  0.35860  0.36570  Biso   1.000  C
  C36      1.0000 0.53270  0.64140  0.63430  Biso   1.000  C
  H41      1.0000 0.50880  0.41640  0.31370  Biso   1.000  H
  H42      1.0000 0.49120  0.58360  0.68630  Biso   1.000  H
  N1       1.0000 0.44390  0.36610  0.45613  Biso   1.000  N
  N2       1.0000 0.55610  0.63390  0.54387  Biso   1.000  N
  N3       1.0000 0.37150  0.19670  0.45136  Biso   1.000  N
  N4       1.0000 0.62850  0.80330  0.54864  Biso   1.000  N
  N5       1.0000 0.33370  0.63860  0.41008  Biso   1.000  N
  N6       1.0000 0.66630  0.36140  0.58992  Biso   1.000  N
  N7       1.0000 0.19910  0.81880  0.31120  Biso   1.000  N
  N8       1.0000 0.80090  0.18120  0.68880  Biso   1.000  N
  N9       1.0000 0.13140  0.41040  0.75860  Biso   1.000  N
  N10      1.0000 0.86860  0.58960  0.24140  Biso   1.000  N
  N11      1.0000 0.28560  0.48400  0.63809  Biso   1.000  N
  N12      1.0000 0.71440  0.51600  0.36191  Biso   1.000  N
  C37      1.0000 0.63490  0.13640  0.12507  Biso   1.000  C
  C38      1.0000 0.36510  0.86360  0.87493  Biso   1.000  C
  C39      1.0000 0.59020  0.16900  0.02950  Biso   1.000  C
  C40      1.0000 0.40980  0.83100  0.97050  Biso   1.000  C
  H43      1.0000 0.54910  0.11180  0.01210  Biso   1.000  H
  H44      1.0000 0.45090  0.88820  0.98790  Biso   1.000  H
  C41      1.0000 0.60570  0.28590  0.95890  Biso   1.000  C
  C42      1.0000 0.39430  0.71410  0.04110  Biso   1.000  C
  C43      1.0000 0.66730  0.37230  0.98420  Biso   1.000  C
  C44      1.0000 0.33270  0.62770  0.01580  Biso   1.000  C
  C45      1.0000 0.71030  0.33780  0.08140  Biso   1.000  C
  C46      1.0000 0.28970  0.66220  0.91860  Biso   1.000  C
  H45      1.0000 0.75090  0.39470  0.09940  Biso   1.000  H
  H46      1.0000 0.24910  0.60530  0.90060  Biso   1.000  H
  C47      1.0000 0.69470  0.22120  0.15220  Biso   1.000  C
  C48      1.0000 0.30530  0.77880  0.84780  Biso   1.000  C
  H47      1.0000 0.72380  0.20020  0.21690  Biso   1.000  H
  H48      1.0000 0.27620  0.79980  0.78310  Biso   1.000  H
  C49      1.0000 0.68560  0.50000  0.90900  Biso   1.000  C
  C50      1.0000 0.31440  0.50000  0.09100  Biso   1.000  C
  H49      1.0000 0.72960  0.54610  0.93970  Biso   1.000  H
  H50      1.0000 0.27040  0.45390  0.06030  Biso   1.000  H
  H51      1.0000 0.58830  0.55200  0.88220  Biso   1.000  H
  H52      1.0000 0.41170  0.44800  0.11780  Biso   1.000  H
  H53      1.0000 0.75060  0.48340  0.85730  Biso   1.000  H
  H54      1.0000 0.24940  0.51660  0.14270  Biso   1.000  H
  N13      1.0000 0.55650  0.31350  0.86350  Biso   1.000  N
  N14      1.0000 0.44350  0.68650  0.13650  Biso   1.000  N
  O1       1.0000 0.75580  0.92540  0.26629  Biso   1.000  O
  O2       1.0000 0.24420  0.07460  0.73371  Biso   1.000  O
  O3       1.0000 0.49310  0.01970  0.27965  Biso   1.000  O
  O4       1.0000 0.50690  0.98030  0.72035  Biso   1.000  O
  O5       1.0000 0.57160  0.91180  0.16266  Biso   1.000  O
  O6       1.0000 0.42840  0.08820  0.83734  Biso   1.000  O
  S1       1.0000 0.61201  0.98686  0.21504  Biso   1.000  S
  S2       1.0000 0.38799  0.01314  0.78496  Biso   1.000  S
  H55      1.0000 0.56000  0.37700  0.82700  Biso   1.000  H
  H56      1.0000 0.44000  0.62300  0.17300  Biso   1.000  H
  C51      1.0000 0.19740  0.92890  0.19330  Biso   1.000  C
  C52      1.0000 0.80260  0.07110  0.80670  Biso   1.000  C
  C53      1.0000 0.12230  0.04060  0.21620  Biso   1.000  C
  C54      1.0000 0.87770  0.95940  0.78380  Biso   1.000  C
