data_image0
_cell_length_a       8.849
_cell_length_b       11.699
_cell_length_c       15.111
_cell_angle_alpha    70.49
_cell_angle_beta     85.952
_cell_angle_gamma    73.763

_symmetry_space_group_name_H-M    "P 1"
_symmetry_int_tables_number       1

loop_
  _symmetry_equiv_pos_as_xyz
  'x, y, z'

loop_
  _atom_site_label
  _atom_site_occupancy
  _atom_site_fract_x
  _atom_site_fract_y
  _atom_site_fract_z
  _atom_site_thermal_displace_type
  _atom_site_B_iso_or_equiv
  _atom_site_type_symbol
  Cu1      1.0000 0.00000  0.00000  0.00000  Biso   1.000  Cu
  C1       1.0000 0.87310  0.72540  0.62050  Biso   1.000  C
  C2       1.0000 0.12690  0.27460  0.37950  Biso   1.000  C
  C3       1.0000 0.81330  0.62200  0.63420  Biso   1.000  C
  C4       1.0000 0.18670  0.37800  0.36580  Biso   1.000  C
  C5       1.0000 0.79250  0.58700  0.55710  Biso   1.000  C
  C6       1.0000 0.20750  0.41300  0.44290  Biso   1.000  C
  C7       1.0000 0.83130  0.65510  0.47010  Biso   1.000  C
  C8       1.0000 0.16870  0.34490  0.52990  Biso   1.000  C
  H1       1.0000 0.81920  0.63020  0.41930  Biso   1.000  H
  H2       1.0000 0.18080  0.36980  0.58070  Biso   1.000  H
  C9       1.0000 0.88750  0.75920  0.45390  Biso   1.000  C
  C10      1.0000 0.11250  0.24080  0.54610  Biso   1.000  C
  C11      1.0000 0.90900  0.79440  0.53050  Biso   1.000  C
  C12      1.0000 0.09100  0.20560  0.46950  Biso   1.000  C
  C13      1.0000 0.72670  0.47700  0.56910  Biso   1.000  C
  C14      1.0000 0.27330  0.52300  0.43090  Biso   1.000  C
  H3       1.0000 0.76620  0.41160  0.62710  Biso   1.000  H
  H4       1.0000 0.23380  0.58840  0.37290  Biso   1.000  H
  H5       1.0000 0.75810  0.44530  0.51770  Biso   1.000  H
  H6       1.0000 0.24190  0.55470  0.48230  Biso   1.000  H
  H7       1.0000 0.61390  0.50420  0.57000  Biso   1.000  H
  H8       1.0000 0.38610  0.49580  0.43000  Biso   1.000  H
  C15      1.0000 0.92710  0.83090  0.35610  Biso   1.000  C
  C16      1.0000 0.07290  0.16910  0.64390  Biso   1.000  C
  H9       1.0000 0.83730  0.85650  0.31490  Biso   1.000  H
  H10      1.0000 0.16270  0.14350  0.68510  Biso   1.000  H
  H11      1.0000 0.01390  0.77770  0.33420  Biso   1.000  H
  H12      1.0000 0.98610  0.22230  0.66580  Biso   1.000  H
  H13      1.0000 0.95520  0.90400  0.35700  Biso   1.000  H
  H14      1.0000 0.04480  0.09600  0.64300  Biso   1.000  H
  C17      1.0000 0.18030  0.86770  0.86680  Biso   1.000  C
  C18      1.0000 0.81970  0.13230  0.13320  Biso   1.000  C
  H15      1.0000 0.09710  0.83700  0.86000  Biso   1.000  H
  H16      1.0000 0.90290  0.16300  0.14000  Biso   1.000  H
  C19      1.0000 0.32050  0.96530  0.90700  Biso   1.000  C
  C20      1.0000 0.67950  0.03470  0.09300  Biso   1.000  C
  H17      1.0000 0.35180  0.01620  0.93390  Biso   1.000  H
  H18      1.0000 0.64820  0.98380  0.06610  Biso   1.000  H
  C21      1.0000 0.41070  0.90310  0.85300  Biso   1.000  C
  C22      1.0000 0.58930  0.09690  0.14700  Biso   1.000  C
  H19      1.0000 0.51410  0.90230  0.83650  Biso   1.000  H
  H20      1.0000 0.48590  0.09770  0.16350  Biso   1.000  H
  C23      1.0000 0.36150  0.76650  0.76370  Biso   1.000  C
  C24      1.0000 0.63850  0.23350  0.23630  Biso   1.000  C
  H21      1.0000 0.27870  0.72700  0.76370  Biso   1.000  H
  H22      1.0000 0.72130  0.27300  0.23630  Biso   1.000  H
  H23      1.0000 0.45770  0.70020  0.78700  Biso   1.000  H
  H24      1.0000 0.54230  0.29980  0.21300  Biso   1.000  H
  C25      1.0000 0.38470  0.84450  0.66500  Biso   1.000  C
  C26      1.0000 0.61530  0.15550  0.33500  Biso   1.000  C
  H25      1.0000 0.48410  0.86520  0.66220  Biso   1.000  H
  H26      1.0000 0.51590  0.13480  0.33780  Biso   1.000  H
  H27      1.0000 0.30140  0.92290  0.64780  Biso   1.000  H
  H28      1.0000 0.69860  0.07710  0.35220  Biso   1.000  H
  C27      1.0000 0.38430  0.77810  0.59450  Biso   1.000  C
  C28      1.0000 0.61570  0.22190  0.40550  Biso   1.000  C
  H29      1.0000 0.28140  0.76470  0.59270  Biso   1.000  H
  H30      1.0000 0.71860  0.23530  0.40730  Biso   1.000  H
  H31      1.0000 0.46090  0.69620  0.61460  Biso   1.000  H
  H32      1.0000 0.53910  0.30380  0.38540  Biso   1.000  H
  C29      1.0000 0.42310  0.85320  0.49660  Biso   1.000  C
  C30      1.0000 0.57690  0.14680  0.50340  Biso   1.000  C
  H33      1.0000 0.36070  0.94010  0.48200  Biso   1.000  H
  H34      1.0000 0.63930  0.05990  0.51800  Biso   1.000  H
  H35      1.0000 0.53320  0.85220  0.49600  Biso   1.000  H
  H36      1.0000 0.46680  0.14780  0.50400  Biso   1.000  H
  C31      1.0000 0.39280  0.80360  0.42100  Biso   1.000  C
  C32      1.0000 0.60720  0.19640  0.57900  Biso   1.000  C
  H37      1.0000 0.45410  0.71640  0.43520  Biso   1.000  H
  H38      1.0000 0.54590  0.28360  0.56480  Biso   1.000  H
  H39      1.0000 0.28230  0.80650  0.41980  Biso   1.000  H
  H40      1.0000 0.71770  0.19350  0.58020  Biso   1.000  H
  C33      1.0000 0.43670  0.88110  0.32620  Biso   1.000  C
  C34      1.0000 0.56330  0.11890  0.67380  Biso   1.000  C
  H41      1.0000 0.39920  0.96950  0.32050  Biso   1.000  H
  H42      1.0000 0.60080  0.03050  0.67950  Biso   1.000  H
  H43      1.0000 0.55060  0.86020  0.32280  Biso   1.000  H
  H44      1.0000 0.44940  0.13980  0.67720  Biso   1.000  H
  C35      1.0000 0.23710  0.93080  0.20200  Biso   1.000  C
  C36      1.0000 0.76290  0.06920  0.79800  Biso   1.000  C
  H45      1.0000 0.16900  0.99690  0.21810  Biso   1.000  H
  H46      1.0000 0.83100  0.00310  0.78190  Biso   1.000  H
  C37      1.0000 0.43710  0.77470  0.20450  Biso   1.000  C
  C38      1.0000 0.56290  0.22530  0.79550  Biso   1.000  C
  H47      1.0000 0.53200  0.71230  0.22040  Biso   1.000  H
  H48      1.0000 0.46800  0.28770  0.77960  Biso   1.000  H
  C39      1.0000 0.33510  0.79590  0.13510  Biso   1.000  C
  C40      1.0000 0.66490  0.20410  0.86490  Biso   1.000  C
  H49      1.0000 0.34910  0.74930  0.09450  Biso   1.000  H
  H50      1.0000 0.65090  0.25070  0.90550  Biso   1.000  H
  C41      1.0000 0.87610  0.78310  0.98620  Biso   1.000  C
  C42      1.0000 0.12390  0.21690  0.01380  Biso   1.000  C
  H51      1.0000 0.84220  0.82300  0.92380  Biso   1.000  H
  H52      1.0000 0.15780  0.17700  0.07620  Biso   1.000  H
  C43      1.0000 0.96910  0.74480  0.12230  Biso   1.000  C
  C44      1.0000 0.03090  0.25520  0.87770  Biso   1.000  C
  H53      1.0000 0.01440  0.75310  0.17270  Biso   1.000  H
  H54      1.0000 0.98560  0.24690  0.82730  Biso   1.000  H
  C45      1.0000 0.92310  0.64410  0.12460  Biso   1.000  C
  C46      1.0000 0.07690  0.35590  0.87540  Biso   1.000  C
  H55      1.0000 0.92880  0.57190  0.17610  Biso   1.000  H
  H56      1.0000 0.07120  0.42810  0.82390  Biso   1.000  H
  C47      1.0000 0.80820  0.58290  0.00550  Biso   1.000  C
  C48      1.0000 0.19180  0.41710  0.99450  Biso   1.000  C
  H57      1.0000 0.87200  0.49730  0.03470  Biso   1.000  H
  H58      1.0000 0.12800  0.50270  0.96530  Biso   1.000  H
  H59      1.0000 0.82070  0.60390  0.93810  Biso   1.000  H
  H60      1.0000 0.17930  0.39610  0.06190  Biso   1.000  H
  C49      1.0000 0.63830  0.58850  0.02730  Biso   1.000  C
  C50      1.0000 0.36170  0.41150  0.97270  Biso   1.000  C
  H61      1.0000 0.57320  0.67350  0.99740  Biso   1.000  H
  H62      1.0000 0.42680  0.32650  0.00260  Biso   1.000  H
  H63      1.0000 0.62460  0.56710  0.09450  Biso   1.000  H
  H64      1.0000 0.37540  0.43290  0.90550  Biso   1.000  H
  C51      1.0000 0.58620  0.49670  0.99210  Biso   1.000  C
  C52      1.0000 0.41380  0.50330  0.00790  Biso   1.000  C
  H65      1.0000 0.60600  0.51550  0.92550  Biso   1.000  H
  H66      1.0000 0.39400  0.48450  0.07450  Biso   1.000  H
  H67      1.0000 0.64880  0.41160  0.02420  Biso   1.000  H
  H68      1.0000 0.35120  0.58840  0.97580  Biso   1.000  H
  N1       1.0000 0.93970  0.83330  0.03535  Biso   1.000  N
  N2       1.0000 0.06030  0.16670  0.96465  Biso   1.000  N
  N3       1.0000 0.86660  0.66780  0.03760  Biso   1.000  N
  N4       1.0000 0.13340  0.33220  0.96240  Biso   1.000  N
  N5       1.0000 0.17450  0.94210  0.91663  Biso   1.000  N
  N6       1.0000 0.82550  0.05790  0.08337  Biso   1.000  N
  N7       1.0000 0.31990  0.84150  0.82726  Biso   1.000  N
  N8       1.0000 0.68010  0.15850  0.17274  Biso   1.000  N
  N9       1.0000 0.37360  0.86270  0.24692  Biso   1.000  N
  N10      1.0000 0.62640  0.13730  0.75308  Biso   1.000  N
  N11      1.0000 0.20820  0.89550  0.13268  Biso   1.000  N
  N12      1.0000 0.79180  0.10450  0.86732  Biso   1.000  N
  N13      1.0000 0.76890  0.55030  0.72130  Biso   1.000  N
  N14      1.0000 0.23110  0.44970  0.27870  Biso   1.000  N
  N15      1.0000 0.96900  0.89820  0.50890  Biso   1.000  N
  N16      1.0000 0.03100  0.10180  0.49110  Biso   1.000  N
  O1       1.0000 0.95680  0.87880  0.68528  Biso   1.000  O
  O2       1.0000 0.04320  0.12120  0.31472  Biso   1.000  O
  O3       1.0000 0.02730  0.66010  0.77660  Biso   1.000  O
  O4       1.0000 0.97270  0.33990  0.22340  Biso   1.000  O
  O5       1.0000 0.72830  0.49710  0.30970  Biso   1.000  O
  O6       1.0000 0.27170  0.50290  0.69030  Biso   1.000  O
  O7       1.0000 0.75900  0.78290  0.76818  Biso   1.000  O
  O8       1.0000 0.24100  0.21710  0.23182  Biso   1.000  O
  S1       1.0000 0.90612  0.76530  0.71961  Biso   1.000  S
  S2       1.0000 0.09388  0.23470  0.28039  Biso   1.000  S
