data_image0
_cell_length_a       10.438
_cell_length_b       10.723
_cell_length_c       14.965
_cell_angle_alpha    107.29
_cell_angle_beta     100.68
_cell_angle_gamma    91.136

_symmetry_space_group_name_H-M    "P 1"
_symmetry_int_tables_number       1

loop_
  _symmetry_equiv_pos_as_xyz
  'x, y, z'

loop_
  _atom_site_label
  _atom_site_occupancy
  _atom_site_fract_x
  _atom_site_fract_y
  _atom_site_fract_z
  _atom_site_thermal_displace_type
  _atom_site_B_iso_or_equiv
  _atom_site_type_symbol
  Cu1      1.0000 0.77053  0.46830  0.21128  Biso   1.000  Cu
  Cu2      1.0000 0.22947  0.53170  0.78872  Biso   1.000  Cu
  C1       1.0000 0.05960  0.01830  0.39320  Biso   1.000  C
  C2       1.0000 0.94040  0.98170  0.60680  Biso   1.000  C
  H1       1.0000 0.00710  0.05780  0.43580  Biso   1.000  H
  H2       1.0000 0.99290  0.94220  0.56420  Biso   1.000  H
  C3       1.0000 0.14440  0.09410  0.36818  Biso   1.000  C
  C4       1.0000 0.85560  0.90590  0.63182  Biso   1.000  C
  C5       1.0000 0.22580  0.03570  0.30230  Biso   1.000  C
  C6       1.0000 0.77420  0.96430  0.69770  Biso   1.000  C
  C7       1.0000 0.31280  0.11050  0.27180  Biso   1.000  C
  C8       1.0000 0.68720  0.88950  0.72820  Biso   1.000  C
  H3       1.0000 0.32010  0.20140  0.29670  Biso   1.000  H
  H4       1.0000 0.67990  0.79860  0.70330  Biso   1.000  H
  C9       1.0000 0.38490  0.05200  0.20720  Biso   1.000  C
  C10      1.0000 0.61510  0.94800  0.79280  Biso   1.000  C
  H5       1.0000 0.44040  0.10300  0.18770  Biso   1.000  H
  H6       1.0000 0.55960  0.89700  0.81230  Biso   1.000  H
  C11      1.0000 0.37700  0.91540  0.16920  Biso   1.000  C
  C12      1.0000 0.62300  0.08460  0.83080  Biso   1.000  C
  H7       1.0000 0.42690  0.87650  0.12450  Biso   1.000  H
  H8       1.0000 0.57310  0.12350  0.87550  Biso   1.000  H
  C13      1.0000 0.29640  0.83850  0.19739  Biso   1.000  C
  C14      1.0000 0.70360  0.16150  0.80261  Biso   1.000  C
  C15      1.0000 0.21620  0.89700  0.26457  Biso   1.000  C
  C16      1.0000 0.78380  0.10300  0.73543  Biso   1.000  C
  C17      1.0000 0.12800  0.82150  0.29350  Biso   1.000  C
  C18      1.0000 0.87200  0.17850  0.70650  Biso   1.000  C
  H9       1.0000 0.12270  0.73050  0.27020  Biso   1.000  H
  H10      1.0000 0.87730  0.26950  0.72980  Biso   1.000  H
  C19      1.0000 0.05110  0.88160  0.35530  Biso   1.000  C
  C20      1.0000 0.94890  0.11840  0.64470  Biso   1.000  C
  H11      1.0000 0.99210  0.83120  0.37240  Biso   1.000  H
  H12      1.0000 0.00790  0.16880  0.62760  Biso   1.000  H
  C21      1.0000 0.55450  0.44260  0.31960  Biso   1.000  C
  C22      1.0000 0.44550  0.55740  0.68040  Biso   1.000  C
  H13      1.0000 0.48960  0.46940  0.27930  Biso   1.000  H
  H14      1.0000 0.51040  0.53060  0.72070  Biso   1.000  H
  C23      1.0000 0.53620  0.40180  0.39340  Biso   1.000  C
  C24      1.0000 0.46380  0.59820  0.60660  Biso   1.000  C
  H15      1.0000 0.45780  0.39540  0.41330  Biso   1.000  H
  H16      1.0000 0.54220  0.60460  0.58670  Biso   1.000  H
  C25      1.0000 0.74090  0.39560  0.38320  Biso   1.000  C
  C26      1.0000 0.25910  0.60440  0.61680  Biso   1.000  C
  H17      1.0000 0.82970  0.38350  0.39610  Biso   1.000  H
  H18      1.0000 0.17030  0.61650  0.60390  Biso   1.000  H
  C27      1.0000 0.68450  0.32220  0.51530  Biso   1.000  C
  C28      1.0000 0.31550  0.67780  0.48470  Biso   1.000  C
  H19      1.0000 0.64980  0.37830  0.56780  Biso   1.000  H
  H20      1.0000 0.35020  0.62170  0.43220  Biso   1.000  H
  H21      1.0000 0.77850  0.32490  0.53600  Biso   1.000  H
  H22      1.0000 0.22150  0.67510  0.46400  Biso   1.000  H
  C29      1.0000 0.62570  0.18240  0.49120  Biso   1.000  C
  C30      1.0000 0.37430  0.81760  0.50880  Biso   1.000  C
  H23      1.0000 0.64040  0.15600  0.54870  Biso   1.000  H
  H24      1.0000 0.35960  0.84400  0.45130  Biso   1.000  H
  H25      1.0000 0.53190  0.17960  0.46910  Biso   1.000  H
  H26      1.0000 0.46810  0.82040  0.53090  Biso   1.000  H
  C31      1.0000 0.87520  0.20110  0.16620  Biso   1.000  C
  C32      1.0000 0.12480  0.79890  0.83380  Biso   1.000  C
  H27      1.0000 0.95920  0.23530  0.19920  Biso   1.000  H
  H28      1.0000 0.04080  0.76470  0.80080  Biso   1.000  H
  C33      1.0000 0.67150  0.18320  0.10650  Biso   1.000  C
  C34      1.0000 0.32850  0.81680  0.89350  Biso   1.000  C
  H29      1.0000 0.58600  0.20390  0.09020  Biso   1.000  H
  H30      1.0000 0.41400  0.79610  0.90980  Biso   1.000  H
  C35      1.0000 0.71290  0.06190  0.08150  Biso   1.000  C
  C36      1.0000 0.28710  0.93810  0.91850  Biso   1.000  C
  H31      1.0000 0.66260  0.98490  0.04510  Biso   1.000  H
  H32      1.0000 0.33740  0.01510  0.95490  Biso   1.000  H
  C37      1.0000 0.93350  0.97050  0.10520  Biso   1.000  C
  C38      1.0000 0.06650  0.02950  0.89480  Biso   1.000  C
  H33      1.0000 0.98920  0.97560  0.16590  Biso   1.000  H
  H34      1.0000 0.01080  0.02440  0.83410  Biso   1.000  H
  H35      1.0000 0.88380  0.88580  0.08130  Biso   1.000  H
  H36      1.0000 0.11620  0.11420  0.91870  Biso   1.000  H
  C39      1.0000 0.01470  0.98080  0.03800  Biso   1.000  C
  C40      1.0000 0.98530  0.01920  0.96200  Biso   1.000  C
  H37      1.0000 0.09120  0.03720  0.07700  Biso   1.000  H
  H38      1.0000 0.90880  0.96280  0.92300  Biso   1.000  H
  H39      1.0000 0.04510  0.89430  0.01550  Biso   1.000  H
  H40      1.0000 0.95490  0.10570  0.98450  Biso   1.000  H
  C41      1.0000 0.69850  0.72860  0.32320  Biso   1.000  C
  C42      1.0000 0.30150  0.27140  0.67680  Biso   1.000  C
  H41      1.0000 0.69110  0.69750  0.37400  Biso   1.000  H
  H42      1.0000 0.30890  0.30250  0.62600  Biso   1.000  H
  C43      1.0000 0.73100  0.74010  0.18870  Biso   1.000  C
  C44      1.0000 0.26900  0.25990  0.81130  Biso   1.000  C
  H43      1.0000 0.75080  0.71750  0.12810  Biso   1.000  H
  H44      1.0000 0.24920  0.28250  0.87190  Biso   1.000  H
  C45      1.0000 0.69590  0.85850  0.23570  Biso   1.000  C
  C46      1.0000 0.30410  0.14150  0.76430  Biso   1.000  C
  H45      1.0000 0.68730  0.93140  0.21400  Biso   1.000  H
  H46      1.0000 0.31270  0.06860  0.78600  Biso   1.000  H
  C47      1.0000 0.62260  0.94830  0.39360  Biso   1.000  C
  C48      1.0000 0.37740  0.05170  0.60640  Biso   1.000  C
  H47      1.0000 0.63650  0.92460  0.45220  Biso   1.000  H
  H48      1.0000 0.36350  0.07540  0.54780  Biso   1.000  H
  H49      1.0000 0.52900  0.94710  0.37160  Biso   1.000  H
  H50      1.0000 0.47100  0.05290  0.62840  Biso   1.000  H
  C49      1.0000 0.68330  0.08580  0.41510  Biso   1.000  C
  C50      1.0000 0.31670  0.91420  0.58490  Biso   1.000  C
  H51      1.0000 0.66810  0.11120  0.35720  Biso   1.000  H
  H52      1.0000 0.33190  0.88880  0.64280  Biso   1.000  H
  H53      1.0000 0.77700  0.08790  0.43700  Biso   1.000  H
  H54      1.0000 0.22300  0.91210  0.56300  Biso   1.000  H
  N1       1.0000 0.68350  0.43850  0.31291  Biso   1.000  N
  N2       1.0000 0.31650  0.56150  0.68709  Biso   1.000  N
  N3       1.0000 0.65540  0.37190  0.43323  Biso   1.000  N
  N4       1.0000 0.34460  0.62810  0.56677  Biso   1.000  N
  N5       1.0000 0.77460  0.27180  0.15968  Biso   1.000  N
  N6       1.0000 0.22540  0.72820  0.84032  Biso   1.000  N
  N7       1.0000 0.84270  0.07440  0.11999  Biso   1.000  N
  N8       1.0000 0.15730  0.92560  0.88001  Biso   1.000  N
  N9       1.0000 0.73320  0.65800  0.24413  Biso   1.000  N
  N10      1.0000 0.26680  0.34200  0.75587  Biso   1.000  N
  N11      1.0000 0.67520  0.84980  0.32162  Biso   1.000  N
  N12      1.0000 0.32480  0.15020  0.67838  Biso   1.000  N
  O1       1.0000 0.05970  0.29060  0.48408  Biso   1.000  O
  O2       1.0000 0.94030  0.70940  0.51592  Biso   1.000  O
  O3       1.0000 0.28810  0.30340  0.47259  Biso   1.000  O
  O4       1.0000 0.71190  0.69660  0.52741  Biso   1.000  O
  O5       1.0000 0.55570  0.43720  0.09271  Biso   1.000  O
  O6       1.0000 0.44430  0.56280  0.90729  Biso   1.000  O
  O7       1.0000 0.12120  0.32350  0.34437  Biso   1.000  O
  O8       1.0000 0.87880  0.67650  0.65563  Biso   1.000  O
  O9       1.0000 0.97990  0.54170  0.33685  Biso   1.000  O
  O10      1.0000 0.02010  0.45830  0.66315  Biso   1.000  O
  O11      1.0000 0.32230  0.61420  0.22643  Biso   1.000  O
  O12      1.0000 0.67770  0.38580  0.77357  Biso   1.000  O
  O13      1.0000 0.16770  0.37040  0.17900  Biso   1.000  O
  O14      1.0000 0.83230  0.62960  0.82100  Biso   1.000  O
  O15      1.0000 0.38980  0.64350  0.08869  Biso   1.000  O
  O16      1.0000 0.61020  0.35650  0.91131  Biso   1.000  O
  O17      1.0000 0.32570  0.25320  0.04340  Biso   1.000  O
  O18      1.0000 0.67430  0.74680  0.95660  Biso   1.000  O
  O19      1.0000 0.15970  0.62470  0.09281  Biso   1.000  O
  O20      1.0000 0.84030  0.37530  0.90719  Biso   1.000  O
  O21      1.0000 0.89090  0.48850  0.12380  Biso   1.000  O
  O22      1.0000 0.10910  0.51150  0.87620  Biso   1.000  O
  S1       1.0000 0.15484  0.26722  0.42253  Biso   1.000  S
  S2       1.0000 0.84516  0.73278  0.57747  Biso   1.000  S
  S3       1.0000 0.29082  0.66612  0.14744  Biso   1.000  S
  S4       1.0000 0.70918  0.33388  0.85256  Biso   1.000  S
  H55      1.0000 0.52700  0.50700  0.10000  Biso   1.000  H
  H56      1.0000 0.47300  0.49300  0.90000  Biso   1.000  H
  H57      1.0000 0.58000  0.41700  0.04400  Biso   1.000  H
  H58      1.0000 0.42000  0.58300  0.95600  Biso   1.000  H
  H59      1.0000 0.96500  0.58200  0.38500  Biso   1.000  H
  H60      1.0000 0.03500  0.41800  0.61500  Biso   1.000  H
  H61      1.0000 0.02000  0.48700  0.34700  Biso   1.000  H
  H62      1.0000 0.98000  0.51300  0.65300  Biso   1.000  H
  H63      1.0000 0.19800  0.44000  0.19000  Biso   1.000  H
  H64      1.0000 0.80200  0.56000  0.81000  Biso   1.000  H
  H65      1.0000 0.18200  0.36100  0.22900  Biso   1.000  H
  H66      1.0000 0.81800  0.63900  0.77100  Biso   1.000  H
  H67      1.0000 0.27700  0.28400  0.08200  Biso   1.000  H
  H68      1.0000 0.72300  0.71600  0.91800  Biso   1.000  H
  H69      1.0000 0.38600  0.31100  0.06500  Biso   1.000  H
  H70      1.0000 0.61400  0.68900  0.93500  Biso   1.000  H
  H71      1.0000 0.93500  0.58100  0.13800  Biso   1.000  H
  H72      1.0000 0.06500  0.41900  0.86200  Biso   1.000  H
  H73      1.0000 0.95800  0.41000  0.10700  Biso   1.000  H
  H74      1.0000 0.04200  0.59000  0.89300  Biso   1.000  H
