data_image0
_cell_length_a       10.3943
_cell_length_b       15.4092
_cell_length_c       18.205
_cell_angle_alpha    90
_cell_angle_beta     104.754
_cell_angle_gamma    90

_symmetry_space_group_name_H-M    "P 1"
_symmetry_int_tables_number       1

loop_
  _symmetry_equiv_pos_as_xyz
  'x, y, z'

loop_
  _atom_site_label
  _atom_site_occupancy
  _atom_site_fract_x
  _atom_site_fract_y
  _atom_site_fract_z
  _atom_site_thermal_displace_type
  _atom_site_B_iso_or_equiv
  _atom_site_type_symbol
  Cu1      1.0000 0.04570  0.87470  0.22120  Biso   1.000  Cu
  Cu2      1.0000 0.04570  0.12530  0.72120  Biso   1.000  Cu
  Cu3      1.0000 0.54570  0.37470  0.22120  Biso   1.000  Cu
  Cu4      1.0000 0.54570  0.62530  0.72120  Biso   1.000  Cu
  Cr1      1.0000 0.57570  0.86330  0.05410  Biso   1.000  Cr
  Cr2      1.0000 0.57570  0.13670  0.55410  Biso   1.000  Cr
  Cr3      1.0000 0.07570  0.36330  0.05410  Biso   1.000  Cr
  Cr4      1.0000 0.07570  0.63670  0.55410  Biso   1.000  Cr
  O1       1.0000 0.74450  0.85780  0.13530  Biso   1.000  O
  O2       1.0000 0.74450  0.14220  0.63530  Biso   1.000  O
  O3       1.0000 0.24450  0.35780  0.13530  Biso   1.000  O
  O4       1.0000 0.24450  0.64220  0.63530  Biso   1.000  O
  O5       1.0000 0.49920  0.86640  0.14280  Biso   1.000  O
  O6       1.0000 0.49920  0.13360  0.64280  Biso   1.000  O
  O7       1.0000 0.99920  0.36640  0.14280  Biso   1.000  O
  O8       1.0000 0.99920  0.63360  0.64280  Biso   1.000  O
  O9       1.0000 0.56390  0.73540  0.04300  Biso   1.000  O
  O10      1.0000 0.56390  0.26460  0.54300  Biso   1.000  O
  O11      1.0000 0.06390  0.23540  0.04300  Biso   1.000  O
  O12      1.0000 0.06390  0.76460  0.54300  Biso   1.000  O
  O13      1.0000 0.40770  0.86060  0.97690  Biso   1.000  O
  O14      1.0000 0.40770  0.13940  0.47690  Biso   1.000  O
  O15      1.0000 0.90770  0.36060  0.97690  Biso   1.000  O
  O16      1.0000 0.90770  0.63940  0.47690  Biso   1.000  O
  O17      1.0000 0.67730  0.87020  0.97580  Biso   1.000  O
  O18      1.0000 0.67730  0.12980  0.47580  Biso   1.000  O
  O19      1.0000 0.17730  0.37020  0.97580  Biso   1.000  O
  O20      1.0000 0.17730  0.62980  0.47580  Biso   1.000  O
  O21      1.0000 0.58570  0.99160  0.04870  Biso   1.000  O
  O22      1.0000 0.58570  0.00840  0.54870  Biso   1.000  O
  O23      1.0000 0.08570  0.49160  0.04870  Biso   1.000  O
  O24      1.0000 0.08570  0.50840  0.54870  Biso   1.000  O
  O25      1.0000 0.55710  0.87370  0.26780  Biso   1.000  O
  O26      1.0000 0.55710  0.12630  0.76780  Biso   1.000  O
  O27      1.0000 0.05710  0.37370  0.26780  Biso   1.000  O
  O28      1.0000 0.05710  0.62630  0.76780  Biso   1.000  O
  O29      1.0000 0.82100  0.87720  0.25950  Biso   1.000  O
  O30      1.0000 0.82100  0.12280  0.75950  Biso   1.000  O
  O31      1.0000 0.32100  0.37720  0.25950  Biso   1.000  O
  O32      1.0000 0.32100  0.62280  0.75950  Biso   1.000  O
  O33      1.0000 0.27670  0.76820  0.89730  Biso   1.000  O
  O34      1.0000 0.27670  0.23180  0.39730  Biso   1.000  O
  O35      1.0000 0.77670  0.26820  0.89730  Biso   1.000  O
  O36      1.0000 0.77670  0.73180  0.39730  Biso   1.000  O
  O37      1.0000 0.44940  0.63810  0.96200  Biso   1.000  O
  O38      1.0000 0.44940  0.36190  0.46200  Biso   1.000  O
  O39      1.0000 0.94940  0.13810  0.96200  Biso   1.000  O
  O40      1.0000 0.94940  0.86190  0.46200  Biso   1.000  O
  O41      1.0000 0.73880  0.96700  0.90010  Biso   1.000  O
  O42      1.0000 0.73880  0.03300  0.40010  Biso   1.000  O
  O43      1.0000 0.23880  0.46700  0.90010  Biso   1.000  O
  O44      1.0000 0.23880  0.53300  0.40010  Biso   1.000  O
  O45      1.0000 0.63780  0.09500  0.97800  Biso   1.000  O
  O46      1.0000 0.63780  0.90500  0.47800  Biso   1.000  O
  O47      1.0000 0.13780  0.59500  0.97800  Biso   1.000  O
  O48      1.0000 0.13780  0.40500  0.47800  Biso   1.000  O
  N1       1.0000 0.04260  0.00230  0.21010  Biso   1.000  N
  N2       1.0000 0.04260  0.99770  0.71010  Biso   1.000  N
  N3       1.0000 0.54260  0.50230  0.21010  Biso   1.000  N
  N4       1.0000 0.54260  0.49770  0.71010  Biso   1.000  N
  N5       1.0000 0.11970  0.87670  0.33490  Biso   1.000  N
  N6       1.0000 0.11970  0.12330  0.83490  Biso   1.000  N
  N7       1.0000 0.61970  0.37670  0.33490  Biso   1.000  N
  N8       1.0000 0.61970  0.62330  0.83490  Biso   1.000  N
  N9       1.0000 0.05170  0.74710  0.23060  Biso   1.000  N
  N10      1.0000 0.05170  0.25290  0.73060  Biso   1.000  N
  N11      1.0000 0.55170  0.24710  0.23060  Biso   1.000  N
  N12      1.0000 0.55170  0.75290  0.73060  Biso   1.000  N
  N13      1.0000 0.00200  0.87260  0.10710  Biso   1.000  N
  N14      1.0000 0.00200  0.12740  0.60710  Biso   1.000  N
  N15      1.0000 0.50200  0.37260  0.10710  Biso   1.000  N
  N16      1.0000 0.50200  0.62740  0.60710  Biso   1.000  N
  C1       1.0000 0.08590  0.72090  0.31170  Biso   1.000  C
  C2       1.0000 0.08590  0.27910  0.81170  Biso   1.000  C
  C3       1.0000 0.58590  0.22090  0.31170  Biso   1.000  C
  C4       1.0000 0.58590  0.77910  0.81170  Biso   1.000  C
  C5       1.0000 0.18320  0.79230  0.35760  Biso   1.000  C
  C6       1.0000 0.18320  0.20770  0.85760  Biso   1.000  C
  C7       1.0000 0.68320  0.29230  0.35760  Biso   1.000  C
  C8       1.0000 0.68320  0.70770  0.85760  Biso   1.000  C
  C9       1.0000 0.99490  0.02720  0.12970  Biso   1.000  C
  C10      1.0000 0.99490  0.97280  0.62970  Biso   1.000  C
  C11      1.0000 0.49490  0.52720  0.12970  Biso   1.000  C
  C12      1.0000 0.49490  0.47280  0.62970  Biso   1.000  C
  C13      1.0000 0.04030  0.95920  0.08400  Biso   1.000  C
  C14      1.0000 0.04030  0.04080  0.58400  Biso   1.000  C
  C15      1.0000 0.54030  0.45920  0.08400  Biso   1.000  C
  C16      1.0000 0.54030  0.54080  0.58400  Biso   1.000  C
  C17      1.0000 0.01160  0.69170  0.17960  Biso   1.000  C
  C18      1.0000 0.01160  0.30830  0.67960  Biso   1.000  C
  C19      1.0000 0.51160  0.19170  0.17960  Biso   1.000  C
  C20      1.0000 0.51160  0.80830  0.67960  Biso   1.000  C
  C21      1.0000 0.98180  0.71750  0.09580  Biso   1.000  C
  C22      1.0000 0.98180  0.28250  0.59580  Biso   1.000  C
  C23      1.0000 0.48180  0.21750  0.09580  Biso   1.000  C
  C24      1.0000 0.48180  0.78250  0.59580  Biso   1.000  C
  C25      1.0000 0.04880  0.79470  0.07330  Biso   1.000  C
  C26      1.0000 0.04880  0.20530  0.57330  Biso   1.000  C
  C27      1.0000 0.54880  0.29470  0.07330  Biso   1.000  C
  C28      1.0000 0.54880  0.70530  0.57330  Biso   1.000  C
  C29      1.0000 0.05360  0.05660  0.26460  Biso   1.000  C
  C30      1.0000 0.05360  0.94340  0.76460  Biso   1.000  C
  C31      1.0000 0.55360  0.55660  0.26460  Biso   1.000  C
  C32      1.0000 0.55360  0.44340  0.76460  Biso   1.000  C
  C33      1.0000 0.10540  0.03530  0.34620  Biso   1.000  C
  C34      1.0000 0.10540  0.96470  0.84620  Biso   1.000  C
  C35      1.0000 0.60540  0.53530  0.34620  Biso   1.000  C
  C36      1.0000 0.60540  0.46470  0.84620  Biso   1.000  C
  C37      1.0000 0.20010  0.95440  0.36610  Biso   1.000  C
  C38      1.0000 0.20010  0.04560  0.86610  Biso   1.000  C
  C39      1.0000 0.70010  0.45440  0.36610  Biso   1.000  C
  C40      1.0000 0.70010  0.54560  0.86610  Biso   1.000  C
  C41      1.0000 0.20180  0.78680  0.09790  Biso   1.000  C
  C42      1.0000 0.20180  0.21320  0.59790  Biso   1.000  C
  C43      1.0000 0.70180  0.28680  0.09790  Biso   1.000  C
  C44      1.0000 0.70180  0.71320  0.59790  Biso   1.000  C
  C45      1.0000 0.00700  0.79990  0.98490  Biso   1.000  C
  C46      1.0000 0.00700  0.20010  0.48490  Biso   1.000  C
  C47      1.0000 0.50700  0.29990  0.98490  Biso   1.000  C
  C48      1.0000 0.50700  0.70010  0.48490  Biso   1.000  C
  C49      1.0000 0.98420  0.59790  0.19360  Biso   1.000  C
  C50      1.0000 0.98420  0.40210  0.69360  Biso   1.000  C
  C51      1.0000 0.48420  0.09790  0.19360  Biso   1.000  C
  C52      1.0000 0.48420  0.90210  0.69360  Biso   1.000  C
  C53      1.0000 0.31870  0.96290  0.33430  Biso   1.000  C
  C54      1.0000 0.31870  0.03710  0.83430  Biso   1.000  C
  C55      1.0000 0.81870  0.46290  0.33430  Biso   1.000  C
  C56      1.0000 0.81870  0.53710  0.83430  Biso   1.000  C
  C57      1.0000 0.24820  0.94700  0.45290  Biso   1.000  C
  C58      1.0000 0.24820  0.05300  0.95290  Biso   1.000  C
  C59      1.0000 0.74820  0.44700  0.45290  Biso   1.000  C
  C60      1.0000 0.74820  0.55300  0.95290  Biso   1.000  C
  C61      1.0000 0.01120  0.15130  0.25330  Biso   1.000  C
  C62      1.0000 0.01120  0.84870  0.75330  Biso   1.000  C
  C63      1.0000 0.51120  0.65130  0.25330  Biso   1.000  C
  C64      1.0000 0.51120  0.34870  0.75330  Biso   1.000  C
  C65      1.0000 0.58190  0.87020  0.20650  Biso   1.000  C
  C66      1.0000 0.58190  0.12980  0.70650  Biso   1.000  C
  C67      1.0000 0.08190  0.37020  0.20650  Biso   1.000  C
  C68      1.0000 0.08190  0.62980  0.70650  Biso   1.000  C
  C69      1.0000 0.72890  0.86850  0.20230  Biso   1.000  C
  C70      1.0000 0.72890  0.13150  0.70230  Biso   1.000  C
  C71      1.0000 0.22890  0.36850  0.20230  Biso   1.000  C
  C72      1.0000 0.22890  0.63150  0.70230  Biso   1.000  C
  C73      1.0000 0.68850  0.94730  0.95180  Biso   1.000  C
  C74      1.0000 0.68850  0.05270  0.45180  Biso   1.000  C
  C75      1.0000 0.18850  0.44730  0.95180  Biso   1.000  C
  C76      1.0000 0.18850  0.55270  0.45180  Biso   1.000  C
  C77      1.0000 0.63040  0.02000  0.99540  Biso   1.000  C
  C78      1.0000 0.63040  0.98000  0.49540  Biso   1.000  C
  C79      1.0000 0.13040  0.52000  0.99540  Biso   1.000  C
  C80      1.0000 0.13040  0.48000  0.49540  Biso   1.000  C
  C81      1.0000 0.37260  0.78450  0.94940  Biso   1.000  C
  C82      1.0000 0.37260  0.21550  0.44940  Biso   1.000  C
  C83      1.0000 0.87260  0.28450  0.94940  Biso   1.000  C
  C84      1.0000 0.87260  0.71550  0.44940  Biso   1.000  C
  C85      1.0000 0.47010  0.71180  0.98710  Biso   1.000  C
  C86      1.0000 0.47010  0.28820  0.48710  Biso   1.000  C
  C87      1.0000 0.97010  0.21180  0.98710  Biso   1.000  C
  C88      1.0000 0.97010  0.78820  0.48710  Biso   1.000  C
  K1       1.0000 0.73670  0.88180  0.37480  Biso   1.000  K
  K2       1.0000 0.73670  0.11820  0.87480  Biso   1.000  K
  K3       1.0000 0.23670  0.38180  0.37480  Biso   1.000  K
  K4       1.0000 0.23670  0.61820  0.87480  Biso   1.000  K
  H1       1.0000 0.04090  0.88090  0.30540  Biso   1.000  H
  H2       1.0000 0.04090  0.11910  0.80540  Biso   1.000  H
  H3       1.0000 0.54090  0.38090  0.30540  Biso   1.000  H
  H4       1.0000 0.54090  0.61910  0.80540  Biso   1.000  H
  H5       1.0000 0.95420  0.86760  0.13910  Biso   1.000  H
  H6       1.0000 0.95420  0.13240  0.63910  Biso   1.000  H
  H7       1.0000 0.45420  0.36760  0.13910  Biso   1.000  H
  H8       1.0000 0.45420  0.63240  0.63910  Biso   1.000  H
  H9       1.0000 0.12890  0.66460  0.31800  Biso   1.000  H
  H10      1.0000 0.12890  0.33540  0.81800  Biso   1.000  H
  H11      1.0000 0.62890  0.16460  0.31800  Biso   1.000  H
  H12      1.0000 0.62890  0.83540  0.81800  Biso   1.000  H
  H13      1.0000 0.00600  0.71730  0.32990  Biso   1.000  H
  H14      1.0000 0.00600  0.28270  0.82990  Biso   1.000  H
  H15      1.0000 0.50600  0.21730  0.32990  Biso   1.000  H
  H16      1.0000 0.50600  0.78270  0.82990  Biso   1.000  H
  H17      1.0000 0.19690  0.78350  0.41180  Biso   1.000  H
  H18      1.0000 0.19690  0.21650  0.91180  Biso   1.000  H
  H19      1.0000 0.69690  0.28350  0.41180  Biso   1.000  H
  H20      1.0000 0.69690  0.71650  0.91180  Biso   1.000  H
  H21      1.0000 0.26870  0.78940  0.34550  Biso   1.000  H
  H22      1.0000 0.26870  0.21060  0.84550  Biso   1.000  H
  H23      1.0000 0.76870  0.28940  0.34550  Biso   1.000  H
  H24      1.0000 0.76870  0.71060  0.84550  Biso   1.000  H
  H25      1.0000 0.03090  0.08320  0.12110  Biso   1.000  H
  H26      1.0000 0.03090  0.91680  0.62110  Biso   1.000  H
  H27      1.0000 0.53090  0.58320  0.12110  Biso   1.000  H
  H28      1.0000 0.53090  0.41680  0.62110  Biso   1.000  H
  H29      1.0000 0.89850  0.03100  0.11540  Biso   1.000  H
  H30      1.0000 0.89850  0.96900  0.61540  Biso   1.000  H
  H31      1.0000 0.39850  0.53100  0.11540  Biso   1.000  H
  H32      1.0000 0.39850  0.46900  0.61540  Biso   1.000  H
  H33      1.0000 0.99970  0.96850  0.03040  Biso   1.000  H
  H34      1.0000 0.99970  0.03150  0.53040  Biso   1.000  H
  H35      1.0000 0.49970  0.46850  0.03040  Biso   1.000  H
  H36      1.0000 0.49970  0.53150  0.53040  Biso   1.000  H
  H37      1.0000 0.13610  0.96230  0.09220  Biso   1.000  H
  H38      1.0000 0.13610  0.03770  0.59220  Biso   1.000  H
  H39      1.0000 0.63610  0.46230  0.09220  Biso   1.000  H
  H40      1.0000 0.63610  0.53770  0.59220  Biso   1.000  H
  H41      1.0000 0.00300  0.66800  0.06810  Biso   1.000  H
  H42      1.0000 0.00300  0.33200  0.56810  Biso   1.000  H
  H43      1.0000 0.50300  0.16800  0.06810  Biso   1.000  H
  H44      1.0000 0.50300  0.83200  0.56810  Biso   1.000  H
  H45      1.0000 0.88660  0.72680  0.07820  Biso   1.000  H
  H46      1.0000 0.88660  0.27320  0.57820  Biso   1.000  H
  H47      1.0000 0.38660  0.22680  0.07820  Biso   1.000  H
  H48      1.0000 0.38660  0.77320  0.57820  Biso   1.000  H
  H49      1.0000 0.03000  0.02580  0.36750  Biso   1.000  H
  H50      1.0000 0.03000  0.97420  0.86750  Biso   1.000  H
  H51      1.0000 0.53000  0.52580  0.36750  Biso   1.000  H
  H52      1.0000 0.53000  0.47420  0.86750  Biso   1.000  H
  H53      1.0000 0.15300  0.08560  0.37150  Biso   1.000  H
  H54      1.0000 0.15300  0.91440  0.87150  Biso   1.000  H
  H55      1.0000 0.65300  0.58560  0.37150  Biso   1.000  H
  H56      1.0000 0.65300  0.41440  0.87150  Biso   1.000  H
  H57      1.0000 0.24100  0.83800  0.08270  Biso   1.000  H
  H58      1.0000 0.24100  0.16200  0.58270  Biso   1.000  H
  H59      1.0000 0.74100  0.33800  0.08270  Biso   1.000  H
  H60      1.0000 0.74100  0.66200  0.58270  Biso   1.000  H
  H61      1.0000 0.22910  0.73690  0.07430  Biso   1.000  H
  H62      1.0000 0.22910  0.26310  0.57430  Biso   1.000  H
  H63      1.0000 0.72910  0.23690  0.07430  Biso   1.000  H
  H64      1.0000 0.72910  0.76310  0.57430  Biso   1.000  H
  H65      1.0000 0.23040  0.78080  0.15210  Biso   1.000  H
  H66      1.0000 0.23040  0.21920  0.65210  Biso   1.000  H
  H67      1.0000 0.73040  0.28080  0.15210  Biso   1.000  H
  H68      1.0000 0.73040  0.71920  0.65210  Biso   1.000  H
  H69      1.0000 0.04820  0.84950  0.96850  Biso   1.000  H
  H70      1.0000 0.04820  0.15050  0.46850  Biso   1.000  H
  H71      1.0000 0.54820  0.34950  0.96850  Biso   1.000  H
  H72      1.0000 0.54820  0.65050  0.46850  Biso   1.000  H
  H73      1.0000 0.91200  0.80530  0.96780  Biso   1.000  H
  H74      1.0000 0.91200  0.19470  0.46780  Biso   1.000  H
  H75      1.0000 0.41200  0.30530  0.96780  Biso   1.000  H
  H76      1.0000 0.41200  0.69470  0.46780  Biso   1.000  H
  H77      1.0000 0.03490  0.74820  0.96400  Biso   1.000  H
  H78      1.0000 0.03490  0.25180  0.46400  Biso   1.000  H
  H79      1.0000 0.53490  0.24820  0.96400  Biso   1.000  H
  H80      1.0000 0.53490  0.75180  0.46400  Biso   1.000  H
  H81      1.0000 0.00520  0.58720  0.24730  Biso   1.000  H
  H82      1.0000 0.00520  0.41280  0.74730  Biso   1.000  H
  H83      1.0000 0.50520  0.08720  0.24730  Biso   1.000  H
  H84      1.0000 0.50520  0.91280  0.74730  Biso   1.000  H
  H85      1.0000 0.03810  0.56130  0.17080  Biso   1.000  H
  H86      1.0000 0.03810  0.43870  0.67080  Biso   1.000  H
  H87      1.0000 0.53810  0.06130  0.17080  Biso   1.000  H
  H88      1.0000 0.53810  0.93870  0.67080  Biso   1.000  H
  H89      1.0000 0.89190  0.58540  0.17170  Biso   1.000  H
  H90      1.0000 0.89190  0.41460  0.67170  Biso   1.000  H
  H91      1.0000 0.39190  0.08540  0.17170  Biso   1.000  H
  H92      1.0000 0.39190  0.91460  0.67170  Biso   1.000  H
  H93      1.0000 0.37380  0.91230  0.34720  Biso   1.000  H
  H94      1.0000 0.37380  0.08770  0.84720  Biso   1.000  H
  H95      1.0000 0.87380  0.41230  0.34720  Biso   1.000  H
  H96      1.0000 0.87380  0.58770  0.84720  Biso   1.000  H
  H97      1.0000 0.36860  0.01350  0.35510  Biso   1.000  H
  H98      1.0000 0.36860  0.98650  0.85510  Biso   1.000  H
  H99      1.0000 0.86860  0.51350  0.35510  Biso   1.000  H
  H100     1.0000 0.86860  0.48650  0.85510  Biso   1.000  H
  H101     1.0000 0.28980  0.96820  0.28000  Biso   1.000  H
  H102     1.0000 0.28980  0.03180  0.78000  Biso   1.000  H
  H103     1.0000 0.78980  0.46820  0.28000  Biso   1.000  H
  H104     1.0000 0.78980  0.53180  0.78000  Biso   1.000  H
  H105     1.0000 0.17290  0.94030  0.47390  Biso   1.000  H
  H106     1.0000 0.17290  0.05970  0.97390  Biso   1.000  H
  H107     1.0000 0.67290  0.44030  0.47390  Biso   1.000  H
  H108     1.0000 0.67290  0.55970  0.97390  Biso   1.000  H
  H109     1.0000 0.29610  0.99860  0.47310  Biso   1.000  H
  H110     1.0000 0.29610  0.00140  0.97310  Biso   1.000  H
  H111     1.0000 0.79610  0.49860  0.47310  Biso   1.000  H
  H112     1.0000 0.79610  0.50140  0.97310  Biso   1.000  H
  H113     1.0000 0.30550  0.89750  0.46600  Biso   1.000  H
  H114     1.0000 0.30550  0.10250  0.96600  Biso   1.000  H
  H115     1.0000 0.80550  0.39750  0.46600  Biso   1.000  H
  H116     1.0000 0.80550  0.60250  0.96600  Biso   1.000  H
  H117     1.0000 0.97680  0.16280  0.20000  Biso   1.000  H
  H118     1.0000 0.97680  0.83720  0.70000  Biso   1.000  H
  H119     1.0000 0.47680  0.66280  0.20000  Biso   1.000  H
  H120     1.0000 0.47680  0.33720  0.70000  Biso   1.000  H
  H121     1.0000 0.08660  0.18810  0.27330  Biso   1.000  H
  H122     1.0000 0.08660  0.81190  0.77330  Biso   1.000  H
  H123     1.0000 0.58660  0.68810  0.27330  Biso   1.000  H
  H124     1.0000 0.58660  0.31190  0.77330  Biso   1.000  H
  H125     1.0000 0.94350  0.16280  0.27930  Biso   1.000  H
  H126     1.0000 0.94350  0.83720  0.77930  Biso   1.000  H
  H127     1.0000 0.44350  0.66280  0.27930  Biso   1.000  H
  H128     1.0000 0.44350  0.33720  0.77930  Biso   1.000  H
