data_image0
_cell_length_a       8.239
_cell_length_b       8.805
_cell_length_c       9.558
_cell_angle_alpha    104.645
_cell_angle_beta     106
_cell_angle_gamma    102.841

_symmetry_space_group_name_H-M    "P 1"
_symmetry_int_tables_number       1

loop_
  _symmetry_equiv_pos_as_xyz
  'x, y, z'

loop_
  _atom_site_label
  _atom_site_occupancy
  _atom_site_fract_x
  _atom_site_fract_y
  _atom_site_fract_z
  _atom_site_thermal_displace_type
  _atom_site_B_iso_or_equiv
  _atom_site_type_symbol
  Cu1      1.0000 0.59782  0.74480  0.74579  Biso   1.000  Cu
  Cu2      1.0000 0.40218  0.25520  0.25421  Biso   1.000  Cu
  P1       1.0000 0.71490  0.46230  0.58010  Biso   1.000  P
  P2       1.0000 0.28510  0.53770  0.41990  Biso   1.000  P
  O1       1.0000 0.70260  0.57060  0.72410  Biso   1.000  O
  O2       1.0000 0.29740  0.42940  0.27590  Biso   1.000  O
  O3       1.0000 0.54660  0.33200  0.46790  Biso   1.000  O
  O4       1.0000 0.45340  0.66800  0.53210  Biso   1.000  O
  O5       1.0000 0.79350  0.57830  0.49910  Biso   1.000  O
  O6       1.0000 0.20650  0.42170  0.50090  Biso   1.000  O
  H1       1.0000 0.80700  0.55400  0.41200  Biso   1.000  H
  H2       1.0000 0.19300  0.44600  0.58800  Biso   1.000  H
  O7       1.0000 0.84610  0.36560  0.62800  Biso   1.000  O
  O8       1.0000 0.15390  0.63440  0.37200  Biso   1.000  O
  H3       1.0000 0.93600  0.43600  0.70200  Biso   1.000  H
  H4       1.0000 0.06400  0.56400  0.29800  Biso   1.000  H
  O9       1.0000 0.65040  0.39680  0.20400  Biso   1.000  O
  O10      1.0000 0.34960  0.60320  0.79600  Biso   1.000  O
  O11      1.0000 0.88170  0.45490  0.12950  Biso   1.000  O
  O12      1.0000 0.11830  0.54510  0.87050  Biso   1.000  O
  N1       1.0000 0.76310  0.86170  0.96190  Biso   1.000  N
  N2       1.0000 0.23690  0.13830  0.03810  Biso   1.000  N
  N3       1.0000 0.55660  0.96350  0.78100  Biso   1.000  N
  N4       1.0000 0.44340  0.03650  0.21900  Biso   1.000  N
  C1       1.0000 0.86640  0.79370  0.04510  Biso   1.000  C
  C2       1.0000 0.13360  0.20630  0.95490  Biso   1.000  C
  H5       1.0000 0.86310  0.68580  0.99960  Biso   1.000  H
  H6       1.0000 0.13690  0.31420  0.00040  Biso   1.000  H
  C3       1.0000 0.97640  0.87910  0.19530  Biso   1.000  C
  C4       1.0000 0.02360  0.12090  0.80470  Biso   1.000  C
  H7       1.0000 0.05080  0.83140  0.24880  Biso   1.000  H
  H8       1.0000 0.94920  0.16860  0.75120  Biso   1.000  H
  C5       1.0000 0.97590  0.03490  0.26590  Biso   1.000  C
  C6       1.0000 0.02410  0.96510  0.73410  Biso   1.000  C
  H9       1.0000 0.04670  0.09270  0.36880  Biso   1.000  H
  H10      1.0000 0.95330  0.90730  0.63120  Biso   1.000  H
  C7       1.0000 0.86850  0.10510  0.18180  Biso   1.000  C
  C8       1.0000 0.13150  0.89490  0.81820  Biso   1.000  C
  H11      1.0000 0.86720  0.21120  0.22750  Biso   1.000  H
  H12      1.0000 0.13280  0.78880  0.77250  Biso   1.000  H
  C9       1.0000 0.76260  0.01610  0.02870  Biso   1.000  C
  C10      1.0000 0.23740  0.98390  0.97130  Biso   1.000  C
  C11      1.0000 0.64840  0.07560  0.92430  Biso   1.000  C
  C12      1.0000 0.35160  0.92440  0.07570  Biso   1.000  C
  C13      1.0000 0.63140  0.23480  0.95850  Biso   1.000  C
  C14      1.0000 0.36860  0.76520  0.04150  Biso   1.000  C
  C15      1.0000 0.51880  0.27190  0.84170  Biso   1.000  C
  C16      1.0000 0.48120  0.72810  0.15830  Biso   1.000  C
  H13      1.0000 0.50650  0.37700  0.86140  Biso   1.000  H
  H14      1.0000 0.49350  0.62300  0.13860  Biso   1.000  H
  C17      1.0000 0.42720  0.15560  0.69990  Biso   1.000  C
  C18      1.0000 0.57280  0.84440  0.30010  Biso   1.000  C
  H15      1.0000 0.35130  0.17950  0.62250  Biso   1.000  H
  H16      1.0000 0.64870  0.82050  0.37750  Biso   1.000  H
  C19      1.0000 0.44890  0.00240  0.67330  Biso   1.000  C
  C20      1.0000 0.55110  0.99760  0.32670  Biso   1.000  C
  H17      1.0000 0.38610  0.92250  0.57640  Biso   1.000  H
  H18      1.0000 0.61390  0.07750  0.42360  Biso   1.000  H
  C21      1.0000 0.72850  0.37250  0.10980  Biso   1.000  C
  C22      1.0000 0.27150  0.62750  0.89020  Biso   1.000  C
