data_image0
_cell_length_a       26.892
_cell_length_b       10.479
_cell_length_c       14.179
_cell_angle_alpha    90
_cell_angle_beta     98.59
_cell_angle_gamma    90

_symmetry_space_group_name_H-M    "P 1"
_symmetry_int_tables_number       1

loop_
  _symmetry_equiv_pos_as_xyz
  'x, y, z'

loop_
  _atom_site_label
  _atom_site_occupancy
  _atom_site_fract_x
  _atom_site_fract_y
  _atom_site_fract_z
  _atom_site_thermal_displace_type
  _atom_site_B_iso_or_equiv
  _atom_site_type_symbol
  Cu1      1.0000 0.85570  0.48550  0.63181  Biso   1.000  Cu
  Cu2      1.0000 0.14430  0.48550  0.86819  Biso   1.000  Cu
  Cu3      1.0000 0.35570  0.98550  0.63181  Biso   1.000  Cu
  Cu4      1.0000 0.64430  0.98550  0.86819  Biso   1.000  Cu
  Cu5      1.0000 0.14430  0.51450  0.36819  Biso   1.000  Cu
  Cu6      1.0000 0.85570  0.51450  0.13181  Biso   1.000  Cu
  Cu7      1.0000 0.64430  0.01450  0.36819  Biso   1.000  Cu
  Cu8      1.0000 0.35570  0.01450  0.13181  Biso   1.000  Cu
  O1       1.0000 0.82180  0.63770  0.67070  Biso   1.000  O
  O2       1.0000 0.17820  0.63770  0.82930  Biso   1.000  O
  O3       1.0000 0.32180  0.13770  0.67070  Biso   1.000  O
  O4       1.0000 0.67820  0.13770  0.82930  Biso   1.000  O
  O5       1.0000 0.17820  0.36230  0.32930  Biso   1.000  O
  O6       1.0000 0.82180  0.36230  0.17070  Biso   1.000  O
  O7       1.0000 0.67820  0.86230  0.32930  Biso   1.000  O
  O8       1.0000 0.32180  0.86230  0.17070  Biso   1.000  O
  O9       1.0000 0.84900  0.59100  0.82380  Biso   1.000  O
  O10      1.0000 0.15100  0.59100  0.67620  Biso   1.000  O
  O11      1.0000 0.34900  0.09100  0.82380  Biso   1.000  O
  O12      1.0000 0.65100  0.09100  0.67620  Biso   1.000  O
  O13      1.0000 0.15100  0.40900  0.17620  Biso   1.000  O
  O14      1.0000 0.84900  0.40900  0.32380  Biso   1.000  O
  O15      1.0000 0.65100  0.90900  0.17620  Biso   1.000  O
  O16      1.0000 0.34900  0.90900  0.32380  Biso   1.000  O
  O17      1.0000 0.82130  0.53300  0.47970  Biso   1.000  O
  O18      1.0000 0.17870  0.53300  0.02030  Biso   1.000  O
  O19      1.0000 0.32130  0.03300  0.47970  Biso   1.000  O
  O20      1.0000 0.67870  0.03300  0.02030  Biso   1.000  O
  O21      1.0000 0.17870  0.46700  0.52030  Biso   1.000  O
  O22      1.0000 0.82130  0.46700  0.97970  Biso   1.000  O
  O23      1.0000 0.67870  0.96700  0.52030  Biso   1.000  O
  O24      1.0000 0.32130  0.96700  0.97970  Biso   1.000  O
  N1       1.0000 0.89860  0.32810  0.61700  Biso   1.000  N
  N2       1.0000 0.10140  0.32810  0.88300  Biso   1.000  N
  N3       1.0000 0.39860  0.82810  0.61700  Biso   1.000  N
  N4       1.0000 0.60140  0.82810  0.88300  Biso   1.000  N
  N5       1.0000 0.10140  0.67190  0.38300  Biso   1.000  N
  N6       1.0000 0.89860  0.67190  0.11700  Biso   1.000  N
  N7       1.0000 0.60140  0.17190  0.38300  Biso   1.000  N
  N8       1.0000 0.39860  0.17190  0.11700  Biso   1.000  N
  N9       1.0000 0.92180  0.57510  0.62910  Biso   1.000  N
  N10      1.0000 0.07820  0.57510  0.87090  Biso   1.000  N
  N11      1.0000 0.42180  0.07510  0.62910  Biso   1.000  N
  N12      1.0000 0.57820  0.07510  0.87090  Biso   1.000  N
  N13      1.0000 0.07820  0.42490  0.37090  Biso   1.000  N
  N14      1.0000 0.92180  0.42490  0.12910  Biso   1.000  N
  N15      1.0000 0.57820  0.92490  0.37090  Biso   1.000  N
  N16      1.0000 0.42180  0.92490  0.12910  Biso   1.000  N
  N17      1.0000 0.70240  0.87970  0.83860  Biso   1.000  N
  N18      1.0000 0.29760  0.87970  0.66140  Biso   1.000  N
  N19      1.0000 0.20240  0.37970  0.83860  Biso   1.000  N
  N20      1.0000 0.79760  0.37970  0.66140  Biso   1.000  N
  N21      1.0000 0.29760  0.12030  0.16140  Biso   1.000  N
  N22      1.0000 0.70240  0.12030  0.33860  Biso   1.000  N
  N23      1.0000 0.79760  0.62030  0.16140  Biso   1.000  N
  N24      1.0000 0.20240  0.62030  0.33860  Biso   1.000  N
  C1       1.0000 0.88600  0.20770  0.60920  Biso   1.000  C
  C2       1.0000 0.11400  0.20770  0.89080  Biso   1.000  C
  C3       1.0000 0.38600  0.70770  0.60920  Biso   1.000  C
  C4       1.0000 0.61400  0.70770  0.89080  Biso   1.000  C
  C5       1.0000 0.11400  0.79230  0.39080  Biso   1.000  C
  C6       1.0000 0.88600  0.79230  0.10920  Biso   1.000  C
  C7       1.0000 0.61400  0.29230  0.39080  Biso   1.000  C
  C8       1.0000 0.38600  0.29230  0.10920  Biso   1.000  C
  C9       1.0000 0.92080  0.10980  0.60330  Biso   1.000  C
  C10      1.0000 0.07920  0.10980  0.89670  Biso   1.000  C
  C11      1.0000 0.42080  0.60980  0.60330  Biso   1.000  C
  C12      1.0000 0.57920  0.60980  0.89670  Biso   1.000  C
  C13      1.0000 0.07920  0.89020  0.39670  Biso   1.000  C
  C14      1.0000 0.92080  0.89020  0.10330  Biso   1.000  C
  C15      1.0000 0.57920  0.39020  0.39670  Biso   1.000  C
  C16      1.0000 0.42080  0.39020  0.10330  Biso   1.000  C
  C17      1.0000 0.97060  0.14120  0.60670  Biso   1.000  C
  C18      1.0000 0.02940  0.14120  0.89330  Biso   1.000  C
  C19      1.0000 0.47060  0.64120  0.60670  Biso   1.000  C
  C20      1.0000 0.52940  0.64120  0.89330  Biso   1.000  C
  C21      1.0000 0.02940  0.85880  0.39330  Biso   1.000  C
  C22      1.0000 0.97060  0.85880  0.10670  Biso   1.000  C
  C23      1.0000 0.52940  0.35880  0.39330  Biso   1.000  C
  C24      1.0000 0.47060  0.35880  0.10670  Biso   1.000  C
  C25      1.0000 0.98550  0.26830  0.61360  Biso   1.000  C
  C26      1.0000 0.01450  0.26830  0.88640  Biso   1.000  C
  C27      1.0000 0.48550  0.76830  0.61360  Biso   1.000  C
  C28      1.0000 0.51450  0.76830  0.88640  Biso   1.000  C
  C29      1.0000 0.01450  0.73170  0.38640  Biso   1.000  C
  C30      1.0000 0.98550  0.73170  0.11360  Biso   1.000  C
  C31      1.0000 0.51450  0.23170  0.38640  Biso   1.000  C
  C32      1.0000 0.48550  0.23170  0.11360  Biso   1.000  C
  C33      1.0000 0.03660  0.31250  0.61690  Biso   1.000  C
  C34      1.0000 0.96340  0.31250  0.88310  Biso   1.000  C
  C35      1.0000 0.53660  0.81250  0.61690  Biso   1.000  C
  C36      1.0000 0.46340  0.81250  0.88310  Biso   1.000  C
  C37      1.0000 0.96340  0.68750  0.38310  Biso   1.000  C
  C38      1.0000 0.03660  0.68750  0.11690  Biso   1.000  C
  C39      1.0000 0.46340  0.18750  0.38310  Biso   1.000  C
  C40      1.0000 0.53660  0.18750  0.11690  Biso   1.000  C
  C41      1.0000 0.04800  0.43500  0.62070  Biso   1.000  C
  C42      1.0000 0.95200  0.43500  0.87930  Biso   1.000  C
  C43      1.0000 0.54800  0.93500  0.62070  Biso   1.000  C
  C44      1.0000 0.45200  0.93500  0.87930  Biso   1.000  C
  C45      1.0000 0.95200  0.56500  0.37930  Biso   1.000  C
  C46      1.0000 0.04800  0.56500  0.12070  Biso   1.000  C
  C47      1.0000 0.45200  0.06500  0.37930  Biso   1.000  C
  C48      1.0000 0.54800  0.06500  0.12070  Biso   1.000  C
  C49      1.0000 0.01020  0.53220  0.62420  Biso   1.000  C
  C50      1.0000 0.98980  0.53220  0.87580  Biso   1.000  C
  C51      1.0000 0.51020  0.03220  0.62420  Biso   1.000  C
  C52      1.0000 0.48980  0.03220  0.87580  Biso   1.000  C
  C53      1.0000 0.98980  0.46780  0.37580  Biso   1.000  C
  C54      1.0000 0.01020  0.46780  0.12420  Biso   1.000  C
  C55      1.0000 0.48980  0.96780  0.37580  Biso   1.000  C
  C56      1.0000 0.51020  0.96780  0.12420  Biso   1.000  C
  C57      1.0000 0.01940  0.66390  0.62910  Biso   1.000  C
  C58      1.0000 0.98060  0.66390  0.87090  Biso   1.000  C
  C59      1.0000 0.51940  0.16390  0.62910  Biso   1.000  C
  C60      1.0000 0.48060  0.16390  0.87090  Biso   1.000  C
  C61      1.0000 0.98060  0.33610  0.37090  Biso   1.000  C
  C62      1.0000 0.01940  0.33610  0.12910  Biso   1.000  C
  C63      1.0000 0.48060  0.83610  0.37090  Biso   1.000  C
  C64      1.0000 0.51940  0.83610  0.12910  Biso   1.000  C
  C65      1.0000 0.98110  0.74670  0.62360  Biso   1.000  C
  C66      1.0000 0.01890  0.74670  0.87640  Biso   1.000  C
  C67      1.0000 0.48110  0.24670  0.62360  Biso   1.000  C
  C68      1.0000 0.51890  0.24670  0.87640  Biso   1.000  C
  C69      1.0000 0.01890  0.25330  0.37640  Biso   1.000  C
  C70      1.0000 0.98110  0.25330  0.12360  Biso   1.000  C
  C71      1.0000 0.51890  0.75330  0.37640  Biso   1.000  C
  C72      1.0000 0.48110  0.75330  0.12360  Biso   1.000  C
  C73      1.0000 0.93100  0.69890  0.63360  Biso   1.000  C
  C74      1.0000 0.06900  0.69890  0.86640  Biso   1.000  C
  C75      1.0000 0.43100  0.19890  0.63360  Biso   1.000  C
  C76      1.0000 0.56900  0.19890  0.86640  Biso   1.000  C
  C77      1.0000 0.06900  0.30110  0.36640  Biso   1.000  C
  C78      1.0000 0.93100  0.30110  0.13360  Biso   1.000  C
  C79      1.0000 0.56900  0.80110  0.36640  Biso   1.000  C
  C80      1.0000 0.43100  0.80110  0.13360  Biso   1.000  C
  C81      1.0000 0.96030  0.49210  0.62460  Biso   1.000  C
  C82      1.0000 0.03970  0.49210  0.87540  Biso   1.000  C
  C83      1.0000 0.46030  0.99210  0.62460  Biso   1.000  C
  C84      1.0000 0.53970  0.99210  0.87540  Biso   1.000  C
  C85      1.0000 0.03970  0.50790  0.37540  Biso   1.000  C
  C86      1.0000 0.96030  0.50790  0.12460  Biso   1.000  C
  C87      1.0000 0.53970  0.00790  0.37540  Biso   1.000  C
  C88      1.0000 0.46030  0.00790  0.12460  Biso   1.000  C
  C89      1.0000 0.94810  0.36000  0.61840  Biso   1.000  C
  C90      1.0000 0.05190  0.36000  0.88160  Biso   1.000  C
  C91      1.0000 0.44810  0.86000  0.61840  Biso   1.000  C
  C92      1.0000 0.55190  0.86000  0.88160  Biso   1.000  C
  C93      1.0000 0.05190  0.64000  0.38160  Biso   1.000  C
  C94      1.0000 0.94810  0.64000  0.11840  Biso   1.000  C
  C95      1.0000 0.55190  0.14000  0.38160  Biso   1.000  C
  C96      1.0000 0.44810  0.14000  0.11840  Biso   1.000  C
  C97      1.0000 0.69730  0.81830  0.75520  Biso   1.000  C
  C98      1.0000 0.30270  0.81830  0.74480  Biso   1.000  C
  C99      1.0000 0.19730  0.31830  0.75520  Biso   1.000  C
  C100     1.0000 0.80270  0.31830  0.74480  Biso   1.000  C
  C101     1.0000 0.30270  0.18170  0.24480  Biso   1.000  C
  C102     1.0000 0.69730  0.18170  0.25520  Biso   1.000  C
  C103     1.0000 0.80270  0.68170  0.24480  Biso   1.000  C
  C104     1.0000 0.19730  0.68170  0.25520  Biso   1.000  C
  C105     1.0000 0.73580  0.74740  0.72690  Biso   1.000  C
  C106     1.0000 0.26420  0.74740  0.77310  Biso   1.000  C
  C107     1.0000 0.23580  0.24740  0.72690  Biso   1.000  C
  C108     1.0000 0.76420  0.24740  0.77310  Biso   1.000  C
  C109     1.0000 0.26420  0.25260  0.27310  Biso   1.000  C
  C110     1.0000 0.73580  0.25260  0.22690  Biso   1.000  C
  C111     1.0000 0.76420  0.75260  0.27310  Biso   1.000  C
  C112     1.0000 0.23580  0.75260  0.22690  Biso   1.000  C
  C113     1.0000 0.78090  0.73650  0.78770  Biso   1.000  C
  C114     1.0000 0.21910  0.73650  0.71230  Biso   1.000  C
  C115     1.0000 0.28090  0.23650  0.78770  Biso   1.000  C
  C116     1.0000 0.71910  0.23650  0.71230  Biso   1.000  C
  C117     1.0000 0.21910  0.26350  0.21230  Biso   1.000  C
  C118     1.0000 0.78090  0.26350  0.28770  Biso   1.000  C
  C119     1.0000 0.71910  0.76350  0.21230  Biso   1.000  C
  C120     1.0000 0.28090  0.76350  0.28770  Biso   1.000  C
  C121     1.0000 0.78650  0.79940  0.87300  Biso   1.000  C
  C122     1.0000 0.21350  0.79940  0.62700  Biso   1.000  C
  C123     1.0000 0.28650  0.29940  0.87300  Biso   1.000  C
  C124     1.0000 0.71350  0.29940  0.62700  Biso   1.000  C
  C125     1.0000 0.21350  0.20060  0.12700  Biso   1.000  C
  C126     1.0000 0.78650  0.20060  0.37300  Biso   1.000  C
  C127     1.0000 0.71350  0.70060  0.12700  Biso   1.000  C
  C128     1.0000 0.28650  0.70060  0.37300  Biso   1.000  C
  C129     1.0000 0.74650  0.87310  0.89700  Biso   1.000  C
  C130     1.0000 0.25350  0.87310  0.60300  Biso   1.000  C
  C131     1.0000 0.24650  0.37310  0.89700  Biso   1.000  C
  C132     1.0000 0.75350  0.37310  0.60300  Biso   1.000  C
  C133     1.0000 0.25350  0.12690  0.10300  Biso   1.000  C
  C134     1.0000 0.74650  0.12690  0.39700  Biso   1.000  C
  C135     1.0000 0.75350  0.62690  0.10300  Biso   1.000  C
  C136     1.0000 0.24650  0.62690  0.39700  Biso   1.000  C
  C137     1.0000 0.82200  0.64850  0.76210  Biso   1.000  C
  C138     1.0000 0.17800  0.64850  0.73790  Biso   1.000  C
  C139     1.0000 0.32200  0.14850  0.76210  Biso   1.000  C
  C140     1.0000 0.67800  0.14850  0.73790  Biso   1.000  C
  C141     1.0000 0.17800  0.35150  0.23790  Biso   1.000  C
  C142     1.0000 0.82200  0.35150  0.26210  Biso   1.000  C
  C143     1.0000 0.67800  0.85150  0.23790  Biso   1.000  C
  C144     1.0000 0.32200  0.85150  0.26210  Biso   1.000  C
  O25      1.0000 0.41670  0.50800  0.39220  Biso   1.000  O
  O26      1.0000 0.58330  0.50800  0.10780  Biso   1.000  O
  O27      1.0000 0.91670  0.00800  0.39220  Biso   1.000  O
  O28      1.0000 0.08330  0.00800  0.10780  Biso   1.000  O
  O29      1.0000 0.58330  0.49200  0.60780  Biso   1.000  O
  O30      1.0000 0.41670  0.49200  0.89220  Biso   1.000  O
  O31      1.0000 0.08330  0.99200  0.60780  Biso   1.000  O
  O32      1.0000 0.91670  0.99200  0.89220  Biso   1.000  O
  O33      1.0000 0.39170  0.60200  0.26600  Biso   1.000  O
  O34      1.0000 0.60830  0.60200  0.23400  Biso   1.000  O
  O35      1.0000 0.89170  0.10200  0.26600  Biso   1.000  O
  O36      1.0000 0.10830  0.10200  0.23400  Biso   1.000  O
  O37      1.0000 0.60830  0.39800  0.73400  Biso   1.000  O
  O38      1.0000 0.39170  0.39800  0.76600  Biso   1.000  O
  O39      1.0000 0.10830  0.89800  0.73400  Biso   1.000  O
  O40      1.0000 0.89170  0.89800  0.76600  Biso   1.000  O
  O41      1.0000 0.35620  0.44240  0.30240  Biso   1.000  O
  O42      1.0000 0.64380  0.44240  0.19760  Biso   1.000  O
  O43      1.0000 0.85620  0.94240  0.30240  Biso   1.000  O
  O44      1.0000 0.14380  0.94240  0.19760  Biso   1.000  O
  O45      1.0000 0.64380  0.55760  0.69760  Biso   1.000  O
  O46      1.0000 0.35620  0.55760  0.80240  Biso   1.000  O
  O47      1.0000 0.14380  0.05760  0.69760  Biso   1.000  O
  O48      1.0000 0.85620  0.05760  0.80240  Biso   1.000  O
  N25      1.0000 0.38970  0.51850  0.32050  Biso   1.000  N
  N26      1.0000 0.61030  0.51850  0.17950  Biso   1.000  N
  N27      1.0000 0.88970  0.01850  0.32050  Biso   1.000  N
  N28      1.0000 0.11030  0.01850  0.17950  Biso   1.000  N
  N29      1.0000 0.61030  0.48150  0.67950  Biso   1.000  N
  N30      1.0000 0.38970  0.48150  0.82050  Biso   1.000  N
  N31      1.0000 0.11030  0.98150  0.67950  Biso   1.000  N
  N32      1.0000 0.88970  0.98150  0.82050  Biso   1.000  N
  O49      1.0000 0.66050  0.29520  0.02520  Biso   1.000  O
  O50      1.0000 0.33950  0.29520  0.47480  Biso   1.000  O
  O51      1.0000 0.16050  0.79520  0.02520  Biso   1.000  O
  O52      1.0000 0.83950  0.79520  0.47480  Biso   1.000  O
  O53      1.0000 0.33950  0.70480  0.97480  Biso   1.000  O
  O54      1.0000 0.66050  0.70480  0.52520  Biso   1.000  O
  O55      1.0000 0.83950  0.20480  0.97480  Biso   1.000  O
  O56      1.0000 0.16050  0.20480  0.52520  Biso   1.000  O
  O57      1.0000 0.79890  0.02570  0.10200  Biso   1.000  O
  O58      1.0000 0.20110  0.02570  0.39800  Biso   1.000  O
  O59      1.0000 0.29890  0.52570  0.10200  Biso   1.000  O
  O60      1.0000 0.70110  0.52570  0.39800  Biso   1.000  O
  O61      1.0000 0.20110  0.97430  0.89800  Biso   1.000  O
  O62      1.0000 0.79890  0.97430  0.60200  Biso   1.000  O
  O63      1.0000 0.70110  0.47430  0.89800  Biso   1.000  O
  O64      1.0000 0.29890  0.47430  0.60200  Biso   1.000  O
