data_image0
_cell_length_a       9.3221
_cell_length_b       11.7978
_cell_length_c       13.7528
_cell_angle_alpha    106.02
_cell_angle_beta     95.85
_cell_angle_gamma    107.356

_symmetry_space_group_name_H-M    "P 1"
_symmetry_int_tables_number       1

loop_
  _symmetry_equiv_pos_as_xyz
  'x, y, z'

loop_
  _atom_site_label
  _atom_site_occupancy
  _atom_site_fract_x
  _atom_site_fract_y
  _atom_site_fract_z
  _atom_site_thermal_displace_type
  _atom_site_B_iso_or_equiv
  _atom_site_type_symbol
  Cu1      1.0000 0.50000  0.50000  0.50000  Biso   1.000  Cu
  Cu2      1.0000 0.50000  0.00000  0.00000  Biso   1.000  Cu
  O1       1.0000 0.36970  0.14940  0.37640  Biso   1.000  O
  O2       1.0000 0.63030  0.85060  0.62360  Biso   1.000  O
  O3       1.0000 0.60070  0.29360  0.44910  Biso   1.000  O
  O4       1.0000 0.39930  0.70640  0.55090  Biso   1.000  O
  O5       1.0000 0.57360  0.09660  0.22040  Biso   1.000  O
  O6       1.0000 0.42640  0.90340  0.77960  Biso   1.000  O
  O7       1.0000 0.52140  0.27020  0.22300  Biso   1.000  O
  O8       1.0000 0.47860  0.72980  0.77700  Biso   1.000  O
  N1       1.0000 0.71970  0.62640  0.53730  Biso   1.000  N
  N2       1.0000 0.28030  0.37360  0.46270  Biso   1.000  N
  H1       1.0000 0.70800  0.70310  0.56770  Biso   1.000  H
  H2       1.0000 0.29200  0.29690  0.43230  Biso   1.000  H
  N3       1.0000 0.49530  0.48960  0.64270  Biso   1.000  N
  N4       1.0000 0.50470  0.51040  0.35730  Biso   1.000  N
  H3       1.0000 0.46950  0.55690  0.67980  Biso   1.000  H
  H4       1.0000 0.53050  0.44310  0.32020  Biso   1.000  H
  N5       1.0000 0.72750  0.08450  0.00500  Biso   1.000  N
  N6       1.0000 0.27250  0.91550  0.99500  Biso   1.000  N
  H5       1.0000 0.74570  0.06270  0.93830  Biso   1.000  H
  H6       1.0000 0.25430  0.93730  0.06170  Biso   1.000  H
  N7       1.0000 0.51780  0.83240  0.99580  Biso   1.000  N
  N8       1.0000 0.48220  0.16760  0.00420  Biso   1.000  N
  H7       1.0000 0.51450  0.79510  0.92620  Biso   1.000  H
  H8       1.0000 0.48550  0.20490  0.07380  Biso   1.000  H
  C1       1.0000 0.83720  0.61960  0.61680  Biso   1.000  C
  C2       1.0000 0.16280  0.38040  0.38320  Biso   1.000  C
  H9       1.0000 0.85940  0.54030  0.58830  Biso   1.000  H
  H10      1.0000 0.14060  0.45970  0.41170  Biso   1.000  H
  C3       1.0000 0.98820  0.73130  0.64420  Biso   1.000  C
  C4       1.0000 0.01180  0.26870  0.35580  Biso   1.000  C
  H11      1.0000 0.03080  0.73170  0.58200  Biso   1.000  H
  H12      1.0000 0.96920  0.26830  0.41800  Biso   1.000  H
  H13      1.0000 0.06170  0.72360  0.69600  Biso   1.000  H
  H14      1.0000 0.93830  0.27640  0.30400  Biso   1.000  H
  H15      1.0000 0.96810  0.80980  0.67200  Biso   1.000  H
  H16      1.0000 0.03190  0.19020  0.32800  Biso   1.000  H
  C5       1.0000 0.77280  0.61610  0.71400  Biso   1.000  C
  C6       1.0000 0.22720  0.38390  0.28600  Biso   1.000  C
  H17      1.0000 0.85710  0.62770  0.76980  Biso   1.000  H
  H18      1.0000 0.14290  0.37230  0.23020  Biso   1.000  H
  H19      1.0000 0.73570  0.68770  0.73600  Biso   1.000  H
  H20      1.0000 0.26430  0.31230  0.26400  Biso   1.000  H
  C7       1.0000 0.64350  0.49690  0.70210  Biso   1.000  C
  C8       1.0000 0.35650  0.50310  0.29790  Biso   1.000  C
  H21      1.0000 0.67160  0.42390  0.66610  Biso   1.000  H
  H22      1.0000 0.32840  0.57610  0.33390  Biso   1.000  H
  H23      1.0000 0.62940  0.49200  0.77140  Biso   1.000  H
  H24      1.0000 0.37060  0.50800  0.22860  Biso   1.000  H
  C9       1.0000 0.36770  0.37250  0.63340  Biso   1.000  C
  C10      1.0000 0.63230  0.62750  0.36660  Biso   1.000  C
  H25      1.0000 0.40120  0.29980  0.60260  Biso   1.000  H
  H26      1.0000 0.59880  0.70020  0.39740  Biso   1.000  H
  C11      1.0000 0.32490  0.36350  0.73680  Biso   1.000  C
  C12      1.0000 0.67510  0.63650  0.26320  Biso   1.000  C
  H27      1.0000 0.41880  0.37840  0.78630  Biso   1.000  H
  H28      1.0000 0.58120  0.62160  0.21370  Biso   1.000  H
  H29      1.0000 0.25430  0.27760  0.72600  Biso   1.000  H
  H30      1.0000 0.74570  0.72240  0.27400  Biso   1.000  H
  C13      1.0000 0.24880  0.45770  0.78270  Biso   1.000  C
  C14      1.0000 0.75120  0.54230  0.21730  Biso   1.000  C
  H31      1.0000 0.32350  0.54380  0.80170  Biso   1.000  H
  H32      1.0000 0.67650  0.45620  0.19830  Biso   1.000  H
  H33      1.0000 0.21650  0.44460  0.84630  Biso   1.000  H
  H34      1.0000 0.78350  0.55540  0.15370  Biso   1.000  H
  C15      1.0000 0.10990  0.44360  0.70620  Biso   1.000  C
  C16      1.0000 0.89010  0.55640  0.29380  Biso   1.000  C
  H35      1.0000 0.03160  0.35990  0.69190  Biso   1.000  H
  H36      1.0000 0.96840  0.64010  0.30810  Biso   1.000  H
  H37      1.0000 0.06460  0.50780  0.73690  Biso   1.000  H
  H38      1.0000 0.93540  0.49220  0.26310  Biso   1.000  H
  C17      1.0000 0.15370  0.45850  0.60520  Biso   1.000  C
  C18      1.0000 0.84630  0.54150  0.39480  Biso   1.000  C
  H39      1.0000 0.06080  0.44590  0.55590  Biso   1.000  H
  H40      1.0000 0.93920  0.55410  0.44410  Biso   1.000  H
  H41      1.0000 0.22590  0.54450  0.61850  Biso   1.000  H
  H42      1.0000 0.77410  0.45550  0.38150  Biso   1.000  H
  C19      1.0000 0.77070  0.63790  0.44180  Biso   1.000  C
  C20      1.0000 0.22930  0.36210  0.55820  Biso   1.000  C
  H43      1.0000 0.84790  0.72370  0.45830  Biso   1.000  H
  H44      1.0000 0.15210  0.27630  0.54170  Biso   1.000  H
  C21      1.0000 0.82650  0.04420  0.07090  Biso   1.000  C
  C22      1.0000 0.17350  0.95580  0.92910  Biso   1.000  C
  H45      1.0000 0.80370  0.06260  0.14120  Biso   1.000  H
  H46      1.0000 0.19630  0.93740  0.85880  Biso   1.000  H
  H47      1.0000 0.93560  0.09290  0.07660  Biso   1.000  H
  H48      1.0000 0.06440  0.90710  0.92340  Biso   1.000  H
  C23      1.0000 0.80120  0.90580  0.02700  Biso   1.000  C
  C24      1.0000 0.19880  0.09420  0.97300  Biso   1.000  C
  H49      1.0000 0.89190  0.88980  0.05640  Biso   1.000  H
  H50      1.0000 0.10810  0.11020  0.94360  Biso   1.000  H
  H51      1.0000 0.79450  0.88390  0.95150  Biso   1.000  H
  H52      1.0000 0.20550  0.11610  0.04850  Biso   1.000  H
  C25      1.0000 0.65850  0.81920  0.04740  Biso   1.000  C
  C26      1.0000 0.34150  0.18080  0.95260  Biso   1.000  C
  H53      1.0000 0.66250  0.84410  0.12350  Biso   1.000  H
  H54      1.0000 0.33750  0.15590  0.87650  Biso   1.000  H
  C27      1.0000 0.65470  0.68360  0.00940  Biso   1.000  C
  C28      1.0000 0.34530  0.31640  0.99060  Biso   1.000  C
  H55      1.0000 0.56840  0.62970  0.02910  Biso   1.000  H
  H56      1.0000 0.43160  0.37030  0.97090  Biso   1.000  H
  H57      1.0000 0.75090  0.67840  0.04060  Biso   1.000  H
  H58      1.0000 0.24910  0.32160  0.95940  Biso   1.000  H
  H59      1.0000 0.64250  0.65580  0.93400  Biso   1.000  H
  H60      1.0000 0.35750  0.34420  0.06600  Biso   1.000  H
  C29      1.0000 0.37140  0.75090  0.01290  Biso   1.000  C
  C30      1.0000 0.62860  0.24910  0.98710  Biso   1.000  C
  H61      1.0000 0.36030  0.66140  0.97830  Biso   1.000  H
  H62      1.0000 0.63970  0.33860  0.02170  Biso   1.000  H
  C31      1.0000 0.36430  0.76830  0.12550  Biso   1.000  C
  C32      1.0000 0.63570  0.23170  0.87450  Biso   1.000  C
  H63      1.0000 0.45100  0.75150  0.15940  Biso   1.000  H
  H64      1.0000 0.54900  0.24850  0.84060  Biso   1.000  H
  H65      1.0000 0.37270  0.85590  0.16140  Biso   1.000  H
  H66      1.0000 0.62730  0.14410  0.83860  Biso   1.000  H
  C33      1.0000 0.21260  0.67840  0.13300  Biso   1.000  C
  C34      1.0000 0.78740  0.32160  0.86700  Biso   1.000  C
  H67      1.0000 0.20700  0.59070  0.10030  Biso   1.000  H
  H68      1.0000 0.79300  0.40930  0.89970  Biso   1.000  H
  H69      1.0000 0.20730  0.69050  0.20660  Biso   1.000  H
  H70      1.0000 0.79270  0.30950  0.79340  Biso   1.000  H
  C35      1.0000 0.07630  0.70140  0.07910  Biso   1.000  C
  C36      1.0000 0.92370  0.29860  0.92090  Biso   1.000  C
  H71      1.0000 0.07370  0.78470  0.11820  Biso   1.000  H
  H72      1.0000 0.92630  0.21530  0.88180  Biso   1.000  H
  H73      1.0000 0.97960  0.63720  0.07920  Biso   1.000  H
  H74      1.0000 0.02040  0.36280  0.92080  Biso   1.000  H
  C37      1.0000 0.08680  0.69630  0.96840  Biso   1.000  C
  C38      1.0000 0.91320  0.30370  0.03160  Biso   1.000  C
  H75      1.0000 0.06720  0.60820  0.92630  Biso   1.000  H
  H76      1.0000 0.93280  0.39180  0.07370  Biso   1.000  H
  H77      1.0000 0.00510  0.72310  0.94030  Biso   1.000  H
  H78      1.0000 0.99490  0.27690  0.05970  Biso   1.000  H
  C39      1.0000 0.75810  0.22150  0.04290  Biso   1.000  C
  C40      1.0000 0.24190  0.77850  0.95710  Biso   1.000  C
  H79      1.0000 0.75450  0.24550  0.11800  Biso   1.000  H
  H80      1.0000 0.24550  0.75450  0.88200  Biso   1.000  H
  C41      1.0000 0.50450  0.21220  0.37280  Biso   1.000  C
  C42      1.0000 0.49550  0.78780  0.62720  Biso   1.000  C
  C43      1.0000 0.53760  0.18980  0.26350  Biso   1.000  C
  C44      1.0000 0.46240  0.81020  0.73650  Biso   1.000  C
  O9       1.0000 0.40300  0.82340  0.39110  Biso   1.000  O
  O10      1.0000 0.59700  0.17660  0.60890  Biso   1.000  O
  H81      1.0000 0.34460  0.86460  0.40750  Biso   1.000  H
  H82      1.0000 0.65540  0.13540  0.59250  Biso   1.000  H
  H83      1.0000 0.40200  0.78930  0.43730  Biso   1.000  H
  H84      1.0000 0.59800  0.21070  0.56270  Biso   1.000  H
  O11      1.0000 0.66930  0.96770  0.34200  Biso   1.000  O
  O12      1.0000 0.33070  0.03230  0.65800  Biso   1.000  O
  H85      1.0000 0.59430  0.92500  0.36060  Biso   1.000  H
  H86      1.0000 0.40570  0.07500  0.63940  Biso   1.000  H
  H87      1.0000 0.64950  0.00680  0.30280  Biso   1.000  H
  H88      1.0000 0.35050  0.99320  0.69720  Biso   1.000  H
  O13      1.0000 0.83260  0.97710  0.80870  Biso   1.000  O
  O14      1.0000 0.16740  0.02290  0.19130  Biso   1.000  O
  H89      1.0000 0.89490  0.03150  0.79080  Biso   1.000  H
  H90      1.0000 0.10510  0.96850  0.20920  Biso   1.000  H
  H91      1.0000 0.75480  0.94210  0.76070  Biso   1.000  H
  H92      1.0000 0.24520  0.05790  0.23930  Biso   1.000  H
  O15      1.0000 0.80000  0.03620  0.55290  Biso   1.000  O
  O16      1.0000 0.20000  0.96380  0.44710  Biso   1.000  O
  H93      1.0000 0.74880  0.98010  0.57470  Biso   1.000  H
  H94      1.0000 0.25120  0.01990  0.42530  Biso   1.000  H
  H95      1.0000 0.76130  0.01610  0.49000  Biso   1.000  H
  H96      1.0000 0.23870  0.98390  0.51000  Biso   1.000  H
  O17      1.0000 0.05810  0.07620  0.70620  Biso   1.000  O
  O18      1.0000 0.94190  0.92380  0.29380  Biso   1.000  O
  H97      1.0000 0.13600  0.05750  0.69350  Biso   1.000  H
  H98      1.0000 0.86400  0.94250  0.30650  Biso   1.000  H
  H99      1.0000 0.00970  0.05880  0.64600  Biso   1.000  H
  H100     1.0000 0.99030  0.94120  0.35400  Biso   1.000  H
