data_image0
_cell_length_a       10.2781
_cell_length_b       10.3418
_cell_length_c       18.3125
_cell_angle_alpha    75.802
_cell_angle_beta     83.825
_cell_angle_gamma    70.158

_symmetry_space_group_name_H-M    "P 1"
_symmetry_int_tables_number       1

loop_
  _symmetry_equiv_pos_as_xyz
  'x, y, z'

loop_
  _atom_site_label
  _atom_site_occupancy
  _atom_site_fract_x
  _atom_site_fract_y
  _atom_site_fract_z
  _atom_site_thermal_displace_type
  _atom_site_B_iso_or_equiv
  _atom_site_type_symbol
  Cu1      1.0000 0.32604  0.53097  0.01478  Biso   1.000  Cu
  Cu2      1.0000 0.67396  0.46903  0.98522  Biso   1.000  Cu
  N1       1.0000 0.29770  0.41830  0.94640  Biso   1.000  N
  N2       1.0000 0.70230  0.58170  0.05360  Biso   1.000  N
  N3       1.0000 0.19160  0.44400  0.07860  Biso   1.000  N
  N4       1.0000 0.80840  0.55600  0.92140  Biso   1.000  N
  O1       1.0000 0.32940  0.63910  0.08610  Biso   1.000  O
  O2       1.0000 0.67060  0.36090  0.91390  Biso   1.000  O
  O3       1.0000 0.55140  0.38140  0.05430  Biso   1.000  O
  O4       1.0000 0.44860  0.61860  0.94570  Biso   1.000  O
  C1       1.0000 0.35990  0.41110  0.87810  Biso   1.000  C
  C2       1.0000 0.64010  0.58890  0.12190  Biso   1.000  C
  C3       1.0000 0.20180  0.35310  0.96990  Biso   1.000  C
  C4       1.0000 0.79820  0.64690  0.03010  Biso   1.000  C
  C5       1.0000 0.14020  0.37090  0.04550  Biso   1.000  C
  C6       1.0000 0.85980  0.62910  0.95450  Biso   1.000  C
  C7       1.0000 0.14720  0.45940  0.14860  Biso   1.000  C
  C8       1.0000 0.85280  0.54060  0.85140  Biso   1.000  C
  C9       1.0000 0.23680  0.75900  0.08220  Biso   1.000  C
  C10      1.0000 0.76320  0.24100  0.91780  Biso   1.000  C
  H1       1.0000 0.42590  0.45570  0.86120  Biso   1.000  H
  H2       1.0000 0.57410  0.54430  0.13880  Biso   1.000  H
  C11      1.0000 0.32710  0.33890  0.83340  Biso   1.000  C
  C12      1.0000 0.67290  0.66110  0.16660  Biso   1.000  C
  C13      1.0000 0.16490  0.28130  0.92680  Biso   1.000  C
  C14      1.0000 0.83510  0.71870  0.07320  Biso   1.000  C
  C15      1.0000 0.03930  0.31400  0.08180  Biso   1.000  C
  C16      1.0000 0.96070  0.68600  0.91820  Biso   1.000  C
  C17      1.0000 0.05210  0.40190  0.18680  Biso   1.000  C
  C18      1.0000 0.94790  0.59810  0.81320  Biso   1.000  C
  H3       1.0000 0.18250  0.51080  0.17150  Biso   1.000  H
  H4       1.0000 0.81750  0.48920  0.82850  Biso   1.000  H
  C19      1.0000 0.25500  0.84650  0.13270  Biso   1.000  C
  C20      1.0000 0.74500  0.15350  0.86730  Biso   1.000  C
  O5       1.0000 0.13760  0.80110  0.04180  Biso   1.000  O
  O6       1.0000 0.86240  0.19890  0.95820  Biso   1.000  O
  H5       1.0000 0.37240  0.33350  0.78690  Biso   1.000  H
  H6       1.0000 0.62760  0.66650  0.21310  Biso   1.000  H
  C21      1.0000 0.22940  0.27500  0.85590  Biso   1.000  C
  C22      1.0000 0.77060  0.72500  0.14410  Biso   1.000  C
  H7       1.0000 0.09840  0.23760  0.94410  Biso   1.000  H
  H8       1.0000 0.90160  0.76240  0.05590  Biso   1.000  H
  H9       1.0000 0.00110  0.26790  0.05680  Biso   1.000  H
  H10      1.0000 0.99890  0.73210  0.94320  Biso   1.000  H
  C23      1.0000 0.99660  0.32500  0.15220  Biso   1.000  C
  C24      1.0000 0.00340  0.67500  0.84780  Biso   1.000  C
  H11      1.0000 0.02360  0.41310  0.23540  Biso   1.000  H
  H12      1.0000 0.97640  0.58690  0.76460  Biso   1.000  H
  H13      1.0000 0.16490  0.90780  0.14540  Biso   1.000  H
  H14      1.0000 0.83510  0.09220  0.85460  Biso   1.000  H
  H15      1.0000 0.29660  0.78460  0.17910  Biso   1.000  H
  H16      1.0000 0.70340  0.21540  0.82090  Biso   1.000  H
  C25      1.0000 0.34370  0.93410  0.09640  Biso   1.000  C
  C26      1.0000 0.65630  0.06590  0.90360  Biso   1.000  C
  H17      1.0000 0.20590  0.22800  0.82480  Biso   1.000  H
  H18      1.0000 0.79410  0.77200  0.17520  Biso   1.000  H
  H19      1.0000 0.93250  0.28330  0.17750  Biso   1.000  H
  H20      1.0000 0.06750  0.71670  0.82250  Biso   1.000  H
  H21      1.0000 0.29730  0.00440  0.05340  Biso   1.000  H
  H22      1.0000 0.70270  0.99560  0.94660  Biso   1.000  H
  H23      1.0000 0.43040  0.87470  0.07870  Biso   1.000  H
  H24      1.0000 0.56960  0.12530  0.92130  Biso   1.000  H
  S1       1.0000 0.37740  0.02020  0.16378  Biso   1.000  S
  S2       1.0000 0.62260  0.97980  0.83622  Biso   1.000  S
  C27      1.0000 0.48970  0.11190  0.10910  Biso   1.000  C
  C28      1.0000 0.51030  0.88810  0.89090  Biso   1.000  C
  H25      1.0000 0.57400  0.04450  0.09450  Biso   1.000  H
  H26      1.0000 0.42600  0.95550  0.90550  Biso   1.000  H
  H27      1.0000 0.44400  0.17400  0.06370  Biso   1.000  H
  H28      1.0000 0.55600  0.82600  0.93630  Biso   1.000  H
  C29      1.0000 0.52330  0.19550  0.15550  Biso   1.000  C
  C30      1.0000 0.47670  0.80450  0.84450  Biso   1.000  C
  H29      1.0000 0.57360  0.13200  0.19920  Biso   1.000  H
  H30      1.0000 0.42640  0.86800  0.80080  Biso   1.000  H
  H31      1.0000 0.43810  0.25730  0.17320  Biso   1.000  H
  H32      1.0000 0.56190  0.74270  0.82680  Biso   1.000  H
  C31      1.0000 0.60970  0.28330  0.11100  Biso   1.000  C
  C32      1.0000 0.39030  0.71670  0.88900  Biso   1.000  C
  O7       1.0000 0.72870  0.25840  0.12950  Biso   1.000  O
  O8       1.0000 0.27130  0.74160  0.87050  Biso   1.000  O
  O9       1.0000 0.56470  0.90770  0.45720  Biso   1.000  O
  O10      1.0000 0.43530  0.09230  0.54280  Biso   1.000  O
  C33      1.0000 0.33440  0.84680  0.62650  Biso   1.000  C
  C34      1.0000 0.66560  0.15320  0.37350  Biso   1.000  C
  H33      1.0000 0.39110  0.88900  0.64110  Biso   1.000  H
  H34      1.0000 0.60890  0.11100  0.35890  Biso   1.000  H
  C35      1.0000 0.30260  0.73770  0.67800  Biso   1.000  C
  C36      1.0000 0.69740  0.26230  0.32200  Biso   1.000  C
  H35      1.0000 0.33800  0.70680  0.72620  Biso   1.000  H
  H36      1.0000 0.66200  0.29320  0.27380  Biso   1.000  H
  C37      1.0000 0.21730  0.67600  0.65630  Biso   1.000  C
  C38      1.0000 0.78270  0.32400  0.34370  Biso   1.000  C
  H37      1.0000 0.19500  0.60230  0.68950  Biso   1.000  H
  H38      1.0000 0.80500  0.39770  0.31050  Biso   1.000  H
  C39      1.0000 0.16550  0.72580  0.58390  Biso   1.000  C
  C40      1.0000 0.83450  0.27420  0.41610  Biso   1.000  C
  H39      1.0000 0.10690  0.68670  0.56840  Biso   1.000  H
  H40      1.0000 0.89310  0.31330  0.43160  Biso   1.000  H
  C41      1.0000 0.20160  0.83230  0.53600  Biso   1.000  C
  C42      1.0000 0.79840  0.16770  0.46400  Biso   1.000  C
  C43      1.0000 0.15250  0.89370  0.45740  Biso   1.000  C
  C44      1.0000 0.84750  0.10630  0.54260  Biso   1.000  C
  C45      1.0000 0.05740  0.85320  0.42750  Biso   1.000  C
  C46      1.0000 0.94260  0.14680  0.57250  Biso   1.000  C
  H41      1.0000 0.01700  0.78900  0.45670  Biso   1.000  H
  H42      1.0000 0.98300  0.21100  0.54330  Biso   1.000  H
  C47      1.0000 0.02550  0.91190  0.35300  Biso   1.000  C
  C48      1.0000 0.97450  0.08810  0.64700  Biso   1.000  C
  H43      1.0000 0.96120  0.88880  0.33110  Biso   1.000  H
  H44      1.0000 0.03880  0.11120  0.66890  Biso   1.000  H
  C49      1.0000 0.08810  0.00360  0.31130  Biso   1.000  C
  C50      1.0000 0.91190  0.99640  0.68870  Biso   1.000  C
  H45      1.0000 0.07040  0.03990  0.26030  Biso   1.000  H
  H46      1.0000 0.92960  0.96010  0.73970  Biso   1.000  H
  C51      1.0000 0.17770  0.04200  0.34530  Biso   1.000  C
  C52      1.0000 0.82230  0.95800  0.65470  Biso   1.000  C
  H47      1.0000 0.21700  0.10780  0.31680  Biso   1.000  H
  H48      1.0000 0.78300  0.89220  0.68320  Biso   1.000  H
  N5       1.0000 0.28550  0.89350  0.55620  Biso   1.000  N
  N6       1.0000 0.71450  0.10650  0.44380  Biso   1.000  N
  N7       1.0000 0.21040  0.98870  0.41730  Biso   1.000  N
  N8       1.0000 0.78960  0.01130  0.58270  Biso   1.000  N
  Cu3      1.0000 0.32737  0.04585  0.47602  Biso   1.000  Cu
  Cu4      1.0000 0.67263  0.95415  0.52398  Biso   1.000  Cu
  O11      1.0000 0.34930  0.19930  0.39650  Biso   1.000  O
  O12      1.0000 0.65070  0.80070  0.60350  Biso   1.000  O
  C53      1.0000 0.64130  0.82450  0.41580  Biso   1.000  C
  C54      1.0000 0.35870  0.17550  0.58420  Biso   1.000  C
  C55      1.0000 0.56600  0.78630  0.36340  Biso   1.000  C
  C56      1.0000 0.43400  0.21370  0.63660  Biso   1.000  C
  C57      1.0000 0.36270  0.49100  0.39060  Biso   1.000  C
  C58      1.0000 0.63730  0.50900  0.60940  Biso   1.000  C
  C59      1.0000 0.29380  0.44050  0.33900  Biso   1.000  C
  C60      1.0000 0.70620  0.55950  0.66100  Biso   1.000  C
  C61      1.0000 0.51060  0.66820  0.40160  Biso   1.000  C
  C62      1.0000 0.48940  0.33180  0.59840  Biso   1.000  C
  S3       1.0000 0.41220  0.63870  0.33529  Biso   1.000  S
  S4       1.0000 0.58780  0.36130  0.66471  Biso   1.000  S
  H49      1.0000 0.29910  0.51970  0.43120  Biso   1.000  H
  H50      1.0000 0.70090  0.48030  0.56880  Biso   1.000  H
  O13      1.0000 0.76850  0.78130  0.41860  Biso   1.000  O
  O14      1.0000 0.23150  0.21870  0.58140  Biso   1.000  O
  H51      1.0000 0.58660  0.58280  0.41930  Biso   1.000  H
  H52      1.0000 0.41340  0.41720  0.58070  Biso   1.000  H
  H53      1.0000 0.62820  0.75830  0.32210  Biso   1.000  H
  H54      1.0000 0.37180  0.24170  0.67790  Biso   1.000  H
  H55      1.0000 0.48970  0.86870  0.34230  Biso   1.000  H
  H56      1.0000 0.51030  0.13130  0.65770  Biso   1.000  H
  H57      1.0000 0.35760  0.41260  0.29840  Biso   1.000  H
  H58      1.0000 0.64240  0.58740  0.70160  Biso   1.000  H
  H59      1.0000 0.44370  0.41540  0.41240  Biso   1.000  H
  H60      1.0000 0.55630  0.58460  0.58760  Biso   1.000  H
  C63      1.0000 0.25050  0.31630  0.38310  Biso   1.000  C
  C64      1.0000 0.74950  0.68370  0.61690  Biso   1.000  C
  O15      1.0000 0.12880  0.33360  0.40190  Biso   1.000  O
  O16      1.0000 0.87120  0.66640  0.59810  Biso   1.000  O
  H61      1.0000 0.21320  0.51660  0.31720  Biso   1.000  H
  H62      1.0000 0.78680  0.48340  0.68280  Biso   1.000  H
  H63      1.0000 0.45200  0.69280  0.44460  Biso   1.000  H
  H64      1.0000 0.54800  0.30720  0.55540  Biso   1.000  H
  O17      1.0000 0.91820  0.58060  0.33510  Biso   1.000  O
  O18      1.0000 0.08180  0.41940  0.66490  Biso   1.000  O
  H65      1.0000 0.87300  0.63400  0.36200  Biso   1.000  H
  H66      1.0000 0.12700  0.36600  0.63800  Biso   1.000  H
  H67      1.0000 0.97300  0.51700  0.36400  Biso   1.000  H
  H68      1.0000 0.02700  0.48300  0.63600  Biso   1.000  H
  O19      1.0000 0.90660  0.98280  0.14260  Biso   1.000  O
  O20      1.0000 0.09340  0.01720  0.85740  Biso   1.000  O
  H69      1.0000 0.86110  0.99440  0.10090  Biso   1.000  H
  H70      1.0000 0.13890  0.00560  0.89910  Biso   1.000  H
  H71      1.0000 0.84910  0.02500  0.17680  Biso   1.000  H
  H72      1.0000 0.15090  0.97500  0.82320  Biso   1.000  H
