data_image0
_cell_length_a       15.2049
_cell_length_b       14.2017
_cell_length_c       18.5719
_cell_angle_alpha    90
_cell_angle_beta     90
_cell_angle_gamma    90

_symmetry_space_group_name_H-M    "P 1"
_symmetry_int_tables_number       1

loop_
  _symmetry_equiv_pos_as_xyz
  'x, y, z'

loop_
  _atom_site_label
  _atom_site_occupancy
  _atom_site_fract_x
  _atom_site_fract_y
  _atom_site_fract_z
  _atom_site_thermal_displace_type
  _atom_site_B_iso_or_equiv
  _atom_site_type_symbol
  Cu1      1.0000 0.11662  0.99885  0.00198  Biso   1.000  Cu
  Cu2      1.0000 0.88338  0.00115  0.50198  Biso   1.000  Cu
  Cu3      1.0000 0.61662  0.50115  0.00198  Biso   1.000  Cu
  Cu4      1.0000 0.38338  0.49885  0.50198  Biso   1.000  Cu
  Cu5      1.0000 0.81608  0.44835  0.08029  Biso   1.000  Cu
  Cu6      1.0000 0.18392  0.55165  0.58029  Biso   1.000  Cu
  Cu7      1.0000 0.31608  0.05165  0.08029  Biso   1.000  Cu
  Cu8      1.0000 0.68392  0.94835  0.58029  Biso   1.000  Cu
  Cu9      1.0000 0.91413  0.95297  0.92376  Biso   1.000  Cu
  Cu10     1.0000 0.08587  0.04703  0.42376  Biso   1.000  Cu
  Cu11     1.0000 0.41413  0.54703  0.92376  Biso   1.000  Cu
  Cu12     1.0000 0.58587  0.45297  0.42376  Biso   1.000  Cu
  S1       1.0000 0.81813  0.37720  0.24362  Biso   1.000  S
  S2       1.0000 0.18187  0.62280  0.74362  Biso   1.000  S
  S3       1.0000 0.31813  0.12280  0.24362  Biso   1.000  S
  S4       1.0000 0.68187  0.87720  0.74362  Biso   1.000  S
  O1       1.0000 0.13457  0.87587  0.04638  Biso   1.000  O
  O2       1.0000 0.86543  0.12413  0.54638  Biso   1.000  O
  O3       1.0000 0.63457  0.62413  0.04638  Biso   1.000  O
  O4       1.0000 0.36543  0.37587  0.54638  Biso   1.000  O
  O5       1.0000 0.08295  0.92766  0.91806  Biso   1.000  O
  O6       1.0000 0.91705  0.07234  0.41806  Biso   1.000  O
  O7       1.0000 0.58295  0.57234  0.91806  Biso   1.000  O
  O8       1.0000 0.41705  0.42766  0.41806  Biso   1.000  O
  O9       1.0000 0.10228  0.12190  0.95793  Biso   1.000  O
  O10      1.0000 0.89772  0.87810  0.45793  Biso   1.000  O
  O11      1.0000 0.60228  0.37810  0.95793  Biso   1.000  O
  O12      1.0000 0.39772  0.62190  0.45793  Biso   1.000  O
  O13      1.0000 0.14157  0.06890  0.08813  Biso   1.000  O
  O14      1.0000 0.85843  0.93110  0.58813  Biso   1.000  O
  O15      1.0000 0.64157  0.43110  0.08813  Biso   1.000  O
  O16      1.0000 0.35843  0.56890  0.58813  Biso   1.000  O
  O17      1.0000 0.78887  0.51061  0.98887  Biso   1.000  O
  O18      1.0000 0.21113  0.48939  0.48887  Biso   1.000  O
  O19      1.0000 0.28887  0.98939  0.98887  Biso   1.000  O
  O20      1.0000 0.71113  0.01061  0.48887  Biso   1.000  O
  O21      1.0000 0.82791  0.33581  0.01806  Biso   1.000  O
  O22      1.0000 0.17209  0.66419  0.51806  Biso   1.000  O
  O23      1.0000 0.32791  0.16419  0.01806  Biso   1.000  O
  O24      1.0000 0.67209  0.83581  0.51806  Biso   1.000  O
  O25      1.0000 0.94350  0.01231  0.01573  Biso   1.000  O
  O26      1.0000 0.05650  0.98769  0.51573  Biso   1.000  O
  O27      1.0000 0.44350  0.48769  0.01573  Biso   1.000  O
  O28      1.0000 0.55650  0.51231  0.51573  Biso   1.000  O
  O29      1.0000 0.89775  0.84005  0.98428  Biso   1.000  O
  O30      1.0000 0.10225  0.15995  0.48428  Biso   1.000  O
  O31      1.0000 0.39775  0.65995  0.98428  Biso   1.000  O
  O32      1.0000 0.60225  0.34005  0.48428  Biso   1.000  O
  O33      1.0000 0.89875  0.41450  0.27759  Biso   1.000  O
  O34      1.0000 0.10125  0.58550  0.77759  Biso   1.000  O
  O35      1.0000 0.39875  0.08550  0.27759  Biso   1.000  O
  O36      1.0000 0.60125  0.91450  0.77759  Biso   1.000  O
  O37      1.0000 0.79748  0.28447  0.27304  Biso   1.000  O
  O38      1.0000 0.20252  0.71553  0.77304  Biso   1.000  O
  O39      1.0000 0.29748  0.21553  0.27304  Biso   1.000  O
  O40      1.0000 0.70252  0.78447  0.77304  Biso   1.000  O
  O41      1.0000 0.74545  0.44329  0.25772  Biso   1.000  O
  O42      1.0000 0.25455  0.55671  0.75772  Biso   1.000  O
  O43      1.0000 0.24545  0.05671  0.25772  Biso   1.000  O
  O44      1.0000 0.75455  0.94329  0.75772  Biso   1.000  O
  O45      1.0000 0.83260  0.36820  0.16540  Biso   1.000  O
  O46      1.0000 0.16740  0.63180  0.66540  Biso   1.000  O
  O47      1.0000 0.33260  0.13180  0.16540  Biso   1.000  O
  O48      1.0000 0.66740  0.86820  0.66540  Biso   1.000  O
  O49      1.0000 0.89713  0.87980  0.83412  Biso   1.000  O
  O50      1.0000 0.10287  0.12020  0.33412  Biso   1.000  O
  O51      1.0000 0.39713  0.62020  0.83412  Biso   1.000  O
  O52      1.0000 0.60287  0.37980  0.33412  Biso   1.000  O
  N1       1.0000 0.10215  0.83490  0.93260  Biso   1.000  N
  N2       1.0000 0.89785  0.16510  0.43260  Biso   1.000  N
  N3       1.0000 0.60215  0.66510  0.93260  Biso   1.000  N
  N4       1.0000 0.39785  0.33490  0.43260  Biso   1.000  N
  H1       1.0000 0.09650  0.79170  0.89910  Biso   1.000  H
  H2       1.0000 0.90350  0.20830  0.39910  Biso   1.000  H
  H3       1.0000 0.59650  0.70830  0.89910  Biso   1.000  H
  H4       1.0000 0.40350  0.29170  0.39910  Biso   1.000  H
  N5       1.0000 0.26000  0.50910  0.92370  Biso   1.000  N
  N6       1.0000 0.74000  0.49090  0.42370  Biso   1.000  N
  N7       1.0000 0.76000  0.99090  0.92370  Biso   1.000  N
  N8       1.0000 0.24000  0.00910  0.42370  Biso   1.000  N
  H5       1.0000 0.23630  0.52060  0.87890  Biso   1.000  H
  H6       1.0000 0.76370  0.47940  0.37890  Biso   1.000  H
  H7       1.0000 0.73630  0.97940  0.87890  Biso   1.000  H
  H8       1.0000 0.26370  0.02060  0.37890  Biso   1.000  H
  H9       1.0000 0.25220  0.44630  0.93420  Biso   1.000  H
  H10      1.0000 0.74780  0.55370  0.43420  Biso   1.000  H
  H11      1.0000 0.75220  0.05370  0.93420  Biso   1.000  H
  H12      1.0000 0.24780  0.94630  0.43420  Biso   1.000  H
  N9       1.0000 0.12370  0.16250  0.07350  Biso   1.000  N
  N10      1.0000 0.87630  0.83750  0.57350  Biso   1.000  N
  N11      1.0000 0.62370  0.33750  0.07350  Biso   1.000  N
  N12      1.0000 0.37630  0.66250  0.57350  Biso   1.000  N
  H13      1.0000 0.12610  0.20530  0.10780  Biso   1.000  H
  H14      1.0000 0.87390  0.79470  0.60780  Biso   1.000  H
  H15      1.0000 0.62610  0.29470  0.10780  Biso   1.000  H
  H16      1.0000 0.37390  0.70530  0.60780  Biso   1.000  H
  N13      1.0000 0.96960  0.48920  0.07390  Biso   1.000  N
  N14      1.0000 0.03040  0.51080  0.57390  Biso   1.000  N
  N15      1.0000 0.46960  0.01080  0.07390  Biso   1.000  N
  N16      1.0000 0.53040  0.98920  0.57390  Biso   1.000  N
  H17      1.0000 0.97530  0.55160  0.06160  Biso   1.000  H
  H18      1.0000 0.02470  0.44840  0.56160  Biso   1.000  H
  H19      1.0000 0.47530  0.94840  0.06160  Biso   1.000  H
  H20      1.0000 0.52470  0.05160  0.56160  Biso   1.000  H
  H21      1.0000 0.99530  0.48050  0.11830  Biso   1.000  H
  H22      1.0000 0.00470  0.51950  0.61830  Biso   1.000  H
  H23      1.0000 0.49530  0.01950  0.11830  Biso   1.000  H
  H24      1.0000 0.50470  0.98050  0.61830  Biso   1.000  H
  N17      1.0000 0.80180  0.44570  0.93437  Biso   1.000  N
  N18      1.0000 0.19820  0.55430  0.43437  Biso   1.000  N
  N19      1.0000 0.30180  0.05430  0.93437  Biso   1.000  N
  N20      1.0000 0.69820  0.94570  0.43437  Biso   1.000  N
  H25      1.0000 0.79870  0.46250  0.88890  Biso   1.000  H
  H26      1.0000 0.20130  0.53750  0.38890  Biso   1.000  H
  H27      1.0000 0.29870  0.03750  0.88890  Biso   1.000  H
  H28      1.0000 0.70130  0.96250  0.38890  Biso   1.000  H
  N21      1.0000 0.95510  0.06620  0.86383  Biso   1.000  N
  N22      1.0000 0.04490  0.93380  0.36383  Biso   1.000  N
  N23      1.0000 0.45510  0.43380  0.86383  Biso   1.000  N
  N24      1.0000 0.54490  0.56620  0.36383  Biso   1.000  N
  H29      1.0000 0.00510  0.08940  0.88540  Biso   1.000  H
  H30      1.0000 0.99490  0.91060  0.38540  Biso   1.000  H
  H31      1.0000 0.50510  0.41060  0.88540  Biso   1.000  H
  H32      1.0000 0.49490  0.58940  0.38540  Biso   1.000  H
  H33      1.0000 0.97160  0.04360  0.81940  Biso   1.000  H
  H34      1.0000 0.02840  0.95640  0.31940  Biso   1.000  H
  H35      1.0000 0.47160  0.45640  0.81940  Biso   1.000  H
  H36      1.0000 0.52840  0.54360  0.31940  Biso   1.000  H
  N25      1.0000 0.93470  0.94560  0.06869  Biso   1.000  N
  N26      1.0000 0.06530  0.05440  0.56869  Biso   1.000  N
  N27      1.0000 0.43470  0.55440  0.06869  Biso   1.000  N
  N28      1.0000 0.56530  0.44560  0.56869  Biso   1.000  N
  H37      1.0000 0.94300  0.96060  0.11420  Biso   1.000  H
  H38      1.0000 0.05700  0.03940  0.61420  Biso   1.000  H
  H39      1.0000 0.44300  0.53940  0.11420  Biso   1.000  H
  H40      1.0000 0.55700  0.46060  0.61420  Biso   1.000  H
  N29      1.0000 0.77970  0.56530  0.13607  Biso   1.000  N
  N30      1.0000 0.22030  0.43470  0.63607  Biso   1.000  N
  N31      1.0000 0.27970  0.93470  0.13607  Biso   1.000  N
  N32      1.0000 0.72030  0.06530  0.63607  Biso   1.000  N
  H41      1.0000 0.73210  0.59130  0.11290  Biso   1.000  H
  H42      1.0000 0.26790  0.40870  0.61290  Biso   1.000  H
  H43      1.0000 0.23210  0.90870  0.11290  Biso   1.000  H
  H44      1.0000 0.76790  0.09130  0.61290  Biso   1.000  H
  H45      1.0000 0.76060  0.54610  0.18070  Biso   1.000  H
  H46      1.0000 0.23940  0.45390  0.68070  Biso   1.000  H
  H47      1.0000 0.26060  0.95390  0.18070  Biso   1.000  H
  H48      1.0000 0.73940  0.04610  0.68070  Biso   1.000  H
  C1       1.0000 0.12870  0.81240  0.99670  Biso   1.000  C
  C2       1.0000 0.87130  0.18760  0.49670  Biso   1.000  C
  C3       1.0000 0.62870  0.68760  0.99670  Biso   1.000  C
  C4       1.0000 0.37130  0.31240  0.49670  Biso   1.000  C
  C5       1.0000 0.15360  0.71330  0.01230  Biso   1.000  C
  C6       1.0000 0.84640  0.28670  0.51230  Biso   1.000  C
  C7       1.0000 0.65360  0.78670  0.01230  Biso   1.000  C
  C8       1.0000 0.34640  0.21330  0.51230  Biso   1.000  C
  C9       1.0000 0.18910  0.65650  0.95880  Biso   1.000  C
  C10      1.0000 0.81090  0.34350  0.45880  Biso   1.000  C
  C11      1.0000 0.68910  0.84350  0.95880  Biso   1.000  C
  C12      1.0000 0.31090  0.15650  0.45880  Biso   1.000  C
  H49      1.0000 0.19420  0.67920  0.91090  Biso   1.000  H
  H50      1.0000 0.80580  0.32080  0.41090  Biso   1.000  H
  H51      1.0000 0.69420  0.82080  0.91090  Biso   1.000  H
  H52      1.0000 0.30580  0.17920  0.41090  Biso   1.000  H
  C13      1.0000 0.21710  0.56550  0.97630  Biso   1.000  C
  C14      1.0000 0.78290  0.43450  0.47630  Biso   1.000  C
  C15      1.0000 0.71710  0.93450  0.97630  Biso   1.000  C
  C16      1.0000 0.28290  0.06550  0.47630  Biso   1.000  C
  C17      1.0000 0.20960  0.53260  0.04650  Biso   1.000  C
  C18      1.0000 0.79040  0.46740  0.54650  Biso   1.000  C
  C19      1.0000 0.70960  0.96740  0.04650  Biso   1.000  C
  C20      1.0000 0.29040  0.03260  0.54650  Biso   1.000  C
  H53      1.0000 0.22830  0.47070  0.05830  Biso   1.000  H
  H54      1.0000 0.77170  0.52930  0.55830  Biso   1.000  H
  H55      1.0000 0.72830  0.02930  0.05830  Biso   1.000  H
  H56      1.0000 0.27170  0.97070  0.55830  Biso   1.000  H
  C21      1.0000 0.17450  0.59100  0.09970  Biso   1.000  C
  C22      1.0000 0.82550  0.40900  0.59970  Biso   1.000  C
  C23      1.0000 0.67450  0.90900  0.09970  Biso   1.000  C
  C24      1.0000 0.32550  0.09100  0.59970  Biso   1.000  C
  H57      1.0000 0.17020  0.56880  0.14780  Biso   1.000  H
  H58      1.0000 0.82980  0.43120  0.64780  Biso   1.000  H
  H59      1.0000 0.67020  0.93120  0.14780  Biso   1.000  H
  H60      1.0000 0.32980  0.06880  0.64780  Biso   1.000  H
  C25      1.0000 0.14600  0.68050  0.08310  Biso   1.000  C
  C26      1.0000 0.85400  0.31950  0.58310  Biso   1.000  C
  C27      1.0000 0.64600  0.81950  0.08310  Biso   1.000  C
  C28      1.0000 0.35400  0.18050  0.58310  Biso   1.000  C
  H61      1.0000 0.12130  0.71950  0.11940  Biso   1.000  H
  H62      1.0000 0.87870  0.28050  0.61940  Biso   1.000  H
  H63      1.0000 0.62130  0.78050  0.11940  Biso   1.000  H
  H64      1.0000 0.37870  0.21950  0.61940  Biso   1.000  H
  C29      1.0000 0.10320  0.18590  0.00730  Biso   1.000  C
  C30      1.0000 0.89680  0.81410  0.50730  Biso   1.000  C
  C31      1.0000 0.60320  0.31410  0.00730  Biso   1.000  C
  C32      1.0000 0.39680  0.68590  0.50730  Biso   1.000  C
  C33      1.0000 0.07840  0.28390  0.98990  Biso   1.000  C
  C34      1.0000 0.92160  0.71610  0.48990  Biso   1.000  C
  C35      1.0000 0.57840  0.21610  0.98990  Biso   1.000  C
  C36      1.0000 0.42160  0.78390  0.48990  Biso   1.000  C
  C37      1.0000 0.03930  0.34150  0.04140  Biso   1.000  C
  C38      1.0000 0.96070  0.65850  0.54140  Biso   1.000  C
  C39      1.0000 0.53930  0.15850  0.04140  Biso   1.000  C
  C40      1.0000 0.46070  0.84150  0.54140  Biso   1.000  C
  H65      1.0000 0.03070  0.31920  0.08910  Biso   1.000  H
  H66      1.0000 0.96930  0.68080  0.58910  Biso   1.000  H
  H67      1.0000 0.53070  0.18080  0.08910  Biso   1.000  H
  H68      1.0000 0.46930  0.81920  0.58910  Biso   1.000  H
  C41      1.0000 0.01260  0.43270  0.02230  Biso   1.000  C
  C42      1.0000 0.98740  0.56730  0.52230  Biso   1.000  C
  C43      1.0000 0.51260  0.06730  0.02230  Biso   1.000  C
  C44      1.0000 0.48740  0.93270  0.52230  Biso   1.000  C
  C45      1.0000 0.02510  0.46360  0.95210  Biso   1.000  C
  C46      1.0000 0.97490  0.53640  0.45210  Biso   1.000  C
  C47      1.0000 0.52510  0.03640  0.95210  Biso   1.000  C
  C48      1.0000 0.47490  0.96360  0.45210  Biso   1.000  C
  H69      1.0000 0.00690  0.52520  0.93900  Biso   1.000  H
  H70      1.0000 0.99310  0.47480  0.43900  Biso   1.000  H
  H71      1.0000 0.50690  0.97480  0.93900  Biso   1.000  H
  H72      1.0000 0.49310  0.02520  0.43900  Biso   1.000  H
  C49      1.0000 0.06350  0.40650  0.90140  Biso   1.000  C
  C50      1.0000 0.93650  0.59350  0.40140  Biso   1.000  C
  C51      1.0000 0.56350  0.09350  0.90140  Biso   1.000  C
  C52      1.0000 0.43650  0.90650  0.40140  Biso   1.000  C
  H73      1.0000 0.07150  0.42880  0.85360  Biso   1.000  H
  H74      1.0000 0.92850  0.57120  0.35360  Biso   1.000  H
  H75      1.0000 0.57150  0.07120  0.85360  Biso   1.000  H
  H76      1.0000 0.42850  0.92880  0.35360  Biso   1.000  H
  C53      1.0000 0.09060  0.31580  0.91980  Biso   1.000  C
  C54      1.0000 0.90940  0.68420  0.41980  Biso   1.000  C
  C55      1.0000 0.59060  0.18420  0.91980  Biso   1.000  C
  C56      1.0000 0.40940  0.81580  0.41980  Biso   1.000  C
  H77      1.0000 0.11710  0.27620  0.88470  Biso   1.000  H
  H78      1.0000 0.88290  0.72380  0.38470  Biso   1.000  H
  H79      1.0000 0.61710  0.22380  0.88470  Biso   1.000  H
  H80      1.0000 0.38290  0.77620  0.38470  Biso   1.000  H
  C57      1.0000 0.81870  0.35790  0.95250  Biso   1.000  C
  C58      1.0000 0.18130  0.64210  0.45250  Biso   1.000  C
  C59      1.0000 0.31870  0.14210  0.95250  Biso   1.000  C
  C60      1.0000 0.68130  0.85790  0.45250  Biso   1.000  C
  C61      1.0000 0.82920  0.28720  0.89340  Biso   1.000  C
  C62      1.0000 0.17080  0.71280  0.39340  Biso   1.000  C
  C63      1.0000 0.32920  0.21280  0.89340  Biso   1.000  C
  C64      1.0000 0.67080  0.78720  0.39340  Biso   1.000  C
  C65      1.0000 0.88440  0.21100  0.90560  Biso   1.000  C
  C66      1.0000 0.11560  0.78900  0.40560  Biso   1.000  C
  C67      1.0000 0.38440  0.28900  0.90560  Biso   1.000  C
  C68      1.0000 0.61560  0.71100  0.40560  Biso   1.000  C
  H81      1.0000 0.91310  0.20400  0.95080  Biso   1.000  H
  H82      1.0000 0.08690  0.79600  0.45080  Biso   1.000  H
  H83      1.0000 0.41310  0.29600  0.95080  Biso   1.000  H
  H84      1.0000 0.58690  0.70400  0.45080  Biso   1.000  H
  C69      1.0000 0.89740  0.14510  0.85140  Biso   1.000  C
  C70      1.0000 0.10260  0.85490  0.35140  Biso   1.000  C
  C71      1.0000 0.39740  0.35490  0.85140  Biso   1.000  C
  C72      1.0000 0.60260  0.64510  0.35140  Biso   1.000  C
  C73      1.0000 0.85360  0.15330  0.78640  Biso   1.000  C
  C74      1.0000 0.14640  0.84670  0.28640  Biso   1.000  C
  C75      1.0000 0.35360  0.34670  0.78640  Biso   1.000  C
  C76      1.0000 0.64640  0.65330  0.28640  Biso   1.000  C
  H85      1.0000 0.86070  0.10670  0.75020  Biso   1.000  H
  H86      1.0000 0.13930  0.89330  0.25020  Biso   1.000  H
  H87      1.0000 0.36070  0.39330  0.75020  Biso   1.000  H
  H88      1.0000 0.63930  0.60670  0.25020  Biso   1.000  H
  C77      1.0000 0.79870  0.23090  0.77430  Biso   1.000  C
  C78      1.0000 0.20130  0.76910  0.27430  Biso   1.000  C
  C79      1.0000 0.29870  0.26910  0.77430  Biso   1.000  C
  C80      1.0000 0.70130  0.73090  0.27430  Biso   1.000  C
  H89      1.0000 0.77030  0.23820  0.72910  Biso   1.000  H
  H90      1.0000 0.22970  0.76180  0.22910  Biso   1.000  H
  H91      1.0000 0.27030  0.26180  0.72910  Biso   1.000  H
  H92      1.0000 0.72970  0.73820  0.22910  Biso   1.000  H
  C81      1.0000 0.78580  0.29720  0.82810  Biso   1.000  C
  C82      1.0000 0.21420  0.70280  0.32810  Biso   1.000  C
  C83      1.0000 0.28580  0.20280  0.82810  Biso   1.000  C
  C84      1.0000 0.71420  0.79720  0.32810  Biso   1.000  C
  H93      1.0000 0.74760  0.34910  0.82030  Biso   1.000  H
  H94      1.0000 0.25240  0.65090  0.32030  Biso   1.000  H
  H95      1.0000 0.24760  0.15090  0.82030  Biso   1.000  H
  H96      1.0000 0.75240  0.84910  0.32030  Biso   1.000  H
  C85      1.0000 0.91370  0.85910  0.05060  Biso   1.000  C
  C86      1.0000 0.08630  0.14090  0.55060  Biso   1.000  C
  C87      1.0000 0.41370  0.64090  0.05060  Biso   1.000  C
  C88      1.0000 0.58630  0.35910  0.55060  Biso   1.000  C
  C89      1.0000 0.90870  0.78460  0.10700  Biso   1.000  C
  C90      1.0000 0.09130  0.21540  0.60700  Biso   1.000  C
  C91      1.0000 0.40870  0.71540  0.10700  Biso   1.000  C
  C92      1.0000 0.59130  0.28460  0.60700  Biso   1.000  C
  C93      1.0000 0.84910  0.71180  0.09710  Biso   1.000  C
  C94      1.0000 0.15090  0.28820  0.59710  Biso   1.000  C
  C95      1.0000 0.34910  0.78820  0.09710  Biso   1.000  C
  C96      1.0000 0.65090  0.21180  0.59710  Biso   1.000  C
  H97      1.0000 0.81190  0.71190  0.05600  Biso   1.000  H
  H98      1.0000 0.18810  0.28810  0.55600  Biso   1.000  H
  H99      1.0000 0.31190  0.78810  0.05600  Biso   1.000  H
  H100     1.0000 0.68810  0.21190  0.55600  Biso   1.000  H
  C97      1.0000 0.84340  0.63860  0.14660  Biso   1.000  C
  C98      1.0000 0.15660  0.36140  0.64660  Biso   1.000  C
  C99      1.0000 0.34340  0.86140  0.14660  Biso   1.000  C
  C100     1.0000 0.65660  0.13860  0.64660  Biso   1.000  C
  C101     1.0000 0.89980  0.63800  0.20560  Biso   1.000  C
  C102     1.0000 0.10020  0.36200  0.70560  Biso   1.000  C
  C103     1.0000 0.39980  0.86200  0.20560  Biso   1.000  C
  C104     1.0000 0.60020  0.13800  0.70560  Biso   1.000  C
  H101     1.0000 0.89850  0.58690  0.23860  Biso   1.000  H
  H102     1.0000 0.10150  0.41310  0.73860  Biso   1.000  H
  H103     1.0000 0.39850  0.91310  0.23860  Biso   1.000  H
  H104     1.0000 0.60150  0.08690  0.73860  Biso   1.000  H
  C105     1.0000 0.95790  0.71200  0.21590  Biso   1.000  C
  C106     1.0000 0.04210  0.28800  0.71590  Biso   1.000  C
  C107     1.0000 0.45790  0.78800  0.21590  Biso   1.000  C
  C108     1.0000 0.54210  0.21200  0.71590  Biso   1.000  C
  H105     1.0000 0.99480  0.71210  0.25720  Biso   1.000  H
  H106     1.0000 0.00520  0.28790  0.75720  Biso   1.000  H
  H107     1.0000 0.49480  0.78790  0.25720  Biso   1.000  H
  H108     1.0000 0.50520  0.21210  0.75720  Biso   1.000  H
  C109     1.0000 0.96310  0.78530  0.16790  Biso   1.000  C
  C110     1.0000 0.03690  0.21470  0.66790  Biso   1.000  C
  C111     1.0000 0.46310  0.71470  0.16790  Biso   1.000  C
  C112     1.0000 0.53690  0.28530  0.66790  Biso   1.000  C
  H109     1.0000 0.00310  0.83560  0.17570  Biso   1.000  H
  H110     1.0000 0.99690  0.16440  0.67570  Biso   1.000  H
  H111     1.0000 0.50310  0.66440  0.17570  Biso   1.000  H
  H112     1.0000 0.49690  0.33560  0.67570  Biso   1.000  H
  H113     1.0000 0.92480  0.83880  0.81780  Biso   1.000  H
  H114     1.0000 0.07520  0.16120  0.31780  Biso   1.000  H
  H115     1.0000 0.42480  0.66120  0.81780  Biso   1.000  H
  H116     1.0000 0.57520  0.33880  0.31780  Biso   1.000  H
  H117     1.0000 0.86510  0.87030  0.79770  Biso   1.000  H
  H118     1.0000 0.13490  0.12970  0.29770  Biso   1.000  H
  H119     1.0000 0.36510  0.62970  0.79770  Biso   1.000  H
  H120     1.0000 0.63490  0.37030  0.29770  Biso   1.000  H
  O53      1.0000 0.99593  0.27790  0.34295  Biso   1.000  O
  O54      1.0000 0.00407  0.72210  0.84295  Biso   1.000  O
  O55      1.0000 0.49593  0.22210  0.34295  Biso   1.000  O
  O56      1.0000 0.50407  0.77790  0.84295  Biso   1.000  O
  H121     1.0000 0.04540  0.30230  0.37130  Biso   1.000  H
  H122     1.0000 0.95460  0.69770  0.87130  Biso   1.000  H
  H123     1.0000 0.54540  0.19770  0.37130  Biso   1.000  H
  H124     1.0000 0.45460  0.80230  0.87130  Biso   1.000  H
  H125     1.0000 0.94960  0.32270  0.33780  Biso   1.000  H
  H126     1.0000 0.05040  0.67730  0.83780  Biso   1.000  H
  H127     1.0000 0.44960  0.17730  0.33780  Biso   1.000  H
  H128     1.0000 0.55040  0.82270  0.83780  Biso   1.000  H
  O57      1.0000 0.13900  0.33590  0.41790  Biso   1.000  O
  O58      1.0000 0.86100  0.66410  0.91790  Biso   1.000  O
  O59      1.0000 0.63900  0.16410  0.41790  Biso   1.000  O
  O60      1.0000 0.36100  0.83590  0.91790  Biso   1.000  O
  H129     1.0000 0.16460  0.38030  0.45240  Biso   1.000  H
  H130     1.0000 0.83540  0.61970  0.95240  Biso   1.000  H
  H131     1.0000 0.66460  0.11970  0.45240  Biso   1.000  H
  H132     1.0000 0.33540  0.88030  0.95240  Biso   1.000  H
  H133     1.0000 0.09830  0.33120  0.45400  Biso   1.000  H
  H134     1.0000 0.90170  0.66880  0.95400  Biso   1.000  H
  H135     1.0000 0.59830  0.16880  0.45400  Biso   1.000  H
  H136     1.0000 0.40170  0.83120  0.95400  Biso   1.000  H
  O61      1.0000 0.06080  0.43910  0.21271  Biso   1.000  O
  O62      1.0000 0.93920  0.56090  0.71271  Biso   1.000  O
  O63      1.0000 0.56080  0.06090  0.21271  Biso   1.000  O
  O64      1.0000 0.43920  0.93910  0.71271  Biso   1.000  O
  H137     1.0000 0.01220  0.42260  0.23320  Biso   1.000  H
  H138     1.0000 0.98780  0.57740  0.73320  Biso   1.000  H
  H139     1.0000 0.51220  0.07740  0.23320  Biso   1.000  H
  H140     1.0000 0.48780  0.92260  0.73320  Biso   1.000  H
  H141     1.0000 0.10140  0.45680  0.24130  Biso   1.000  H
  H142     1.0000 0.89860  0.54320  0.74130  Biso   1.000  H
  H143     1.0000 0.60140  0.04320  0.24130  Biso   1.000  H
  H144     1.0000 0.39860  0.95680  0.74130  Biso   1.000  H
  O65      1.0000 0.01580  0.01200  0.19628  Biso   1.000  O
  O66      1.0000 0.98420  0.98800  0.69628  Biso   1.000  O
  O67      1.0000 0.51580  0.48800  0.19628  Biso   1.000  O
  O68      1.0000 0.48420  0.51200  0.69628  Biso   1.000  O
  H145     1.0000 0.04270  0.01930  0.17030  Biso   1.000  H
  H146     1.0000 0.95730  0.98070  0.67030  Biso   1.000  H
  H147     1.0000 0.54270  0.48070  0.17030  Biso   1.000  H
  H148     1.0000 0.45730  0.51930  0.67030  Biso   1.000  H
  H149     1.0000 0.99640  0.07620  0.20770  Biso   1.000  H
  H150     1.0000 0.00360  0.92380  0.70770  Biso   1.000  H
  H151     1.0000 0.49640  0.42380  0.20770  Biso   1.000  H
  H152     1.0000 0.50360  0.57620  0.70770  Biso   1.000  H
  O69      1.0000 0.83670  0.15190  0.08100  Biso   1.000  O
  O70      1.0000 0.16330  0.84810  0.58100  Biso   1.000  O
  O71      1.0000 0.33670  0.34810  0.08100  Biso   1.000  O
  O72      1.0000 0.66330  0.65190  0.58100  Biso   1.000  O
  H153     1.0000 0.88860  0.12900  0.05330  Biso   1.000  H
  H154     1.0000 0.11140  0.87100  0.55330  Biso   1.000  H
  H155     1.0000 0.38860  0.37100  0.05330  Biso   1.000  H
  H156     1.0000 0.61140  0.62900  0.55330  Biso   1.000  H
  H157     1.0000 0.83320  0.20670  0.06430  Biso   1.000  H
  H158     1.0000 0.16680  0.79330  0.56430  Biso   1.000  H
  H159     1.0000 0.33320  0.29330  0.06430  Biso   1.000  H
  H160     1.0000 0.66680  0.70670  0.56430  Biso   1.000  H
  O73      1.0000 0.13500  0.25690  0.20070  Biso   1.000  O
  O74      1.0000 0.86500  0.74310  0.70070  Biso   1.000  O
  O75      1.0000 0.63500  0.24310  0.20070  Biso   1.000  O
  O76      1.0000 0.36500  0.75690  0.70070  Biso   1.000  O
  O77      1.0000 0.70780  0.04770  0.30590  Biso   1.000  O
  O78      1.0000 0.29220  0.95230  0.80590  Biso   1.000  O
  O79      1.0000 0.20780  0.45230  0.30590  Biso   1.000  O
  O80      1.0000 0.79220  0.54770  0.80590  Biso   1.000  O
  O81      1.0000 0.86300  0.11640  0.22760  Biso   1.000  O
  O82      1.0000 0.13700  0.88360  0.72760  Biso   1.000  O
  O83      1.0000 0.36300  0.38360  0.22760  Biso   1.000  O
  O84      1.0000 0.63700  0.61640  0.72760  Biso   1.000  O
  O85      1.0000 0.18660  0.29670  0.17450  Biso   1.000  O
  O86      1.0000 0.81340  0.70330  0.67450  Biso   1.000  O
  O87      1.0000 0.68660  0.20330  0.17450  Biso   1.000  O
  O88      1.0000 0.31340  0.79670  0.67450  Biso   1.000  O
  O89      1.0000 0.85220  0.99860  0.29220  Biso   1.000  O
  O90      1.0000 0.14780  0.00140  0.79220  Biso   1.000  O
  O91      1.0000 0.35220  0.50140  0.29220  Biso   1.000  O
  O92      1.0000 0.64780  0.49860  0.79220  Biso   1.000  O
  O93      1.0000 0.90870  0.14880  0.21010  Biso   1.000  O
  O94      1.0000 0.09130  0.85120  0.71010  Biso   1.000  O
  O95      1.0000 0.40870  0.35120  0.21010  Biso   1.000  O
  O96      1.0000 0.59130  0.64880  0.71010  Biso   1.000  O
