data_image0
_cell_length_a       9.8652
_cell_length_b       14.8494
_cell_length_c       15.1177
_cell_angle_alpha    60.804
_cell_angle_beta     87.3393
_cell_angle_gamma    86.8946

_symmetry_space_group_name_H-M    "P 1"
_symmetry_int_tables_number       1

loop_
  _symmetry_equiv_pos_as_xyz
  'x, y, z'

loop_
  _atom_site_label
  _atom_site_occupancy
  _atom_site_fract_x
  _atom_site_fract_y
  _atom_site_fract_z
  _atom_site_thermal_displace_type
  _atom_site_B_iso_or_equiv
  _atom_site_type_symbol
  Cu1      1.0000 0.59903  0.05972  0.94438  Biso   1.000  Cu
  Cu2      1.0000 0.40097  0.94028  0.05562  Biso   1.000  Cu
  Cu3      1.0000 0.50000  0.50000  0.50000  Biso   1.000  Cu
  C1       1.0000 0.68840  0.94200  0.25460  Biso   1.000  C
  C2       1.0000 0.31160  0.05800  0.74540  Biso   1.000  C
  C3       1.0000 0.81590  0.98360  0.24510  Biso   1.000  C
  C4       1.0000 0.18410  0.01640  0.75490  Biso   1.000  C
  H1       1.0000 0.85350  0.02830  0.18000  Biso   1.000  H
  H2       1.0000 0.14650  0.97170  0.82000  Biso   1.000  H
  C5       1.0000 0.88630  0.95870  0.33140  Biso   1.000  C
  C6       1.0000 0.11370  0.04130  0.66860  Biso   1.000  C
  I1       1.0000 0.07710  0.02253  0.31359  Biso   1.000  I
  I2       1.0000 0.92290  0.97747  0.68641  Biso   1.000  I
  C7       1.0000 0.83280  0.89320  0.42780  Biso   1.000  C
  C8       1.0000 0.16720  0.10680  0.57220  Biso   1.000  C
  H3       1.0000 0.88260  0.87620  0.48650  Biso   1.000  H
  H4       1.0000 0.11740  0.12380  0.51350  Biso   1.000  H
  C9       1.0000 0.70720  0.85380  0.43660  Biso   1.000  C
  C10      1.0000 0.29280  0.14620  0.56340  Biso   1.000  C
  H5       1.0000 0.66960  0.81010  0.50200  Biso   1.000  H
  H6       1.0000 0.33040  0.18990  0.49800  Biso   1.000  H
  C11      1.0000 0.63360  0.87700  0.35050  Biso   1.000  C
  C12      1.0000 0.36640  0.12300  0.64950  Biso   1.000  C
  H7       1.0000 0.54720  0.84870  0.35740  Biso   1.000  H
  H8       1.0000 0.45280  0.15130  0.64260  Biso   1.000  H
  C13      1.0000 0.61530  0.96530  0.16060  Biso   1.000  C
  C14      1.0000 0.38470  0.03470  0.83940  Biso   1.000  C
  O1       1.0000 0.67200  0.02400  0.07710  Biso   1.000  O
  O2       1.0000 0.32800  0.97600  0.92290  Biso   1.000  O
  O3       1.0000 0.50460  0.92230  0.17180  Biso   1.000  O
  O4       1.0000 0.49540  0.07770  0.82820  Biso   1.000  O
  C15      1.0000 0.29180  0.25100  0.97950  Biso   1.000  C
  C16      1.0000 0.70820  0.74900  0.02050  Biso   1.000  C
  C17      1.0000 0.16060  0.23650  0.01970  Biso   1.000  C
  C18      1.0000 0.83940  0.76350  0.98030  Biso   1.000  C
  H9       1.0000 0.12720  0.16880  0.05760  Biso   1.000  H
  H10      1.0000 0.87280  0.83120  0.94240  Biso   1.000  H
  C19      1.0000 0.07850  0.32140  0.00410  Biso   1.000  C
  C20      1.0000 0.92150  0.67860  0.99590  Biso   1.000  C
  I3       1.0000 0.87771  0.29710  0.06257  Biso   1.000  I
  I4       1.0000 0.12229  0.70290  0.93743  Biso   1.000  I
  C21      1.0000 0.12530  0.42110  0.94850  Biso   1.000  C
  C22      1.0000 0.87470  0.57890  0.05150  Biso   1.000  C
  H11      1.0000 0.06770  0.47900  0.93690  Biso   1.000  H
  H12      1.0000 0.93230  0.52100  0.06310  Biso   1.000  H
  C23      1.0000 0.25740  0.43440  0.91020  Biso   1.000  C
  C24      1.0000 0.74260  0.56560  0.08980  Biso   1.000  C
  H13      1.0000 0.29120  0.50200  0.87380  Biso   1.000  H
  H14      1.0000 0.70880  0.49800  0.12620  Biso   1.000  H
  C25      1.0000 0.34160  0.34990  0.92430  Biso   1.000  C
  C26      1.0000 0.65840  0.65010  0.07570  Biso   1.000  C
  H15      1.0000 0.43150  0.35980  0.89680  Biso   1.000  H
  H16      1.0000 0.56850  0.64020  0.10320  Biso   1.000  H
  C27      1.0000 0.37610  0.15920  0.98820  Biso   1.000  C
  C28      1.0000 0.62390  0.84080  0.01180  Biso   1.000  C
  O5       1.0000 0.49050  0.17470  0.94520  Biso   1.000  O
  O6       1.0000 0.50950  0.82530  0.05480  Biso   1.000  O
  O7       1.0000 0.32300  0.07290  0.03800  Biso   1.000  O
  O8       1.0000 0.67700  0.92710  0.96200  Biso   1.000  O
  C29      1.0000 0.60810  0.28020  0.42260  Biso   1.000  C
  C30      1.0000 0.39190  0.71980  0.57740  Biso   1.000  C
  C31      1.0000 0.55640  0.30110  0.33020  Biso   1.000  C
  C32      1.0000 0.44360  0.69890  0.66980  Biso   1.000  C
  H17      1.0000 0.50970  0.36500  0.28910  Biso   1.000  H
  H18      1.0000 0.49030  0.63500  0.71090  Biso   1.000  H
  C33      1.0000 0.57380  0.22760  0.29850  Biso   1.000  C
  C34      1.0000 0.42620  0.77240  0.70150  Biso   1.000  C
  I5       1.0000 0.49925  0.25691  0.15914  Biso   1.000  I
  I6       1.0000 0.50075  0.74309  0.84086  Biso   1.000  I
  C35      1.0000 0.64020  0.13360  0.35750  Biso   1.000  C
  C36      1.0000 0.35980  0.86640  0.64250  Biso   1.000  C
  H19      1.0000 0.65000  0.08330  0.33580  Biso   1.000  H
  H20      1.0000 0.35000  0.91670  0.66420  Biso   1.000  H
  C37      1.0000 0.69280  0.11420  0.45000  Biso   1.000  C
  C38      1.0000 0.30720  0.88580  0.55000  Biso   1.000  C
  H21      1.0000 0.73920  0.05020  0.49130  Biso   1.000  H
  H22      1.0000 0.26080  0.94980  0.50870  Biso   1.000  H
  C39      1.0000 0.67760  0.18770  0.48170  Biso   1.000  C
  C40      1.0000 0.32240  0.81230  0.51830  Biso   1.000  C
  H23      1.0000 0.71500  0.17450  0.54390  Biso   1.000  H
  H24      1.0000 0.28500  0.82550  0.45610  Biso   1.000  H
  C41      1.0000 0.58730  0.35580  0.46160  Biso   1.000  C
  C42      1.0000 0.41270  0.64420  0.53840  Biso   1.000  C
  O9       1.0000 0.50940  0.43520  0.41100  Biso   1.000  O
  O10      1.0000 0.49060  0.56480  0.58900  Biso   1.000  O
  O11      1.0000 0.64320  0.33990  0.53940  Biso   1.000  O
  O12      1.0000 0.35680  0.66010  0.46060  Biso   1.000  O
  C43      1.0000 0.12440  0.35250  0.57840  Biso   1.000  C
  C44      1.0000 0.87560  0.64750  0.42160  Biso   1.000  C
  H25      1.0000 0.04860  0.35260  0.54180  Biso   1.000  H
  H26      1.0000 0.95140  0.64740  0.45820  Biso   1.000  H
  C45      1.0000 0.23690  0.40930  0.52780  Biso   1.000  C
  C46      1.0000 0.76310  0.59070  0.47220  Biso   1.000  C
  H27      1.0000 0.23680  0.44780  0.45590  Biso   1.000  H
  H28      1.0000 0.76320  0.55220  0.54410  Biso   1.000  H
  N1       1.0000 0.34640  0.41210  0.57640  Biso   1.000  N
  N2       1.0000 0.65360  0.58790  0.42360  Biso   1.000  N
  C47      1.0000 0.34620  0.35540  0.67760  Biso   1.000  C
  C48      1.0000 0.65380  0.64460  0.32240  Biso   1.000  C
  H29      1.0000 0.42330  0.35610  0.71260  Biso   1.000  H
  H30      1.0000 0.57670  0.64390  0.28740  Biso   1.000  H
  C49      1.0000 0.23920  0.29600  0.73290  Biso   1.000  C
  C50      1.0000 0.76080  0.70400  0.26710  Biso   1.000  C
  H31      1.0000 0.24420  0.25570  0.80450  Biso   1.000  H
  H32      1.0000 0.75580  0.74430  0.19550  Biso   1.000  H
  C51      1.0000 0.12390  0.29500  0.68400  Biso   1.000  C
  C52      1.0000 0.87610  0.70500  0.31600  Biso   1.000  C
  C53      1.0000 0.00290  0.23720  0.74220  Biso   1.000  C
  C54      1.0000 0.99710  0.76280  0.25780  Biso   1.000  C
  C55      1.0000 0.87840  0.25340  0.69800  Biso   1.000  C
  C56      1.0000 0.12160  0.74660  0.30200  Biso   1.000  C
  H33      1.0000 0.86940  0.29900  0.62740  Biso   1.000  H
  H34      1.0000 0.13060  0.70100  0.37260  Biso   1.000  H
  C57      1.0000 0.76580  0.20280  0.75710  Biso   1.000  C
  C58      1.0000 0.23420  0.79720  0.24290  Biso   1.000  C
  H35      1.0000 0.68110  0.21430  0.72500  Biso   1.000  H
  H36      1.0000 0.31890  0.78570  0.27500  Biso   1.000  H
  N3       1.0000 0.77170  0.13890  0.85670  Biso   1.000  N
  N4       1.0000 0.22830  0.86110  0.14330  Biso   1.000  N
  C59      1.0000 0.89340  0.12120  0.89950  Biso   1.000  C
  C60      1.0000 0.10660  0.87880  0.10050  Biso   1.000  C
  H37      1.0000 0.89960  0.07480  0.97010  Biso   1.000  H
  H38      1.0000 0.10040  0.92520  0.02990  Biso   1.000  H
  C61      1.0000 0.00950  0.16670  0.84610  Biso   1.000  C
  C62      1.0000 0.99050  0.83330  0.15390  Biso   1.000  C
  H39      1.0000 0.09390  0.15050  0.87940  Biso   1.000  H
  H40      1.0000 0.90610  0.84950  0.12060  Biso   1.000  H
  C63      1.0000 0.83340  0.51100  0.75960  Biso   1.000  C
  C64      1.0000 0.16660  0.48900  0.24040  Biso   1.000  C
  C65      1.0000 0.94650  0.51250  0.70320  Biso   1.000  C
  C66      1.0000 0.05350  0.48750  0.29680  Biso   1.000  C
  H41      1.0000 0.96350  0.45820  0.68750  Biso   1.000  H
  H42      1.0000 0.03650  0.54180  0.31250  Biso   1.000  H
  C67      1.0000 0.03770  0.59230  0.66800  Biso   1.000  C
  C68      1.0000 0.96230  0.40770  0.33200  Biso   1.000  C
  H43      1.0000 0.11570  0.59260  0.62860  Biso   1.000  H
  H44      1.0000 0.88430  0.40740  0.37140  Biso   1.000  H
  C69      1.0000 0.01270  0.67090  0.69160  Biso   1.000  C
  C70      1.0000 0.98730  0.32910  0.30840  Biso   1.000  C
  H45      1.0000 0.07360  0.72570  0.66880  Biso   1.000  H
  H46      1.0000 0.92640  0.27430  0.33120  Biso   1.000  H
  C71      1.0000 0.89770  0.66870  0.74890  Biso   1.000  C
  C72      1.0000 0.10230  0.33130  0.25110  Biso   1.000  C
  H47      1.0000 0.87990  0.72210  0.76570  Biso   1.000  H
  H48      1.0000 0.12010  0.27790  0.23430  Biso   1.000  H
  C73      1.0000 0.81010  0.59020  0.78120  Biso   1.000  C
  C74      1.0000 0.18990  0.40980  0.21880  Biso   1.000  C
  H49      1.0000 0.73110  0.59040  0.81950  Biso   1.000  H
  H50      1.0000 0.26890  0.40960  0.18050  Biso   1.000  H
  C75      1.0000 0.73620  0.42280  0.79890  Biso   1.000  C
  C76      1.0000 0.26380  0.57720  0.20110  Biso   1.000  C
  H51      1.0000 0.79020  0.35700  0.82960  Biso   1.000  H
  H52      1.0000 0.20980  0.64300  0.17040  Biso   1.000  H
  H53      1.0000 0.67840  0.42440  0.85350  Biso   1.000  H
  H54      1.0000 0.32160  0.57560  0.14650  Biso   1.000  H
  O13      1.0000 0.65630  0.42310  0.73110  Biso   1.000  O
  O14      1.0000 0.34370  0.57690  0.26890  Biso   1.000  O
  H55      1.0000 0.58020  0.45010  0.73370  Biso   1.000  H
  H56      1.0000 0.41980  0.54990  0.26630  Biso   1.000  H
