data_image0
_cell_length_a       7.9727
_cell_length_b       22.654
_cell_length_c       8.7259
_cell_angle_alpha    90
_cell_angle_beta     105.636
_cell_angle_gamma    90

_symmetry_space_group_name_H-M    "P 1"
_symmetry_int_tables_number       1

loop_
  _symmetry_equiv_pos_as_xyz
  'x, y, z'

loop_
  _atom_site_label
  _atom_site_occupancy
  _atom_site_fract_x
  _atom_site_fract_y
  _atom_site_fract_z
  _atom_site_thermal_displace_type
  _atom_site_B_iso_or_equiv
  _atom_site_type_symbol
  Cu1      1.0000 0.83030  0.24937  0.72522  Biso   1.000  Cu
  Cu2      1.0000 0.16970  0.74937  0.27478  Biso   1.000  Cu
  C1       1.0000 0.67970  0.08810  0.53030  Biso   1.000  C
  C2       1.0000 0.32030  0.58810  0.46970  Biso   1.000  C
  C3       1.0000 0.75900  0.03320  0.56850  Biso   1.000  C
  C4       1.0000 0.24100  0.53320  0.43150  Biso   1.000  C
  H1       1.0000 0.85050  0.02760  0.66290  Biso   1.000  H
  H2       1.0000 0.14950  0.52760  0.33710  Biso   1.000  H
  C5       1.0000 0.69830  0.98640  0.46170  Biso   1.000  C
  C6       1.0000 0.30170  0.48640  0.53830  Biso   1.000  C
  I1       1.0000 0.98043  0.59722  0.70929  Biso   1.000  I
  I2       1.0000 0.01957  0.09722  0.29071  Biso   1.000  I
  C7       1.0000 0.56110  0.99300  0.32530  Biso   1.000  C
  C8       1.0000 0.43890  0.49300  0.67470  Biso   1.000  C
  H3       1.0000 0.51980  0.96050  0.25670  Biso   1.000  H
  H4       1.0000 0.48020  0.46050  0.74330  Biso   1.000  H
  C9       1.0000 0.48610  0.04860  0.29210  Biso   1.000  C
  C10      1.0000 0.51390  0.54860  0.70790  Biso   1.000  C
  H5       1.0000 0.39460  0.05450  0.19790  Biso   1.000  H
  H6       1.0000 0.60540  0.55450  0.80210  Biso   1.000  H
  C11      1.0000 0.54330  0.09540  0.39450  Biso   1.000  C
  C12      1.0000 0.45670  0.59540  0.60550  Biso   1.000  C
  H7       1.0000 0.48860  0.13280  0.37160  Biso   1.000  H
  H8       1.0000 0.51140  0.63280  0.62840  Biso   1.000  H
  C13      1.0000 0.75140  0.14070  0.63320  Biso   1.000  C
  C14      1.0000 0.24860  0.64070  0.36680  Biso   1.000  C
  O1       1.0000 0.67830  0.19020  0.58900  Biso   1.000  O
  O2       1.0000 0.32170  0.69020  0.41100  Biso   1.000  O
  O3       1.0000 0.87590  0.13500  0.75450  Biso   1.000  O
  O4       1.0000 0.12410  0.63500  0.24550  Biso   1.000  O
  C15      1.0000 0.01220  0.41290  0.85960  Biso   1.000  C
  C16      1.0000 0.98780  0.91290  0.14040  Biso   1.000  C
  C17      1.0000 0.96280  0.46560  0.77200  Biso   1.000  C
  C18      1.0000 0.03720  0.96560  0.22800  Biso   1.000  C
  H9       1.0000 0.87360  0.46570  0.67460  Biso   1.000  H
  H10      1.0000 0.12640  0.96570  0.32540  Biso   1.000  H
  C19      1.0000 0.04930  0.51750  0.83310  Biso   1.000  C
  C20      1.0000 0.95070  0.01750  0.16690  Biso   1.000  C
  I3       1.0000 0.81224  0.90302  0.51867  Biso   1.000  I
  I4       1.0000 0.18776  0.40302  0.48133  Biso   1.000  I
  C21      1.0000 0.18290  0.51780  0.97370  Biso   1.000  C
  C22      1.0000 0.81710  0.01780  0.02630  Biso   1.000  C
  H11      1.0000 0.24160  0.55340  0.01320  Biso   1.000  H
  H12      1.0000 0.75840  0.05340  0.98680  Biso   1.000  H
  C23      1.0000 0.22890  0.46530  0.05490  Biso   1.000  C
  C24      1.0000 0.77110  0.96530  0.94510  Biso   1.000  C
  H13      1.0000 0.32070  0.46510  0.15050  Biso   1.000  H
  H14      1.0000 0.67930  0.96510  0.84950  Biso   1.000  H
  C25      1.0000 0.14370  0.41310  0.99960  Biso   1.000  C
  C26      1.0000 0.85630  0.91310  0.00040  Biso   1.000  C
  H15      1.0000 0.17580  0.37750  0.05770  Biso   1.000  H
  H16      1.0000 0.82420  0.87750  0.94230  Biso   1.000  H
  C27      1.0000 0.91920  0.35650  0.79220  Biso   1.000  C
  C28      1.0000 0.08080  0.85650  0.20780  Biso   1.000  C
  O5       1.0000 0.78550  0.35740  0.67870  Biso   1.000  O
  O6       1.0000 0.21450  0.85740  0.32130  Biso   1.000  O
  O7       1.0000 0.98670  0.30850  0.85840  Biso   1.000  O
  O8       1.0000 0.01330  0.80850  0.14160  Biso   1.000  O
  C29      1.0000 0.03610  0.27230  0.32900  Biso   1.000  C
  C30      1.0000 0.96390  0.77230  0.67100  Biso   1.000  C
  H17      1.0000 0.99360  0.28830  0.22500  Biso   1.000  H
  H18      1.0000 0.00640  0.78830  0.77500  Biso   1.000  H
  C31      1.0000 0.92950  0.27010  0.43160  Biso   1.000  C
  C32      1.0000 0.07050  0.77010  0.56840  Biso   1.000  C
  H19      1.0000 0.81530  0.28600  0.39710  Biso   1.000  H
  H20      1.0000 0.18470  0.78600  0.60290  Biso   1.000  H
  N1       1.0000 0.98120  0.24670  0.57470  Biso   1.000  N
  N2       1.0000 0.01880  0.74670  0.42530  Biso   1.000  N
  C33      1.0000 0.14190  0.22290  0.62280  Biso   1.000  C
  C34      1.0000 0.85810  0.72290  0.37720  Biso   1.000  C
  H21      1.0000 0.17800  0.20500  0.72480  Biso   1.000  H
  H22      1.0000 0.82200  0.70500  0.27520  Biso   1.000  H
  C35      1.0000 0.25600  0.22380  0.52790  Biso   1.000  C
  C36      1.0000 0.74400  0.72380  0.47210  Biso   1.000  C
  H23      1.0000 0.36720  0.20570  0.56420  Biso   1.000  H
  H24      1.0000 0.63280  0.70570  0.43580  Biso   1.000  H
  C37      1.0000 0.20880  0.25060  0.38140  Biso   1.000  C
  C38      1.0000 0.79120  0.75060  0.61860  Biso   1.000  C
  C39      1.0000 0.34180  0.25900  0.28570  Biso   1.000  C
  C40      1.0000 0.65820  0.75900  0.71430  Biso   1.000  C
  H25      1.0000 0.35480  0.30170  0.26730  Biso   1.000  H
  H26      1.0000 0.64520  0.80170  0.73270  Biso   1.000  H
  H27      1.0000 0.45620  0.24380  0.34820  Biso   1.000  H
  H28      1.0000 0.54380  0.74380  0.65180  Biso   1.000  H
  C41      1.0000 0.28800  0.22710  0.12590  Biso   1.000  C
  C42      1.0000 0.71200  0.72710  0.87410  Biso   1.000  C
  H29      1.0000 0.27270  0.18450  0.14360  Biso   1.000  H
  H30      1.0000 0.72730  0.68450  0.85640  Biso   1.000  H
  H31      1.0000 0.17520  0.24300  0.06160  Biso   1.000  H
  H32      1.0000 0.82480  0.74300  0.93840  Biso   1.000  H
  C43      1.0000 0.42310  0.23520  0.03780  Biso   1.000  C
  C44      1.0000 0.57690  0.73520  0.96220  Biso   1.000  C
  C45      1.0000 0.41730  0.28200  0.93310  Biso   1.000  C
  C46      1.0000 0.58270  0.78200  0.06690  Biso   1.000  C
  H33      1.0000 0.32710  0.31050  0.91770  Biso   1.000  H
  H34      1.0000 0.67290  0.81050  0.08230  Biso   1.000  H
  C47      1.0000 0.54420  0.28680  0.85130  Biso   1.000  C
  C48      1.0000 0.45580  0.78680  0.14870  Biso   1.000  C
  H35      1.0000 0.53640  0.31860  0.77890  Biso   1.000  H
  H36      1.0000 0.46360  0.81860  0.22110  Biso   1.000  H
  N3       1.0000 0.67710  0.24870  0.86940  Biso   1.000  N
  N4       1.0000 0.32290  0.74870  0.13060  Biso   1.000  N
  C49      1.0000 0.68790  0.20610  0.97650  Biso   1.000  C
  C50      1.0000 0.31210  0.70610  0.02350  Biso   1.000  C
  H37      1.0000 0.78380  0.17970  0.99400  Biso   1.000  H
  H38      1.0000 0.21620  0.67970  0.00600  Biso   1.000  H
  C51      1.0000 0.56890  0.19760  0.06400  Biso   1.000  C
  C52      1.0000 0.43110  0.69760  0.93600  Biso   1.000  C
  H39      1.0000 0.58530  0.16690  0.14080  Biso   1.000  H
  H40      1.0000 0.41470  0.66690  0.85920  Biso   1.000  H
  C53      1.0000 0.29160  0.01420  0.78050  Biso   1.000  C
  C54      1.0000 0.70840  0.51420  0.21950  Biso   1.000  C
  C55      1.0000 0.34170  0.98630  0.65770  Biso   1.000  C
  C56      1.0000 0.65830  0.48630  0.34230  Biso   1.000  C
  H41      1.0000 0.36330  0.00950  0.57430  Biso   1.000  H
  H42      1.0000 0.63670  0.50950  0.42570  Biso   1.000  H
  C57      1.0000 0.36090  0.92580  0.65420  Biso   1.000  C
  C58      1.0000 0.63910  0.42580  0.34580  Biso   1.000  C
  H43      1.0000 0.39080  0.90730  0.56740  Biso   1.000  H
  H44      1.0000 0.60920  0.40730  0.43260  Biso   1.000  H
  C59      1.0000 0.33560  0.89210  0.78080  Biso   1.000  C
  C60      1.0000 0.66440  0.39210  0.21920  Biso   1.000  C
  H45      1.0000 0.35440  0.85070  0.78370  Biso   1.000  H
  H46      1.0000 0.64560  0.35070  0.21630  Biso   1.000  H
  C61      1.0000 0.28340  0.91950  0.90070  Biso   1.000  C
  C62      1.0000 0.71660  0.41950  0.09930  Biso   1.000  C
  H47      1.0000 0.26100  0.89660  0.98420  Biso   1.000  H
  H48      1.0000 0.73900  0.39660  0.01580  Biso   1.000  H
  C63      1.0000 0.26310  0.98010  0.90090  Biso   1.000  C
  C64      1.0000 0.73690  0.48010  0.09910  Biso   1.000  C
  H49      1.0000 0.22900  0.99840  0.98580  Biso   1.000  H
  H50      1.0000 0.77100  0.49840  0.01420  Biso   1.000  H
  C65      1.0000 0.28200  0.08060  0.78220  Biso   1.000  C
  C66      1.0000 0.71800  0.58060  0.21780  Biso   1.000  C
  H51      1.0000 0.39990  0.09670  0.79220  Biso   1.000  H
  H52      1.0000 0.60010  0.59670  0.20780  Biso   1.000  H
  H53      1.0000 0.20570  0.09410  0.67890  Biso   1.000  H
  H54      1.0000 0.79430  0.59410  0.32110  Biso   1.000  H
  O9       1.0000 0.21780  0.10450  0.90730  Biso   1.000  O
  O10      1.0000 0.78220  0.60450  0.09270  Biso   1.000  O
  H55      1.0000 0.10850  0.10540  0.87800  Biso   1.000  H
  H56      1.0000 0.89150  0.60540  0.12200  Biso   1.000  H
