data_image0
_cell_length_a       7.8103
_cell_length_b       15.217
_cell_length_c       16.61
_cell_angle_alpha    111.145
_cell_angle_beta     91.219
_cell_angle_gamma    96.167

_symmetry_space_group_name_H-M    "P 1"
_symmetry_int_tables_number       1

loop_
  _symmetry_equiv_pos_as_xyz
  'x, y, z'

loop_
  _atom_site_label
  _atom_site_occupancy
  _atom_site_fract_x
  _atom_site_fract_y
  _atom_site_fract_z
  _atom_site_thermal_displace_type
  _atom_site_B_iso_or_equiv
  _atom_site_type_symbol
  Cu1      1.0000 0.38610  0.54954  0.54922  Biso   1.000  Cu
  Cu2      1.0000 0.61390  0.45046  0.45078  Biso   1.000  Cu
  Cu3      1.0000 0.50000  0.00000  0.00000  Biso   1.000  Cu
  O1       1.0000 0.54930  0.55000  0.64140  Biso   1.000  O
  O2       1.0000 0.45070  0.45000  0.35860  Biso   1.000  O
  O3       1.0000 0.53510  0.65520  0.53520  Biso   1.000  O
  O4       1.0000 0.46490  0.34480  0.46480  Biso   1.000  O
  O5       1.0000 0.74640  0.46750  0.55920  Biso   1.000  O
  O6       1.0000 0.25360  0.53250  0.44080  Biso   1.000  O
  O7       1.0000 0.72890  0.57420  0.45300  Biso   1.000  O
  O8       1.0000 0.27110  0.42580  0.54700  Biso   1.000  O
  O9       1.0000 0.71750  0.14060  0.01360  Biso   1.000  O
  O10      1.0000 0.28250  0.85940  0.98640  Biso   1.000  O
  O11      1.0000 0.48560  0.07260  0.92280  Biso   1.000  O
  O12      1.0000 0.51440  0.92740  0.07720  Biso   1.000  O
  N1       1.0000 0.22650  0.64190  0.63760  Biso   1.000  N
  N2       1.0000 0.77350  0.35810  0.36240  Biso   1.000  N
  C1       1.0000 0.27870  0.69020  0.72450  Biso   1.000  C
  C2       1.0000 0.72130  0.30980  0.27550  Biso   1.000  C
  H1       1.0000 0.39000  0.68570  0.74570  Biso   1.000  H
  H2       1.0000 0.61000  0.31430  0.25430  Biso   1.000  H
  C3       1.0000 0.16810  0.74510  0.78020  Biso   1.000  C
  C4       1.0000 0.83190  0.25490  0.21980  Biso   1.000  C
  H3       1.0000 0.20380  0.77810  0.83950  Biso   1.000  H
  H4       1.0000 0.79620  0.22190  0.16050  Biso   1.000  H
  C5       1.0000 0.00530  0.75170  0.74900  Biso   1.000  C
  C6       1.0000 0.99470  0.24830  0.25100  Biso   1.000  C
  C7       1.0000 0.95310  0.70340  0.66220  Biso   1.000  C
  C8       1.0000 0.04690  0.29660  0.33780  Biso   1.000  C
  H5       1.0000 0.84180  0.70800  0.64090  Biso   1.000  H
  H6       1.0000 0.15820  0.29200  0.35910  Biso   1.000  H
  C9       1.0000 0.06370  0.64850  0.60650  Biso   1.000  C
  C10      1.0000 0.93630  0.35150  0.39350  Biso   1.000  C
  H7       1.0000 0.02800  0.61550  0.54720  Biso   1.000  H
  H8       1.0000 0.97200  0.38450  0.45280  Biso   1.000  H
  N3       1.0000 0.65440  0.91750  0.91990  Biso   1.000  N
  N4       1.0000 0.34560  0.08250  0.08010  Biso   1.000  N
  C11      1.0000 0.62360  0.88820  0.83080  Biso   1.000  C
  C12      1.0000 0.37640  0.11180  0.16920  Biso   1.000  C
  H9       1.0000 0.52500  0.90470  0.80750  Biso   1.000  H
  H10      1.0000 0.47500  0.09530  0.19250  Biso   1.000  H
  C13      1.0000 0.73690  0.83490  0.77570  Biso   1.000  C
  C14      1.0000 0.26310  0.16510  0.22430  Biso   1.000  C
  H11      1.0000 0.71590  0.81490  0.71480  Biso   1.000  H
  H12      1.0000 0.28410  0.18510  0.28520  Biso   1.000  H
  C15      1.0000 0.88110  0.81090  0.80980  Biso   1.000  C
  C16      1.0000 0.11890  0.18910  0.19020  Biso   1.000  C
  C17      1.0000 0.91190  0.84020  0.89890  Biso   1.000  C
  C18      1.0000 0.08810  0.15980  0.10110  Biso   1.000  C
  H13      1.0000 0.01040  0.82370  0.92210  Biso   1.000  H
  H14      1.0000 0.98960  0.17630  0.07790  Biso   1.000  H
  C19      1.0000 0.79850  0.89350  0.95390  Biso   1.000  C
  C20      1.0000 0.20150  0.10650  0.04610  Biso   1.000  C
  H15      1.0000 0.81960  0.91350  0.01480  Biso   1.000  H
  H16      1.0000 0.18040  0.08650  0.98520  Biso   1.000  H
  C21      1.0000 0.68800  0.51140  0.63110  Biso   1.000  C
  C22      1.0000 0.31200  0.48860  0.36890  Biso   1.000  C
  C23      1.0000 0.79120  0.52110  0.71180  Biso   1.000  C
  C24      1.0000 0.20880  0.47890  0.28820  Biso   1.000  C
  C25      1.0000 0.95880  0.49780  0.70900  Biso   1.000  C
  C26      1.0000 0.04120  0.50220  0.29100  Biso   1.000  C
  H17      1.0000 0.00880  0.47290  0.65500  Biso   1.000  H
  H18      1.0000 0.99120  0.52710  0.34500  Biso   1.000  H
  C27      1.0000 0.05320  0.51080  0.78520  Biso   1.000  C
  C28      1.0000 0.94680  0.48920  0.21480  Biso   1.000  C
  H19      1.0000 0.16770  0.49490  0.78320  Biso   1.000  H
  H20      1.0000 0.83230  0.50510  0.21680  Biso   1.000  H
  C29      1.0000 0.98000  0.54720  0.86420  Biso   1.000  C
  C30      1.0000 0.02000  0.45280  0.13580  Biso   1.000  C
  H21      1.0000 0.04450  0.55620  0.91630  Biso   1.000  H
  H22      1.0000 0.95550  0.44380  0.08370  Biso   1.000  H
  C31      1.0000 0.81240  0.57060  0.86700  Biso   1.000  C
  C32      1.0000 0.18760  0.42940  0.13300  Biso   1.000  C
  C33      1.0000 0.71800  0.55750  0.79080  Biso   1.000  C
  C34      1.0000 0.28200  0.44250  0.20920  Biso   1.000  C
  H23      1.0000 0.60340  0.57340  0.79280  Biso   1.000  H
  H24      1.0000 0.39660  0.42660  0.20720  Biso   1.000  H
  I1       1.0000 0.68350  0.63660  0.98700  Biso   1.000  I
  I2       1.0000 0.31650  0.36340  0.01300  Biso   1.000  I
  I3       1.0000 0.70930  0.59760  0.98260  Biso   1.000  I
  I4       1.0000 0.29070  0.40240  0.01740  Biso   1.000  I
  C35      1.0000 0.66700  0.65090  0.49160  Biso   1.000  C
  C36      1.0000 0.33300  0.34910  0.50840  Biso   1.000  C
  C37      1.0000 0.77100  0.74400  0.50200  Biso   1.000  C
  C38      1.0000 0.22900  0.25600  0.49800  Biso   1.000  C
  C39      1.0000 0.93300  0.74600  0.46900  Biso   1.000  C
  C40      1.0000 0.06700  0.25400  0.53100  Biso   1.000  C
  H25      1.0000 0.97010  0.68840  0.43180  Biso   1.000  H
  H26      1.0000 0.02990  0.31160  0.56820  Biso   1.000  H
  C41      1.0000 0.03900  0.83100  0.49000  Biso   1.000  C
  C42      1.0000 0.96100  0.16900  0.51000  Biso   1.000  C
  H27      1.0000 0.14920  0.83220  0.46660  Biso   1.000  H
  H28      1.0000 0.85080  0.16780  0.53340  Biso   1.000  H
  C43      1.0000 0.98400  0.91500  0.54400  Biso   1.000  C
  C44      1.0000 0.01600  0.08500  0.45600  Biso   1.000  C
  H29      1.0000 0.05680  0.97360  0.55800  Biso   1.000  H
  H30      1.0000 0.94320  0.02640  0.44200  Biso   1.000  H
  C45      1.0000 0.82300  0.91400  0.57700  Biso   1.000  C
  C46      1.0000 0.17700  0.08600  0.42300  Biso   1.000  C
  C47      1.0000 0.71600  0.82800  0.55700  Biso   1.000  C
  C48      1.0000 0.28400  0.17200  0.44300  Biso   1.000  C
  H31      1.0000 0.60600  0.82730  0.57960  Biso   1.000  H
  H32      1.0000 0.39400  0.17270  0.42040  Biso   1.000  H
  I5       1.0000 0.74800  0.04110  0.66380  Biso   1.000  I
  I6       1.0000 0.25200  0.95890  0.33620  Biso   1.000  I
  C49      1.0000 0.27800  0.25900  0.51500  Biso   1.000  C
  C50      1.0000 0.72200  0.74100  0.48500  Biso   1.000  C
  C51      1.0000 0.13000  0.25200  0.55800  Biso   1.000  C
  C52      1.0000 0.87000  0.74800  0.44200  Biso   1.000  C
  H33      1.0000 0.06750  0.30490  0.57980  Biso   1.000  H
  H34      1.0000 0.93250  0.69510  0.42020  Biso   1.000  H
  C53      1.0000 0.07200  0.16700  0.56800  Biso   1.000  C
  C54      1.0000 0.92800  0.83300  0.43200  Biso   1.000  C
  H35      1.0000 0.97040  0.16230  0.59720  Biso   1.000  H
  H36      1.0000 0.02960  0.83770  0.40280  Biso   1.000  H
  C55      1.0000 0.16300  0.08900  0.53500  Biso   1.000  C
  C56      1.0000 0.83700  0.91100  0.46500  Biso   1.000  C
  H37      1.0000 0.12360  0.03140  0.54220  Biso   1.000  H
  H38      1.0000 0.87640  0.96860  0.45780  Biso   1.000  H
  C57      1.0000 0.31200  0.09600  0.49200  Biso   1.000  C
  C58      1.0000 0.68800  0.90400  0.50800  Biso   1.000  C
  C59      1.0000 0.36900  0.18100  0.48200  Biso   1.000  C
  C60      1.0000 0.63100  0.81900  0.51800  Biso   1.000  C
  H39      1.0000 0.47100  0.18580  0.45260  Biso   1.000  H
  H40      1.0000 0.52900  0.81420  0.54740  Biso   1.000  H
  I7       1.0000 0.43380  0.97280  0.44510  Biso   1.000  I
  I8       1.0000 0.56620  0.02720  0.55490  Biso   1.000  I
  C61      1.0000 0.24500  0.26900  0.52700  Biso   1.000  C
  C62      1.0000 0.75500  0.73100  0.47300  Biso   1.000  C
  C63      1.0000 0.08300  0.26900  0.55900  Biso   1.000  C
  C64      1.0000 0.91700  0.73100  0.44100  Biso   1.000  C
  H41      1.0000 0.02200  0.32230  0.57060  Biso   1.000  H
  H42      1.0000 0.97800  0.67770  0.42940  Biso   1.000  H
  C65      1.0000 0.00900  0.19000  0.57600  Biso   1.000  C
  C66      1.0000 0.99100  0.81000  0.42400  Biso   1.000  C
  C67      1.0000 0.09800  0.11200  0.55900  Biso   1.000  C
  C68      1.0000 0.90200  0.88800  0.44100  Biso   1.000  C
  H43      1.0000 0.04780  0.05780  0.57070  Biso   1.000  H
  H44      1.0000 0.95220  0.94220  0.42930  Biso   1.000  H
  C69      1.0000 0.26000  0.11200  0.52700  Biso   1.000  C
  C70      1.0000 0.74000  0.88800  0.47300  Biso   1.000  C
  H45      1.0000 0.32090  0.05820  0.51550  Biso   1.000  H
  H46      1.0000 0.67910  0.94180  0.48450  Biso   1.000  H
  C71      1.0000 0.33400  0.19000  0.51000  Biso   1.000  C
  C72      1.0000 0.66600  0.81000  0.49000  Biso   1.000  C
  H47      1.0000 0.44460  0.19060  0.48790  Biso   1.000  H
  H48      1.0000 0.55540  0.80940  0.51210  Biso   1.000  H
  I9       1.0000 0.76070  0.18770  0.61550  Biso   1.000  I
  I10      1.0000 0.23930  0.81230  0.38450  Biso   1.000  I
  C73      1.0000 0.61900  0.13500  0.95090  Biso   1.000  C
  C74      1.0000 0.38100  0.86500  0.04910  Biso   1.000  C
  C75      1.0000 0.65200  0.21000  0.91660  Biso   1.000  C
  C76      1.0000 0.34800  0.79000  0.08340  Biso   1.000  C
  C77      1.0000 0.52300  0.22050  0.86310  Biso   1.000  C
  C78      1.0000 0.47700  0.77950  0.13690  Biso   1.000  C
  H49      1.0000 0.41310  0.18410  0.85510  Biso   1.000  H
  H50      1.0000 0.58690  0.81590  0.14490  Biso   1.000  H
  C79      1.0000 0.55490  0.28440  0.82120  Biso   1.000  C
  C80      1.0000 0.44510  0.71560  0.17880  Biso   1.000  C
  C81      1.0000 0.71580  0.33770  0.83280  Biso   1.000  C
  C82      1.0000 0.28420  0.66230  0.16720  Biso   1.000  C
  H51      1.0000 0.73750  0.38130  0.80420  Biso   1.000  H
  H52      1.0000 0.26250  0.61870  0.19580  Biso   1.000  H
  C83      1.0000 0.84490  0.32700  0.88600  Biso   1.000  C
  C84      1.0000 0.15510  0.67300  0.11400  Biso   1.000  C
  H53      1.0000 0.95480  0.36360  0.89430  Biso   1.000  H
  H54      1.0000 0.04520  0.63640  0.10570  Biso   1.000  H
  C85      1.0000 0.81300  0.26330  0.92820  Biso   1.000  C
  C86      1.0000 0.18700  0.73670  0.07180  Biso   1.000  C
  H55      1.0000 0.90130  0.25610  0.96480  Biso   1.000  H
  H56      1.0000 0.09870  0.74390  0.03520  Biso   1.000  H
  I11      1.0000 0.36410  0.32080  0.75360  Biso   1.000  I
  I12      1.0000 0.63590  0.67920  0.24640  Biso   1.000  I
  C87      1.0000 0.66600  0.19000  0.88960  Biso   1.000  C
  C88      1.0000 0.33400  0.81000  0.11040  Biso   1.000  C
  C89      1.0000 0.53700  0.21030  0.84270  Biso   1.000  C
  C90      1.0000 0.46300  0.78970  0.15730  Biso   1.000  C
  H57      1.0000 0.42000  0.18500  0.84280  Biso   1.000  H
  H58      1.0000 0.58000  0.81500  0.15720  Biso   1.000  H
  C91      1.0000 0.57800  0.26810  0.79570  Biso   1.000  C
  C92      1.0000 0.42200  0.73190  0.20430  Biso   1.000  C
  C93      1.0000 0.74860  0.30520  0.79560  Biso   1.000  C
  C94      1.0000 0.25140  0.69480  0.20440  Biso   1.000  C
  H59      1.0000 0.77690  0.34460  0.76340  Biso   1.000  H
  H60      1.0000 0.22310  0.65540  0.23660  Biso   1.000  H
  C95      1.0000 0.87760  0.28500  0.84240  Biso   1.000  C
  C96      1.0000 0.12240  0.71500  0.15760  Biso   1.000  C
  H61      1.0000 0.99420  0.30990  0.84230  Biso   1.000  H
  H62      1.0000 0.00580  0.69010  0.15770  Biso   1.000  H
  C97      1.0000 0.83600  0.22680  0.88950  Biso   1.000  C
  C98      1.0000 0.16400  0.77320  0.11050  Biso   1.000  C
  H63      1.0000 0.92440  0.21270  0.92150  Biso   1.000  H
  H64      1.0000 0.07560  0.78730  0.07850  Biso   1.000  H
  I13      1.0000 0.37350  0.27270  0.71030  Biso   1.000  I
  I14      1.0000 0.62650  0.72730  0.28970  Biso   1.000  I
  C99      1.0000 0.72900  0.98900  0.27200  Biso   1.000  C
  C100     1.0000 0.27100  0.01100  0.72800  Biso   1.000  C
  H65      1.0000 0.64390  0.98110  0.22400  Biso   1.000  H
  H66      1.0000 0.35610  0.01890  0.77600  Biso   1.000  H
  H67      1.0000 0.68610  0.94270  0.29820  Biso   1.000  H
  H68      1.0000 0.31390  0.05730  0.70180  Biso   1.000  H
  Cl1      1.0000 0.91400  0.95180  0.22440  Biso   1.000  Cl
  Cl2      1.0000 0.08600  0.04820  0.77560  Biso   1.000  Cl
  Cl3      1.0000 0.71900  0.09930  0.34800  Biso   1.000  Cl
  Cl4      1.0000 0.28100  0.90070  0.65200  Biso   1.000  Cl
