data_image0
_cell_length_a       13.5
_cell_length_b       7.5649
_cell_length_c       14.359
_cell_angle_alpha    90
_cell_angle_beta     115.609
_cell_angle_gamma    90

_symmetry_space_group_name_H-M    "P 1"
_symmetry_int_tables_number       1

loop_
  _symmetry_equiv_pos_as_xyz
  'x, y, z'

loop_
  _atom_site_label
  _atom_site_occupancy
  _atom_site_fract_x
  _atom_site_fract_y
  _atom_site_fract_z
  _atom_site_thermal_displace_type
  _atom_site_B_iso_or_equiv
  _atom_site_type_symbol
  N1       1.0000 0.15830  0.08170  0.72090  Biso   1.000  N
  N2       1.0000 0.15830  0.91830  0.22090  Biso   1.000  N
  N3       1.0000 0.65830  0.58170  0.72090  Biso   1.000  N
  N4       1.0000 0.65830  0.41830  0.22090  Biso   1.000  N
  Cu1      1.0000 0.26960  0.27726  0.76225  Biso   1.000  Cu
  Cu2      1.0000 0.26960  0.72274  0.26225  Biso   1.000  Cu
  Cu3      1.0000 0.76960  0.77726  0.76225  Biso   1.000  Cu
  Cu4      1.0000 0.76960  0.22274  0.26225  Biso   1.000  Cu
  N5       1.0000 0.28450  0.26120  0.90800  Biso   1.000  N
  N6       1.0000 0.28450  0.73880  0.40800  Biso   1.000  N
  N7       1.0000 0.78450  0.76120  0.90800  Biso   1.000  N
  N8       1.0000 0.78450  0.23880  0.40800  Biso   1.000  N
  N9       1.0000 0.41300  0.40940  0.81410  Biso   1.000  N
  N10      1.0000 0.41300  0.59060  0.31410  Biso   1.000  N
  N11      1.0000 0.91300  0.90940  0.81410  Biso   1.000  N
  N12      1.0000 0.91300  0.09060  0.31410  Biso   1.000  N
  H1       1.0000 0.44190  0.38930  0.76910  Biso   1.000  H
  H2       1.0000 0.44190  0.61070  0.26910  Biso   1.000  H
  H3       1.0000 0.94190  0.88930  0.76910  Biso   1.000  H
  H4       1.0000 0.94190  0.11070  0.26910  Biso   1.000  H
  H5       1.0000 0.39710  0.52550  0.81050  Biso   1.000  H
  H6       1.0000 0.39710  0.47450  0.31050  Biso   1.000  H
  H7       1.0000 0.89710  0.02550  0.81050  Biso   1.000  H
  H8       1.0000 0.89710  0.97450  0.31050  Biso   1.000  H
  N13      1.0000 0.15230  0.50630  0.72270  Biso   1.000  N
  N14      1.0000 0.15230  0.49370  0.22270  Biso   1.000  N
  N15      1.0000 0.65230  0.00630  0.72270  Biso   1.000  N
  N16      1.0000 0.65230  0.99370  0.22270  Biso   1.000  N
  N17      1.0000 0.39750  0.21820  0.38360  Biso   1.000  N
  N18      1.0000 0.39750  0.78180  0.88360  Biso   1.000  N
  N19      1.0000 0.89750  0.71820  0.38360  Biso   1.000  N
  N20      1.0000 0.89750  0.28180  0.88360  Biso   1.000  N
  C1       1.0000 0.19460  0.27980  0.92440  Biso   1.000  C
  C2       1.0000 0.19460  0.72020  0.42440  Biso   1.000  C
  C3       1.0000 0.69460  0.77980  0.92440  Biso   1.000  C
  C4       1.0000 0.69460  0.22020  0.42440  Biso   1.000  C
  H9       1.0000 0.12770  0.30280  0.86840  Biso   1.000  H
  H10      1.0000 0.12770  0.69720  0.36840  Biso   1.000  H
  H11      1.0000 0.62770  0.80280  0.86840  Biso   1.000  H
  H12      1.0000 0.62770  0.19720  0.36840  Biso   1.000  H
  C5       1.0000 0.34260  0.21980  0.42400  Biso   1.000  C
  C6       1.0000 0.34260  0.78020  0.92400  Biso   1.000  C
  C7       1.0000 0.84260  0.71980  0.42400  Biso   1.000  C
  C8       1.0000 0.84260  0.28020  0.92400  Biso   1.000  C
  C9       1.0000 0.11670  0.64460  0.71400  Biso   1.000  C
  C10      1.0000 0.11670  0.35540  0.21400  Biso   1.000  C
  C11      1.0000 0.61670  0.14460  0.71400  Biso   1.000  C
  C12      1.0000 0.61670  0.85540  0.21400  Biso   1.000  C
  C13      1.0000 0.38930  0.21110  0.08640  Biso   1.000  C
  C14      1.0000 0.38930  0.78890  0.58640  Biso   1.000  C
  C15      1.0000 0.88930  0.71110  0.08640  Biso   1.000  C
  C16      1.0000 0.88930  0.28890  0.58640  Biso   1.000  C
  H13      1.0000 0.45730  0.18840  0.14110  Biso   1.000  H
  H14      1.0000 0.45730  0.81160  0.64110  Biso   1.000  H
  H15      1.0000 0.95730  0.68840  0.14110  Biso   1.000  H
  H16      1.0000 0.95730  0.31160  0.64110  Biso   1.000  H
  C17      1.0000 0.38120  0.22600  0.98720  Biso   1.000  C
  C18      1.0000 0.38120  0.77400  0.48720  Biso   1.000  C
  C19      1.0000 0.88120  0.72600  0.98720  Biso   1.000  C
  C20      1.0000 0.88120  0.27400  0.48720  Biso   1.000  C
  C21      1.0000 0.48050  0.20880  0.96500  Biso   1.000  C
  C22      1.0000 0.48050  0.79120  0.46500  Biso   1.000  C
  C23      1.0000 0.98050  0.70880  0.96500  Biso   1.000  C
  C24      1.0000 0.98050  0.29120  0.46500  Biso   1.000  C
  H17      1.0000 0.54460  0.18230  0.02870  Biso   1.000  H
  H18      1.0000 0.54460  0.81770  0.52870  Biso   1.000  H
  H19      1.0000 0.04460  0.68230  0.02870  Biso   1.000  H
  H20      1.0000 0.04460  0.31770  0.52870  Biso   1.000  H
  H21      1.0000 0.46940  0.11120  0.91770  Biso   1.000  H
  H22      1.0000 0.46940  0.88880  0.41770  Biso   1.000  H
  H23      1.0000 0.96940  0.61120  0.91770  Biso   1.000  H
  H24      1.0000 0.96940  0.38880  0.41770  Biso   1.000  H
  C25      1.0000 0.50060  0.37450  0.91910  Biso   1.000  C
  C26      1.0000 0.50060  0.62550  0.41910  Biso   1.000  C
  C27      1.0000 0.00060  0.87450  0.91910  Biso   1.000  C
  C28      1.0000 0.00060  0.12550  0.41910  Biso   1.000  C
  H25      1.0000 0.50500  0.47350  0.96360  Biso   1.000  H
  H26      1.0000 0.50500  0.52650  0.46360  Biso   1.000  H
  H27      1.0000 0.00500  0.97350  0.96360  Biso   1.000  H
  H28      1.0000 0.00500  0.02650  0.46360  Biso   1.000  H
  H29      1.0000 0.57060  0.36510  0.91560  Biso   1.000  H
  H30      1.0000 0.57060  0.63490  0.41560  Biso   1.000  H
  H31      1.0000 0.07060  0.86510  0.91560  Biso   1.000  H
  H32      1.0000 0.07060  0.13490  0.41560  Biso   1.000  H
  C29      1.0000 0.29830  0.22940  0.10490  Biso   1.000  C
  C30      1.0000 0.29830  0.77060  0.60490  Biso   1.000  C
  C31      1.0000 0.79830  0.72940  0.10490  Biso   1.000  C
  C32      1.0000 0.79830  0.27060  0.60490  Biso   1.000  C
  H33      1.0000 0.30310  0.21770  0.17120  Biso   1.000  H
  H34      1.0000 0.30310  0.78230  0.67120  Biso   1.000  H
  H35      1.0000 0.80310  0.71770  0.17120  Biso   1.000  H
  H36      1.0000 0.80310  0.28230  0.67120  Biso   1.000  H
  N21      1.0000 0.26570  0.21600  0.45580  Biso   1.000  N
  N22      1.0000 0.26570  0.78400  0.95580  Biso   1.000  N
  N23      1.0000 0.76570  0.71600  0.45580  Biso   1.000  N
  N24      1.0000 0.76570  0.28400  0.95580  Biso   1.000  N
  C33      1.0000 0.27900  0.24030  0.55010  Biso   1.000  C
  C34      1.0000 0.27900  0.75970  0.05010  Biso   1.000  C
  C35      1.0000 0.77900  0.74030  0.55010  Biso   1.000  C
  C36      1.0000 0.77900  0.25970  0.05010  Biso   1.000  C
  C37      1.0000 0.19770  0.26620  0.02050  Biso   1.000  C
  C38      1.0000 0.19770  0.73380  0.52050  Biso   1.000  C
  C39      1.0000 0.69770  0.76620  0.02050  Biso   1.000  C
  C40      1.0000 0.69770  0.23380  0.52050  Biso   1.000  C
  H37      1.0000 0.13420  0.28110  0.02980  Biso   1.000  H
  H38      1.0000 0.13420  0.71890  0.52980  Biso   1.000  H
  H39      1.0000 0.63420  0.78110  0.02980  Biso   1.000  H
  H40      1.0000 0.63420  0.21890  0.52980  Biso   1.000  H
  N25      1.0000 0.27420  0.25780  0.62760  Biso   1.000  N
  N26      1.0000 0.27420  0.74220  0.12760  Biso   1.000  N
  N27      1.0000 0.77420  0.75780  0.62760  Biso   1.000  N
  N28      1.0000 0.77420  0.24220  0.12760  Biso   1.000  N
  C41      1.0000 0.12000  0.94520  0.71250  Biso   1.000  C
  C42      1.0000 0.12000  0.05480  0.21250  Biso   1.000  C
  C43      1.0000 0.62000  0.44520  0.71250  Biso   1.000  C
  C44      1.0000 0.62000  0.55480  0.21250  Biso   1.000  C
  N29      1.0000 0.06550  0.79820  0.69920  Biso   1.000  N
  N30      1.0000 0.06550  0.20180  0.19920  Biso   1.000  N
  N31      1.0000 0.56550  0.29820  0.69920  Biso   1.000  N
  N32      1.0000 0.56550  0.70180  0.19920  Biso   1.000  N
