data_image0
_cell_length_a       12.327
_cell_length_b       15.54
_cell_length_c       11.252
_cell_angle_alpha    90
_cell_angle_beta     96.093
_cell_angle_gamma    90

_symmetry_space_group_name_H-M    "P 1"
_symmetry_int_tables_number       1

loop_
  _symmetry_equiv_pos_as_xyz
  'x, y, z'

loop_
  _atom_site_label
  _atom_site_occupancy
  _atom_site_fract_x
  _atom_site_fract_y
  _atom_site_fract_z
  _atom_site_thermal_displace_type
  _atom_site_B_iso_or_equiv
  _atom_site_type_symbol
  O1       1.0000 0.99224  0.39410  0.14117  Biso   1.000  O
  O2       1.0000 0.00776  0.89410  0.35883  Biso   1.000  O
  O3       1.0000 0.00776  0.60590  0.85883  Biso   1.000  O
  O4       1.0000 0.99224  0.10590  0.64117  Biso   1.000  O
  C1       1.0000 0.03770  0.35130  0.22780  Biso   1.000  C
  C2       1.0000 0.96230  0.85130  0.27220  Biso   1.000  C
  C3       1.0000 0.96230  0.64870  0.77220  Biso   1.000  C
  C4       1.0000 0.03770  0.14870  0.72780  Biso   1.000  C
  C5       1.0000 0.13890  0.30150  0.21180  Biso   1.000  C
  C6       1.0000 0.86110  0.80150  0.28820  Biso   1.000  C
  C7       1.0000 0.86110  0.69850  0.78820  Biso   1.000  C
  C8       1.0000 0.13890  0.19850  0.71180  Biso   1.000  C
  C9       1.0000 0.17400  0.23830  0.29320  Biso   1.000  C
  C10      1.0000 0.82600  0.73830  0.20680  Biso   1.000  C
  C11      1.0000 0.82600  0.76170  0.70680  Biso   1.000  C
  C12      1.0000 0.17400  0.26170  0.79320  Biso   1.000  C
  C13      1.0000 0.19880  0.31894  0.11860  Biso   1.000  C
  C14      1.0000 0.80120  0.81894  0.38140  Biso   1.000  C
  C15      1.0000 0.80120  0.68106  0.88140  Biso   1.000  C
  C16      1.0000 0.19880  0.18106  0.61860  Biso   1.000  C
  Cu1      1.0000 0.87727  0.04497  0.72403  Biso   1.000  Cu
  Cu2      1.0000 0.12273  0.54497  0.77597  Biso   1.000  Cu
  Cu3      1.0000 0.12273  0.95503  0.27597  Biso   1.000  Cu
  Cu4      1.0000 0.87727  0.45503  0.22403  Biso   1.000  Cu
  N1       1.0000 0.97525  0.94635  0.76190  Biso   1.000  N
  N2       1.0000 0.02475  0.44635  0.73810  Biso   1.000  N
  N3       1.0000 0.02475  0.05365  0.23810  Biso   1.000  N
  N4       1.0000 0.97525  0.55365  0.26190  Biso   1.000  N
  N5       1.0000 0.79640  0.02423  0.86510  Biso   1.000  N
  N6       1.0000 0.20360  0.52423  0.63490  Biso   1.000  N
  N7       1.0000 0.20360  0.97577  0.13490  Biso   1.000  N
  N8       1.0000 0.79640  0.47577  0.36510  Biso   1.000  N
  N9       1.0000 0.91850  0.91805  0.95080  Biso   1.000  N
  N10      1.0000 0.08150  0.41805  0.54920  Biso   1.000  N
  N11      1.0000 0.08150  0.08195  0.04920  Biso   1.000  N
  N12      1.0000 0.91850  0.58195  0.45080  Biso   1.000  N
  C17      1.0000 0.58690  0.03040  0.38470  Biso   1.000  C
  C18      1.0000 0.41310  0.53040  0.11530  Biso   1.000  C
  C19      1.0000 0.41310  0.96960  0.61530  Biso   1.000  C
  C20      1.0000 0.58690  0.46960  0.88470  Biso   1.000  C
  H1       1.0000 0.60290  0.97220  0.39500  Biso   1.000  H
  H2       1.0000 0.39710  0.47220  0.10500  Biso   1.000  H
  H3       1.0000 0.39710  0.02780  0.60500  Biso   1.000  H
  H4       1.0000 0.60290  0.52780  0.89500  Biso   1.000  H
  C21      1.0000 0.63840  0.08900  0.46280  Biso   1.000  C
  C22      1.0000 0.36160  0.58900  0.03720  Biso   1.000  C
  C23      1.0000 0.36160  0.91100  0.53720  Biso   1.000  C
  C24      1.0000 0.63840  0.41100  0.96280  Biso   1.000  C
  C25      1.0000 0.82790  0.96910  0.95290  Biso   1.000  C
  C26      1.0000 0.17210  0.46910  0.54710  Biso   1.000  C
  C27      1.0000 0.17210  0.03090  0.04710  Biso   1.000  C
  C28      1.0000 0.82790  0.53090  0.45290  Biso   1.000  C
  C29      1.0000 0.98620  0.90210  0.86380  Biso   1.000  C
  C30      1.0000 0.01380  0.40210  0.63620  Biso   1.000  C
  C31      1.0000 0.01380  0.09790  0.13620  Biso   1.000  C
  C32      1.0000 0.98620  0.59790  0.36380  Biso   1.000  C
  C33      1.0000 0.72370  0.06210  0.55950  Biso   1.000  C
  C34      1.0000 0.27630  0.56210  0.94050  Biso   1.000  C
  C35      1.0000 0.27630  0.93790  0.44050  Biso   1.000  C
  C36      1.0000 0.72370  0.43790  0.05950  Biso   1.000  C
  C37      1.0000 0.51140  0.05600  0.29070  Biso   1.000  C
  C38      1.0000 0.48860  0.55600  0.20930  Biso   1.000  C
  C39      1.0000 0.48860  0.94400  0.70930  Biso   1.000  C
  C40      1.0000 0.51140  0.44400  0.79070  Biso   1.000  C
  H5       1.0000 0.47630  0.01530  0.23940  Biso   1.000  H
  H6       1.0000 0.52370  0.51530  0.26060  Biso   1.000  H
  H7       1.0000 0.52370  0.98470  0.76060  Biso   1.000  H
  H8       1.0000 0.47630  0.48470  0.73940  Biso   1.000  H
  C41      1.0000 0.06450  0.83780  0.88680  Biso   1.000  C
  C42      1.0000 0.93550  0.33780  0.61320  Biso   1.000  C
  C43      1.0000 0.93550  0.16220  0.11320  Biso   1.000  C
  C44      1.0000 0.06450  0.66220  0.38680  Biso   1.000  C
  H9       1.0000 0.07240  0.80990  0.96040  Biso   1.000  H
  H10      1.0000 0.92760  0.30990  0.53960  Biso   1.000  H
  H11      1.0000 0.92760  0.19010  0.03960  Biso   1.000  H
  H12      1.0000 0.07240  0.69010  0.46040  Biso   1.000  H
  C45      1.0000 0.48920  0.14180  0.27440  Biso   1.000  C
  C46      1.0000 0.51080  0.64180  0.22560  Biso   1.000  C
  C47      1.0000 0.51080  0.85820  0.72560  Biso   1.000  C
  C48      1.0000 0.48920  0.35820  0.77440  Biso   1.000  C
  C49      1.0000 0.77120  0.96210  0.05370  Biso   1.000  C
  C50      1.0000 0.22880  0.46210  0.44630  Biso   1.000  C
  C51      1.0000 0.22880  0.03790  0.94630  Biso   1.000  C
  C52      1.0000 0.77120  0.53790  0.55370  Biso   1.000  C
  H13      1.0000 0.79420  0.92320  0.11390  Biso   1.000  H
  H14      1.0000 0.20580  0.42320  0.38610  Biso   1.000  H
  H15      1.0000 0.20580  0.07680  0.88610  Biso   1.000  H
  H16      1.0000 0.79420  0.57680  0.61390  Biso   1.000  H
  C53      1.0000 0.60920  0.17350  0.44700  Biso   1.000  C
  C54      1.0000 0.39080  0.67350  0.05300  Biso   1.000  C
  C55      1.0000 0.39080  0.82650  0.55300  Biso   1.000  C
  C56      1.0000 0.60920  0.32650  0.94700  Biso   1.000  C
  H17      1.0000 0.64020  0.21440  0.50050  Biso   1.000  H
  H18      1.0000 0.35980  0.71440  0.99950  Biso   1.000  H
  H19      1.0000 0.35980  0.78560  0.49950  Biso   1.000  H
  H20      1.0000 0.64020  0.28560  0.00050  Biso   1.000  H
  C57      1.0000 0.65130  0.07040  0.97530  Biso   1.000  C
  C58      1.0000 0.34870  0.57040  0.52470  Biso   1.000  C
  C59      1.0000 0.34870  0.92960  0.02470  Biso   1.000  C
  C60      1.0000 0.65130  0.42960  0.47530  Biso   1.000  C
  H21      1.0000 0.59230  0.10680  0.98120  Biso   1.000  H
  H22      1.0000 0.40770  0.60680  0.51880  Biso   1.000  H
  H23      1.0000 0.40770  0.89320  0.01880  Biso   1.000  H
  H24      1.0000 0.59230  0.39320  0.48120  Biso   1.000  H
  C61      1.0000 0.70900  0.07346  0.87870  Biso   1.000  C
  C62      1.0000 0.29100  0.57346  0.62130  Biso   1.000  C
  C63      1.0000 0.29100  0.92654  0.12130  Biso   1.000  C
  C64      1.0000 0.70900  0.42654  0.37870  Biso   1.000  C
  H25      1.0000 0.68640  0.11220  0.81820  Biso   1.000  H
  H26      1.0000 0.31360  0.61220  0.68180  Biso   1.000  H
  H27      1.0000 0.31360  0.88780  0.18180  Biso   1.000  H
  H28      1.0000 0.68640  0.38780  0.31820  Biso   1.000  H
  C65      1.0000 0.03890  0.92210  0.67730  Biso   1.000  C
  C66      1.0000 0.96110  0.42210  0.82270  Biso   1.000  C
  C67      1.0000 0.96110  0.07790  0.32270  Biso   1.000  C
  C68      1.0000 0.03890  0.57790  0.17730  Biso   1.000  C
  H29      1.0000 0.03030  0.95070  0.60430  Biso   1.000  H
  H30      1.0000 0.96970  0.45070  0.89570  Biso   1.000  H
  H31      1.0000 0.96970  0.04930  0.39570  Biso   1.000  H
  H32      1.0000 0.03030  0.54930  0.10430  Biso   1.000  H
  C69      1.0000 0.12900  0.81620  0.80090  Biso   1.000  C
  C70      1.0000 0.87100  0.31620  0.69910  Biso   1.000  C
  C71      1.0000 0.87100  0.18380  0.19910  Biso   1.000  C
  C72      1.0000 0.12900  0.68380  0.30090  Biso   1.000  C
  H33      1.0000 0.18200  0.77370  0.81480  Biso   1.000  H
  H34      1.0000 0.81800  0.27370  0.68520  Biso   1.000  H
  H35      1.0000 0.81800  0.22630  0.18520  Biso   1.000  H
  H36      1.0000 0.18200  0.72630  0.31480  Biso   1.000  H
  C73      1.0000 0.11450  0.85870  0.69220  Biso   1.000  C
  C74      1.0000 0.88550  0.35870  0.80780  Biso   1.000  C
  C75      1.0000 0.88550  0.14130  0.30780  Biso   1.000  C
  C76      1.0000 0.11450  0.64130  0.19220  Biso   1.000  C
  H37      1.0000 0.15570  0.84400  0.63070  Biso   1.000  H
  H38      1.0000 0.84430  0.34400  0.86930  Biso   1.000  H
  H39      1.0000 0.84430  0.15600  0.36930  Biso   1.000  H
  H40      1.0000 0.15570  0.65600  0.13070  Biso   1.000  H
  C77      1.0000 0.68280  0.01190  0.06340  Biso   1.000  C
  C78      1.0000 0.31720  0.51190  0.43660  Biso   1.000  C
  C79      1.0000 0.31720  0.98810  0.93660  Biso   1.000  C
  C80      1.0000 0.68280  0.48810  0.56340  Biso   1.000  C
  H41      1.0000 0.64370  0.00660  0.12930  Biso   1.000  H
  H42      1.0000 0.35630  0.50660  0.37070  Biso   1.000  H
  H43      1.0000 0.35630  0.99340  0.87070  Biso   1.000  H
  H44      1.0000 0.64370  0.49340  0.62930  Biso   1.000  H
  O5       1.0000 0.00156  0.34961  0.32778  Biso   1.000  O
  O6       1.0000 0.99844  0.84961  0.17222  Biso   1.000  O
  O7       1.0000 0.99844  0.65039  0.67222  Biso   1.000  O
  O8       1.0000 0.00156  0.15039  0.82778  Biso   1.000  O
  O9       1.0000 0.76034  0.11489  0.63605  Biso   1.000  O
  O10      1.0000 0.23966  0.61489  0.86395  Biso   1.000  O
  O11      1.0000 0.23966  0.88511  0.36395  Biso   1.000  O
  O12      1.0000 0.76034  0.38511  0.13605  Biso   1.000  O
  O13      1.0000 0.75888  0.98750  0.55832  Biso   1.000  O
  O14      1.0000 0.24112  0.48750  0.94168  Biso   1.000  O
  O15      1.0000 0.24112  0.01250  0.44168  Biso   1.000  O
  O16      1.0000 0.75888  0.51250  0.05832  Biso   1.000  O
  C81      1.0000 0.53400  0.19990  0.35240  Biso   1.000  C
  C82      1.0000 0.46600  0.69990  0.14760  Biso   1.000  C
  C83      1.0000 0.46600  0.80010  0.64760  Biso   1.000  C
  C84      1.0000 0.53400  0.30010  0.85240  Biso   1.000  C
  H45      1.0000 0.51520  0.25770  0.34370  Biso   1.000  H
  H46      1.0000 0.48480  0.75770  0.15630  Biso   1.000  H
  H47      1.0000 0.48480  0.74230  0.65630  Biso   1.000  H
  H48      1.0000 0.51520  0.24230  0.84370  Biso   1.000  H
  H49      1.0000 0.13320  0.22630  0.35630  Biso   1.000  H
  H50      1.0000 0.86680  0.72630  0.14370  Biso   1.000  H
  H51      1.0000 0.86680  0.77370  0.64370  Biso   1.000  H
  H52      1.0000 0.13320  0.27370  0.85630  Biso   1.000  H
  H53      1.0000 0.17560  0.36060  0.06240  Biso   1.000  H
  H54      1.0000 0.82440  0.86060  0.43760  Biso   1.000  H
  H55      1.0000 0.82440  0.63940  0.93760  Biso   1.000  H
  H56      1.0000 0.17560  0.13940  0.56240  Biso   1.000  H
  O17      1.0000 0.42181  0.16589  0.17243  Biso   1.000  O
  O18      1.0000 0.57819  0.66589  0.32757  Biso   1.000  O
  O19      1.0000 0.57819  0.83411  0.82757  Biso   1.000  O
  O20      1.0000 0.42181  0.33411  0.67243  Biso   1.000  O
  C85      1.0000 0.26810  0.19206  0.28170  Biso   1.000  C
  C86      1.0000 0.73190  0.69206  0.21830  Biso   1.000  C
  C87      1.0000 0.73190  0.80794  0.71830  Biso   1.000  C
  C88      1.0000 0.26810  0.30794  0.78170  Biso   1.000  C
  H57      1.0000 0.29030  0.14870  0.33580  Biso   1.000  H
  H58      1.0000 0.70970  0.64870  0.16420  Biso   1.000  H
  H59      1.0000 0.70970  0.85130  0.66420  Biso   1.000  H
  H60      1.0000 0.29030  0.35130  0.83580  Biso   1.000  H
  C89      1.0000 0.29520  0.27300  0.10820  Biso   1.000  C
  C90      1.0000 0.70480  0.77300  0.39180  Biso   1.000  C
  C91      1.0000 0.70480  0.72700  0.89180  Biso   1.000  C
  C92      1.0000 0.29520  0.22700  0.60820  Biso   1.000  C
  H61      1.0000 0.33660  0.28500  0.04570  Biso   1.000  H
  H62      1.0000 0.66340  0.78500  0.45430  Biso   1.000  H
  H63      1.0000 0.66340  0.71500  0.95430  Biso   1.000  H
  H64      1.0000 0.33660  0.21500  0.54570  Biso   1.000  H
  C93      1.0000 0.32830  0.21110  0.18910  Biso   1.000  C
  C94      1.0000 0.67170  0.71110  0.31090  Biso   1.000  C
  C95      1.0000 0.67170  0.78890  0.81090  Biso   1.000  C
  C96      1.0000 0.32830  0.28890  0.68910  Biso   1.000  C
  H65      1.0000 0.94100  0.89340  0.01600  Biso   1.000  H
  H66      1.0000 0.05900  0.39340  0.48400  Biso   1.000  H
  H67      1.0000 0.05900  0.10660  0.98400  Biso   1.000  H
  H68      1.0000 0.94100  0.60660  0.51600  Biso   1.000  H
