data_image0
_cell_length_a       12.391
_cell_length_b       15.59
_cell_length_c       11.297
_cell_angle_alpha    90
_cell_angle_beta     96.219
_cell_angle_gamma    90

_symmetry_space_group_name_H-M    "P 1"
_symmetry_int_tables_number       1

loop_
  _symmetry_equiv_pos_as_xyz
  'x, y, z'

loop_
  _atom_site_label
  _atom_site_occupancy
  _atom_site_fract_x
  _atom_site_fract_y
  _atom_site_fract_z
  _atom_site_thermal_displace_type
  _atom_site_B_iso_or_equiv
  _atom_site_type_symbol
  Cu1      1.0000 0.37733  0.04531  0.72434  Biso   1.000  Cu
  Cu2      1.0000 0.62267  0.54531  0.77566  Biso   1.000  Cu
  Cu3      1.0000 0.62267  0.95469  0.27566  Biso   1.000  Cu
  Cu4      1.0000 0.37733  0.45469  0.22434  Biso   1.000  Cu
  N1       1.0000 0.47620  0.94640  0.76310  Biso   1.000  N
  N2       1.0000 0.52380  0.44640  0.73690  Biso   1.000  N
  N3       1.0000 0.52380  0.05360  0.23690  Biso   1.000  N
  N4       1.0000 0.47620  0.55360  0.26310  Biso   1.000  N
  N5       1.0000 0.29570  0.02470  0.86190  Biso   1.000  N
  N6       1.0000 0.70430  0.52470  0.63810  Biso   1.000  N
  N7       1.0000 0.70430  0.97530  0.13810  Biso   1.000  N
  N8       1.0000 0.29570  0.47530  0.36190  Biso   1.000  N
  N9       1.0000 0.41800  0.91760  0.94940  Biso   1.000  N
  N10      1.0000 0.58200  0.41760  0.55060  Biso   1.000  N
  N11      1.0000 0.58200  0.08240  0.05060  Biso   1.000  N
  N12      1.0000 0.41800  0.58240  0.44940  Biso   1.000  N
  H1       1.0000 0.43560  0.88920  0.01390  Biso   1.000  H
  H2       1.0000 0.56440  0.38920  0.48610  Biso   1.000  H
  H3       1.0000 0.56440  0.11080  0.98610  Biso   1.000  H
  H4       1.0000 0.43560  0.61080  0.51390  Biso   1.000  H
  O1       1.0000 0.25800  0.98620  0.55900  Biso   1.000  O
  O2       1.0000 0.74200  0.48620  0.94100  Biso   1.000  O
  O3       1.0000 0.74200  0.01380  0.44100  Biso   1.000  O
  O4       1.0000 0.25800  0.51380  0.05900  Biso   1.000  O
  O5       1.0000 0.25940  0.11620  0.63470  Biso   1.000  O
  O6       1.0000 0.74060  0.61620  0.86530  Biso   1.000  O
  O7       1.0000 0.74060  0.88380  0.36530  Biso   1.000  O
  O8       1.0000 0.25940  0.38380  0.13470  Biso   1.000  O
  O9       1.0000 0.50140  0.34990  0.32780  Biso   1.000  O
  O10      1.0000 0.49860  0.84990  0.17220  Biso   1.000  O
  O11      1.0000 0.49860  0.65010  0.67220  Biso   1.000  O
  O12      1.0000 0.50140  0.15010  0.82780  Biso   1.000  O
  O13      1.0000 0.49160  0.39490  0.14080  Biso   1.000  O
  O14      1.0000 0.50840  0.89490  0.35920  Biso   1.000  O
  O15      1.0000 0.50840  0.60510  0.85920  Biso   1.000  O
  O16      1.0000 0.49160  0.10510  0.64080  Biso   1.000  O
  O17      1.0000 0.92140  0.16670  0.17140  Biso   1.000  O
  O18      1.0000 0.07860  0.66670  0.32860  Biso   1.000  O
  O19      1.0000 0.07860  0.83330  0.82860  Biso   1.000  O
  O20      1.0000 0.92140  0.33330  0.67140  Biso   1.000  O
  C1       1.0000 0.22360  0.06080  0.55520  Biso   1.000  C
  C2       1.0000 0.77640  0.56080  0.94480  Biso   1.000  C
  C3       1.0000 0.77640  0.93920  0.44480  Biso   1.000  C
  C4       1.0000 0.22360  0.43920  0.05520  Biso   1.000  C
  C5       1.0000 0.13780  0.09180  0.46180  Biso   1.000  C
  C6       1.0000 0.86220  0.59180  0.03820  Biso   1.000  C
  C7       1.0000 0.86220  0.90820  0.53820  Biso   1.000  C
  C8       1.0000 0.13780  0.40820  0.96180  Biso   1.000  C
  C9       1.0000 0.10950  0.17280  0.44890  Biso   1.000  C
  C10      1.0000 0.89050  0.67280  0.05110  Biso   1.000  C
  C11      1.0000 0.89050  0.82720  0.55110  Biso   1.000  C
  C12      1.0000 0.10950  0.32720  0.94890  Biso   1.000  C
  H5       1.0000 0.14040  0.21290  0.50340  Biso   1.000  H
  H6       1.0000 0.85960  0.71290  0.99660  Biso   1.000  H
  H7       1.0000 0.85960  0.78710  0.49660  Biso   1.000  H
  H8       1.0000 0.14040  0.28710  0.00340  Biso   1.000  H
  C13      1.0000 0.03420  0.20050  0.35540  Biso   1.000  C
  C14      1.0000 0.96580  0.70050  0.14460  Biso   1.000  C
  C15      1.0000 0.96580  0.79950  0.64460  Biso   1.000  C
  C16      1.0000 0.03420  0.29950  0.85540  Biso   1.000  C
  H9       1.0000 0.01490  0.25810  0.34820  Biso   1.000  H
  H10      1.0000 0.98510  0.75810  0.15180  Biso   1.000  H
  H11      1.0000 0.98510  0.74190  0.65180  Biso   1.000  H
  H12      1.0000 0.01490  0.24190  0.84820  Biso   1.000  H
  C17      1.0000 0.98940  0.14170  0.27510  Biso   1.000  C
  C18      1.0000 0.01060  0.64170  0.22490  Biso   1.000  C
  C19      1.0000 0.01060  0.85830  0.72490  Biso   1.000  C
  C20      1.0000 0.98940  0.35830  0.77510  Biso   1.000  C
  C21      1.0000 0.01260  0.05710  0.29060  Biso   1.000  C
  C22      1.0000 0.98740  0.55710  0.20940  Biso   1.000  C
  C23      1.0000 0.98740  0.94290  0.70940  Biso   1.000  C
  C24      1.0000 0.01260  0.44290  0.79060  Biso   1.000  C
  H13      1.0000 0.97870  0.01620  0.23950  Biso   1.000  H
  H14      1.0000 0.02130  0.51620  0.26050  Biso   1.000  H
  H15      1.0000 0.02130  0.98380  0.76050  Biso   1.000  H
  H16      1.0000 0.97870  0.48380  0.73950  Biso   1.000  H
  C25      1.0000 0.09000  0.03240  0.38680  Biso   1.000  C
  C26      1.0000 0.91000  0.53240  0.11320  Biso   1.000  C
  C27      1.0000 0.91000  0.96760  0.61320  Biso   1.000  C
  C28      1.0000 0.09000  0.46760  0.88680  Biso   1.000  C
  H17      1.0000 0.10780  0.97480  0.39810  Biso   1.000  H
  H18      1.0000 0.89220  0.47480  0.10190  Biso   1.000  H
  H19      1.0000 0.89220  0.02520  0.60190  Biso   1.000  H
  H20      1.0000 0.10780  0.52520  0.89810  Biso   1.000  H
  C29      1.0000 0.53630  0.35020  0.22680  Biso   1.000  C
  C30      1.0000 0.46370  0.85020  0.27320  Biso   1.000  C
  C31      1.0000 0.46370  0.64980  0.77320  Biso   1.000  C
  C32      1.0000 0.53630  0.14980  0.72680  Biso   1.000  C
  C33      1.0000 0.63780  0.30050  0.21180  Biso   1.000  C
  C34      1.0000 0.36220  0.80050  0.28820  Biso   1.000  C
  C35      1.0000 0.36220  0.69950  0.78820  Biso   1.000  C
  C36      1.0000 0.63780  0.19950  0.71180  Biso   1.000  C
  C37      1.0000 0.67180  0.23880  0.29070  Biso   1.000  C
  C38      1.0000 0.32820  0.73880  0.20930  Biso   1.000  C
  C39      1.0000 0.32820  0.76120  0.70930  Biso   1.000  C
  C40      1.0000 0.67180  0.26120  0.79070  Biso   1.000  C
  H21      1.0000 0.63180  0.22720  0.35390  Biso   1.000  H
  H22      1.0000 0.36820  0.72720  0.14610  Biso   1.000  H
  H23      1.0000 0.36820  0.77280  0.64610  Biso   1.000  H
  H24      1.0000 0.63180  0.27280  0.85390  Biso   1.000  H
  C41      1.0000 0.76440  0.19290  0.27930  Biso   1.000  C
  C42      1.0000 0.23560  0.69290  0.22070  Biso   1.000  C
  C43      1.0000 0.23560  0.80710  0.72070  Biso   1.000  C
  C44      1.0000 0.76440  0.30710  0.77930  Biso   1.000  C
  H25      1.0000 0.78520  0.14880  0.33230  Biso   1.000  H
  H26      1.0000 0.21480  0.64880  0.16770  Biso   1.000  H
  H27      1.0000 0.21480  0.85120  0.66770  Biso   1.000  H
  H28      1.0000 0.78520  0.35120  0.83230  Biso   1.000  H
  C45      1.0000 0.82600  0.21220  0.18970  Biso   1.000  C
  C46      1.0000 0.17400  0.71220  0.31030  Biso   1.000  C
  C47      1.0000 0.17400  0.78780  0.81030  Biso   1.000  C
  C48      1.0000 0.82600  0.28780  0.68970  Biso   1.000  C
  C49      1.0000 0.79470  0.27390  0.10780  Biso   1.000  C
  C50      1.0000 0.20530  0.77390  0.39220  Biso   1.000  C
  C51      1.0000 0.20530  0.72610  0.89220  Biso   1.000  C
  C52      1.0000 0.79470  0.22610  0.60780  Biso   1.000  C
  H29      1.0000 0.83550  0.28650  0.04560  Biso   1.000  H
  H30      1.0000 0.16450  0.78650  0.45440  Biso   1.000  H
  H31      1.0000 0.16450  0.71350  0.95440  Biso   1.000  H
  H32      1.0000 0.83550  0.21350  0.54560  Biso   1.000  H
  C53      1.0000 0.70010  0.31660  0.12180  Biso   1.000  C
  C54      1.0000 0.29990  0.81660  0.37820  Biso   1.000  C
  C55      1.0000 0.29990  0.68340  0.87820  Biso   1.000  C
  C56      1.0000 0.70010  0.18340  0.62180  Biso   1.000  C
  H33      1.0000 0.67710  0.35890  0.06680  Biso   1.000  H
  H34      1.0000 0.32290  0.85890  0.43320  Biso   1.000  H
  H35      1.0000 0.32290  0.64110  0.93320  Biso   1.000  H
  H36      1.0000 0.67710  0.14110  0.56680  Biso   1.000  H
  C57      1.0000 0.48720  0.90260  0.86240  Biso   1.000  C
  C58      1.0000 0.51280  0.40260  0.63760  Biso   1.000  C
  C59      1.0000 0.51280  0.09740  0.13760  Biso   1.000  C
  C60      1.0000 0.48720  0.59740  0.36240  Biso   1.000  C
  C61      1.0000 0.56490  0.83830  0.88360  Biso   1.000  C
  C62      1.0000 0.43510  0.33830  0.61640  Biso   1.000  C
  C63      1.0000 0.43510  0.16170  0.11640  Biso   1.000  C
  C64      1.0000 0.56490  0.66170  0.38360  Biso   1.000  C
  H37      1.0000 0.57310  0.81020  0.95660  Biso   1.000  H
  H38      1.0000 0.42690  0.31020  0.54340  Biso   1.000  H
  H39      1.0000 0.42690  0.18980  0.04340  Biso   1.000  H
  H40      1.0000 0.57310  0.68980  0.45660  Biso   1.000  H
  C65      1.0000 0.62890  0.81650  0.79760  Biso   1.000  C
  C66      1.0000 0.37110  0.31650  0.70240  Biso   1.000  C
  C67      1.0000 0.37110  0.18350  0.20240  Biso   1.000  C
  C68      1.0000 0.62890  0.68350  0.29760  Biso   1.000  C
  H41      1.0000 0.67900  0.77220  0.81080  Biso   1.000  H
  H42      1.0000 0.32100  0.27220  0.68920  Biso   1.000  H
  H43      1.0000 0.32100  0.22780  0.18920  Biso   1.000  H
  H44      1.0000 0.67900  0.72780  0.31080  Biso   1.000  H
  C69      1.0000 0.61940  0.85930  0.69360  Biso   1.000  C
  C70      1.0000 0.38060  0.35930  0.80640  Biso   1.000  C
  C71      1.0000 0.38060  0.14070  0.30640  Biso   1.000  C
  C72      1.0000 0.61940  0.64070  0.19360  Biso   1.000  C
  H45      1.0000 0.66510  0.84760  0.63550  Biso   1.000  H
  H46      1.0000 0.33490  0.34760  0.86450  Biso   1.000  H
  H47      1.0000 0.33490  0.15240  0.36450  Biso   1.000  H
  H48      1.0000 0.66510  0.65240  0.13550  Biso   1.000  H
  C73      1.0000 0.54040  0.92070  0.67590  Biso   1.000  C
  C74      1.0000 0.45960  0.42070  0.82410  Biso   1.000  C
  C75      1.0000 0.45960  0.07930  0.32410  Biso   1.000  C
  C76      1.0000 0.54040  0.57930  0.17590  Biso   1.000  C
  H49      1.0000 0.52900  0.94670  0.60150  Biso   1.000  H
  H50      1.0000 0.47100  0.44670  0.89850  Biso   1.000  H
  H51      1.0000 0.47100  0.05330  0.39850  Biso   1.000  H
  H52      1.0000 0.52900  0.55330  0.10150  Biso   1.000  H
  C77      1.0000 0.32640  0.96890  0.95460  Biso   1.000  C
  C78      1.0000 0.67360  0.46890  0.54540  Biso   1.000  C
  C79      1.0000 0.67360  0.03110  0.04540  Biso   1.000  C
  C80      1.0000 0.32640  0.53110  0.45460  Biso   1.000  C
  C81      1.0000 0.27060  0.95980  0.05480  Biso   1.000  C
  C82      1.0000 0.72940  0.45980  0.44520  Biso   1.000  C
  C83      1.0000 0.72940  0.04020  0.94520  Biso   1.000  C
  C84      1.0000 0.27060  0.54020  0.55480  Biso   1.000  C
  H53      1.0000 0.29270  0.92000  0.11370  Biso   1.000  H
  H54      1.0000 0.70730  0.42000  0.38630  Biso   1.000  H
  H55      1.0000 0.70730  0.08000  0.88630  Biso   1.000  H
  H56      1.0000 0.29270  0.58000  0.61370  Biso   1.000  H
  C85      1.0000 0.18310  0.01080  0.06360  Biso   1.000  C
  C86      1.0000 0.81690  0.51080  0.43640  Biso   1.000  C
  C87      1.0000 0.81690  0.98920  0.93640  Biso   1.000  C
  C88      1.0000 0.18310  0.48920  0.56360  Biso   1.000  C
  H57      1.0000 0.14410  0.00540  0.12910  Biso   1.000  H
  H58      1.0000 0.85590  0.50540  0.37090  Biso   1.000  H
  H59      1.0000 0.85590  0.99460  0.87090  Biso   1.000  H
  H60      1.0000 0.14410  0.49460  0.62910  Biso   1.000  H
  C89      1.0000 0.15070  0.07130  0.97560  Biso   1.000  C
  C90      1.0000 0.84930  0.57130  0.52440  Biso   1.000  C
  C91      1.0000 0.84930  0.92870  0.02440  Biso   1.000  C
  C92      1.0000 0.15070  0.42870  0.47560  Biso   1.000  C
  H61      1.0000 0.09240  0.10780  0.98250  Biso   1.000  H
  H62      1.0000 0.90760  0.60780  0.51750  Biso   1.000  H
  H63      1.0000 0.90760  0.89220  0.01750  Biso   1.000  H
  H64      1.0000 0.09240  0.39220  0.48250  Biso   1.000  H
  C93      1.0000 0.20780  0.07480  0.87910  Biso   1.000  C
  C94      1.0000 0.79220  0.57480  0.62090  Biso   1.000  C
  C95      1.0000 0.79220  0.92520  0.12090  Biso   1.000  C
  C96      1.0000 0.20780  0.42520  0.37910  Biso   1.000  C
  H65      1.0000 0.18530  0.11450  0.82000  Biso   1.000  H
  H66      1.0000 0.81470  0.61450  0.68000  Biso   1.000  H
  H67      1.0000 0.81470  0.88550  0.18000  Biso   1.000  H
  H68      1.0000 0.18530  0.38550  0.32000  Biso   1.000  H
