data_image0
_cell_length_a       22.1792
_cell_length_b       13.6526
_cell_length_c       13.0343
_cell_angle_alpha    90
_cell_angle_beta     119.281
_cell_angle_gamma    90

_symmetry_space_group_name_H-M    "P 1"
_symmetry_int_tables_number       1

loop_
  _symmetry_equiv_pos_as_xyz
  'x, y, z'

loop_
  _atom_site_label
  _atom_site_occupancy
  _atom_site_fract_x
  _atom_site_fract_y
  _atom_site_fract_z
  _atom_site_thermal_displace_type
  _atom_site_B_iso_or_equiv
  _atom_site_type_symbol
  Cu1      1.0000 0.54375  0.52556  0.88233  Biso   1.000  Cu
  Cu2      1.0000 0.04375  0.02556  0.88233  Biso   1.000  Cu
  Cu3      1.0000 0.45625  0.52556  0.61767  Biso   1.000  Cu
  Cu4      1.0000 0.95625  0.02556  0.61767  Biso   1.000  Cu
  Cu5      1.0000 0.45625  0.47444  0.11767  Biso   1.000  Cu
  Cu6      1.0000 0.95625  0.97444  0.11767  Biso   1.000  Cu
  Cu7      1.0000 0.54375  0.47444  0.38233  Biso   1.000  Cu
  Cu8      1.0000 0.04375  0.97444  0.38233  Biso   1.000  Cu
  N1       1.0000 0.62303  0.43324  0.93010  Biso   1.000  N
  N2       1.0000 0.12303  0.93324  0.93010  Biso   1.000  N
  N3       1.0000 0.37697  0.43324  0.56990  Biso   1.000  N
  N4       1.0000 0.87697  0.93324  0.56990  Biso   1.000  N
  N5       1.0000 0.37697  0.56676  0.06990  Biso   1.000  N
  N6       1.0000 0.87697  0.06676  0.06990  Biso   1.000  N
  N7       1.0000 0.62303  0.56676  0.43010  Biso   1.000  N
  N8       1.0000 0.12303  0.06676  0.43010  Biso   1.000  N
  O1       1.0000 0.48431  0.41134  0.85095  Biso   1.000  O
  O2       1.0000 0.98431  0.91134  0.85095  Biso   1.000  O
  O3       1.0000 0.51569  0.41134  0.64905  Biso   1.000  O
  O4       1.0000 0.01569  0.91134  0.64905  Biso   1.000  O
  O5       1.0000 0.51569  0.58866  0.14905  Biso   1.000  O
  O6       1.0000 0.01569  0.08866  0.14905  Biso   1.000  O
  O7       1.0000 0.48431  0.58866  0.35095  Biso   1.000  O
  O8       1.0000 0.98431  0.08866  0.35095  Biso   1.000  O
  O9       1.0000 0.41905  0.45450  0.93086  Biso   1.000  O
  O10      1.0000 0.91905  0.95450  0.93086  Biso   1.000  O
  O11      1.0000 0.58095  0.45450  0.56914  Biso   1.000  O
  O12      1.0000 0.08095  0.95450  0.56914  Biso   1.000  O
  O13      1.0000 0.58095  0.54550  0.06914  Biso   1.000  O
  O14      1.0000 0.08095  0.04550  0.06914  Biso   1.000  O
  O15      1.0000 0.41905  0.54550  0.43086  Biso   1.000  O
  O16      1.0000 0.91905  0.04550  0.43086  Biso   1.000  O
  O17      1.0000 0.30884  0.02420  0.77200  Biso   1.000  O
  O18      1.0000 0.80884  0.52420  0.77200  Biso   1.000  O
  O19      1.0000 0.69116  0.02420  0.72800  Biso   1.000  O
  O20      1.0000 0.19116  0.52420  0.72800  Biso   1.000  O
  O21      1.0000 0.69116  0.97580  0.22800  Biso   1.000  O
  O22      1.0000 0.19116  0.47580  0.22800  Biso   1.000  O
  O23      1.0000 0.30884  0.97580  0.27200  Biso   1.000  O
  O24      1.0000 0.80884  0.47580  0.27200  Biso   1.000  O
  O25      1.0000 0.40373  0.62452  0.65380  Biso   1.000  O
  O26      1.0000 0.90373  0.12452  0.65380  Biso   1.000  O
  O27      1.0000 0.59627  0.62452  0.84620  Biso   1.000  O
  O28      1.0000 0.09627  0.12452  0.84620  Biso   1.000  O
  O29      1.0000 0.59627  0.37548  0.34620  Biso   1.000  O
  O30      1.0000 0.09627  0.87548  0.34620  Biso   1.000  O
  O31      1.0000 0.40373  0.37548  0.15380  Biso   1.000  O
  O32      1.0000 0.90373  0.87548  0.15380  Biso   1.000  O
  O33      1.0000 0.47546  0.63023  0.84810  Biso   1.000  O
  O34      1.0000 0.97546  0.13023  0.84810  Biso   1.000  O
  O35      1.0000 0.52454  0.63023  0.65190  Biso   1.000  O
  O36      1.0000 0.02454  0.13023  0.65190  Biso   1.000  O
  O37      1.0000 0.52454  0.36977  0.15190  Biso   1.000  O
  O38      1.0000 0.02454  0.86977  0.15190  Biso   1.000  O
  O39      1.0000 0.47546  0.36977  0.34810  Biso   1.000  O
  O40      1.0000 0.97546  0.86977  0.34810  Biso   1.000  O
  C1       1.0000 0.43979  0.39410  0.88380  Biso   1.000  C
  C2       1.0000 0.93979  0.89410  0.88380  Biso   1.000  C
  C3       1.0000 0.56021  0.39410  0.61620  Biso   1.000  C
  C4       1.0000 0.06021  0.89410  0.61620  Biso   1.000  C
  C5       1.0000 0.56021  0.60590  0.11620  Biso   1.000  C
  C6       1.0000 0.06021  0.10590  0.11620  Biso   1.000  C
  C7       1.0000 0.43979  0.60590  0.38380  Biso   1.000  C
  C8       1.0000 0.93979  0.10590  0.38380  Biso   1.000  C
  C9       1.0000 0.40929  0.29320  0.85840  Biso   1.000  C
  C10      1.0000 0.90929  0.79320  0.85840  Biso   1.000  C
  C11      1.0000 0.59071  0.29320  0.64160  Biso   1.000  C
  C12      1.0000 0.09071  0.79320  0.64160  Biso   1.000  C
  C13      1.0000 0.59071  0.70680  0.14160  Biso   1.000  C
  C14      1.0000 0.09071  0.20680  0.14160  Biso   1.000  C
  C15      1.0000 0.40929  0.70680  0.35840  Biso   1.000  C
  C16      1.0000 0.90929  0.20680  0.35840  Biso   1.000  C
  C17      1.0000 0.36200  0.26690  0.89270  Biso   1.000  C
  C18      1.0000 0.86200  0.76690  0.89270  Biso   1.000  C
  C19      1.0000 0.63800  0.26690  0.60730  Biso   1.000  C
  C20      1.0000 0.13800  0.76690  0.60730  Biso   1.000  C
  C21      1.0000 0.63800  0.73310  0.10730  Biso   1.000  C
  C22      1.0000 0.13800  0.23310  0.10730  Biso   1.000  C
  C23      1.0000 0.36200  0.73310  0.39270  Biso   1.000  C
  C24      1.0000 0.86200  0.23310  0.39270  Biso   1.000  C
  H1       1.0000 0.35110  0.31120  0.93530  Biso   1.000  H
  H2       1.0000 0.85110  0.81120  0.93530  Biso   1.000  H
  H3       1.0000 0.64890  0.31120  0.56470  Biso   1.000  H
  H4       1.0000 0.14890  0.81120  0.56470  Biso   1.000  H
  H5       1.0000 0.64890  0.68880  0.06470  Biso   1.000  H
  H6       1.0000 0.14890  0.18880  0.06470  Biso   1.000  H
  H7       1.0000 0.35110  0.68880  0.43530  Biso   1.000  H
  H8       1.0000 0.85110  0.18880  0.43530  Biso   1.000  H
  C25      1.0000 0.33050  0.17630  0.86560  Biso   1.000  C
  C26      1.0000 0.83050  0.67630  0.86560  Biso   1.000  C
  C27      1.0000 0.66950  0.17630  0.63440  Biso   1.000  C
  C28      1.0000 0.16950  0.67630  0.63440  Biso   1.000  C
  C29      1.0000 0.66950  0.82370  0.13440  Biso   1.000  C
  C30      1.0000 0.16950  0.32370  0.13440  Biso   1.000  C
  C31      1.0000 0.33050  0.82370  0.36560  Biso   1.000  C
  C32      1.0000 0.83050  0.32370  0.36560  Biso   1.000  C
  H9       1.0000 0.29830  0.16020  0.88900  Biso   1.000  H
  H10      1.0000 0.79830  0.66020  0.88900  Biso   1.000  H
  H11      1.0000 0.70170  0.16020  0.61100  Biso   1.000  H
  H12      1.0000 0.20170  0.66020  0.61100  Biso   1.000  H
  H13      1.0000 0.70170  0.83980  0.11100  Biso   1.000  H
  H14      1.0000 0.20170  0.33980  0.11100  Biso   1.000  H
  H15      1.0000 0.29830  0.83980  0.38900  Biso   1.000  H
  H16      1.0000 0.79830  0.33980  0.38900  Biso   1.000  H
  C33      1.0000 0.34674  0.11070  0.80460  Biso   1.000  C
  C34      1.0000 0.84674  0.61070  0.80460  Biso   1.000  C
  C35      1.0000 0.65326  0.11070  0.69540  Biso   1.000  C
  C36      1.0000 0.15326  0.61070  0.69540  Biso   1.000  C
  C37      1.0000 0.65326  0.88930  0.19540  Biso   1.000  C
  C38      1.0000 0.15326  0.38930  0.19540  Biso   1.000  C
  C39      1.0000 0.34674  0.88930  0.30460  Biso   1.000  C
  C40      1.0000 0.84674  0.38930  0.30460  Biso   1.000  C
  C41      1.0000 0.39390  0.13400  0.76960  Biso   1.000  C
  C42      1.0000 0.89390  0.63400  0.76960  Biso   1.000  C
  C43      1.0000 0.60610  0.13400  0.73040  Biso   1.000  C
  C44      1.0000 0.10610  0.63400  0.73040  Biso   1.000  C
  C45      1.0000 0.60610  0.86600  0.23040  Biso   1.000  C
  C46      1.0000 0.10610  0.36600  0.23040  Biso   1.000  C
  C47      1.0000 0.39390  0.86600  0.26960  Biso   1.000  C
  C48      1.0000 0.89390  0.36600  0.26960  Biso   1.000  C
  H17      1.0000 0.40490  0.08900  0.72770  Biso   1.000  H
  H18      1.0000 0.90490  0.58900  0.72770  Biso   1.000  H
  H19      1.0000 0.59510  0.08900  0.77230  Biso   1.000  H
  H20      1.0000 0.09510  0.58900  0.77230  Biso   1.000  H
  H21      1.0000 0.59510  0.91100  0.27230  Biso   1.000  H
  H22      1.0000 0.09510  0.41100  0.27230  Biso   1.000  H
  H23      1.0000 0.40490  0.91100  0.22770  Biso   1.000  H
  H24      1.0000 0.90490  0.41100  0.22770  Biso   1.000  H
  C49      1.0000 0.42531  0.22520  0.79740  Biso   1.000  C
  C50      1.0000 0.92531  0.72520  0.79740  Biso   1.000  C
  C51      1.0000 0.57469  0.22520  0.70260  Biso   1.000  C
  C52      1.0000 0.07469  0.72520  0.70260  Biso   1.000  C
  C53      1.0000 0.57469  0.77480  0.20260  Biso   1.000  C
  C54      1.0000 0.07469  0.27480  0.20260  Biso   1.000  C
  C55      1.0000 0.42531  0.77480  0.29740  Biso   1.000  C
  C56      1.0000 0.92531  0.27480  0.29740  Biso   1.000  C
  H25      1.0000 0.45780  0.24080  0.77440  Biso   1.000  H
  H26      1.0000 0.95780  0.74080  0.77440  Biso   1.000  H
  H27      1.0000 0.54220  0.24080  0.72560  Biso   1.000  H
  H28      1.0000 0.04220  0.74080  0.72560  Biso   1.000  H
  H29      1.0000 0.54220  0.75920  0.22560  Biso   1.000  H
  H30      1.0000 0.04220  0.25920  0.22560  Biso   1.000  H
  H31      1.0000 0.45780  0.75920  0.27440  Biso   1.000  H
  H32      1.0000 0.95780  0.25920  0.27440  Biso   1.000  H
  C57      1.0000 0.34096  0.93810  0.76860  Biso   1.000  C
  C58      1.0000 0.84096  0.43810  0.76860  Biso   1.000  C
  C59      1.0000 0.65904  0.93810  0.73140  Biso   1.000  C
  C60      1.0000 0.15904  0.43810  0.73140  Biso   1.000  C
  C61      1.0000 0.65904  0.06190  0.23140  Biso   1.000  C
  C62      1.0000 0.15904  0.56190  0.23140  Biso   1.000  C
  C63      1.0000 0.34096  0.06190  0.26860  Biso   1.000  C
  C64      1.0000 0.84096  0.56190  0.26860  Biso   1.000  C
  C65      1.0000 0.30644  0.88000  0.67190  Biso   1.000  C
  C66      1.0000 0.80644  0.38000  0.67190  Biso   1.000  C
  C67      1.0000 0.69356  0.88000  0.82810  Biso   1.000  C
  C68      1.0000 0.19356  0.38000  0.82810  Biso   1.000  C
  C69      1.0000 0.69356  0.12000  0.32810  Biso   1.000  C
  C70      1.0000 0.19356  0.62000  0.32810  Biso   1.000  C
  C71      1.0000 0.30644  0.12000  0.17190  Biso   1.000  C
  C72      1.0000 0.80644  0.62000  0.17190  Biso   1.000  C
  H33      1.0000 0.26430  0.90010  0.60960  Biso   1.000  H
  H34      1.0000 0.76430  0.40010  0.60960  Biso   1.000  H
  H35      1.0000 0.73570  0.90010  0.89040  Biso   1.000  H
  H36      1.0000 0.23570  0.40010  0.89040  Biso   1.000  H
  H37      1.0000 0.73570  0.09990  0.39040  Biso   1.000  H
  H38      1.0000 0.23570  0.59990  0.39040  Biso   1.000  H
  H39      1.0000 0.26430  0.09990  0.10960  Biso   1.000  H
  H40      1.0000 0.76430  0.59990  0.10960  Biso   1.000  H
  C73      1.0000 0.33456  0.79110  0.66720  Biso   1.000  C
  C74      1.0000 0.83456  0.29110  0.66720  Biso   1.000  C
  C75      1.0000 0.66544  0.79110  0.83280  Biso   1.000  C
  C76      1.0000 0.16544  0.29110  0.83280  Biso   1.000  C
  C77      1.0000 0.66544  0.20890  0.33280  Biso   1.000  C
  C78      1.0000 0.16544  0.70890  0.33280  Biso   1.000  C
  C79      1.0000 0.33456  0.20890  0.16720  Biso   1.000  C
  C80      1.0000 0.83456  0.70890  0.16720  Biso   1.000  C
  H41      1.0000 0.31150  0.75180  0.60080  Biso   1.000  H
  H42      1.0000 0.81150  0.25180  0.60080  Biso   1.000  H
  H43      1.0000 0.68850  0.75180  0.89920  Biso   1.000  H
  H44      1.0000 0.18850  0.25180  0.89920  Biso   1.000  H
  H45      1.0000 0.68850  0.24820  0.39920  Biso   1.000  H
  H46      1.0000 0.18850  0.74820  0.39920  Biso   1.000  H
  H47      1.0000 0.31150  0.24820  0.10080  Biso   1.000  H
  H48      1.0000 0.81150  0.74820  0.10080  Biso   1.000  H
  C81      1.0000 0.39658  0.75950  0.75990  Biso   1.000  C
  C82      1.0000 0.89658  0.25950  0.75990  Biso   1.000  C
  C83      1.0000 0.60342  0.75950  0.74010  Biso   1.000  C
  C84      1.0000 0.10342  0.25950  0.74010  Biso   1.000  C
  C85      1.0000 0.60342  0.24050  0.24010  Biso   1.000  C
  C86      1.0000 0.10342  0.74050  0.24010  Biso   1.000  C
  C87      1.0000 0.39658  0.24050  0.25990  Biso   1.000  C
  C88      1.0000 0.89658  0.74050  0.25990  Biso   1.000  C
  C89      1.0000 0.43041  0.81930  0.85730  Biso   1.000  C
  C90      1.0000 0.93041  0.31930  0.85730  Biso   1.000  C
  C91      1.0000 0.56959  0.81930  0.64270  Biso   1.000  C
  C92      1.0000 0.06959  0.31930  0.64270  Biso   1.000  C
  C93      1.0000 0.56959  0.18070  0.14270  Biso   1.000  C
  C94      1.0000 0.06959  0.68070  0.14270  Biso   1.000  C
  C95      1.0000 0.43041  0.18070  0.35730  Biso   1.000  C
  C96      1.0000 0.93041  0.68070  0.35730  Biso   1.000  C
  H49      1.0000 0.47210  0.79910  0.92060  Biso   1.000  H
  H50      1.0000 0.97210  0.29910  0.92060  Biso   1.000  H
  H51      1.0000 0.52790  0.79910  0.57940  Biso   1.000  H
  H52      1.0000 0.02790  0.29910  0.57940  Biso   1.000  H
  H53      1.0000 0.52790  0.20090  0.07940  Biso   1.000  H
  H54      1.0000 0.02790  0.70090  0.07940  Biso   1.000  H
  H55      1.0000 0.47210  0.20090  0.42060  Biso   1.000  H
  H56      1.0000 0.97210  0.70090  0.42060  Biso   1.000  H
  C97      1.0000 0.40270  0.90860  0.86100  Biso   1.000  C
  C98      1.0000 0.90270  0.40860  0.86100  Biso   1.000  C
  C99      1.0000 0.59730  0.90860  0.63900  Biso   1.000  C
  C100     1.0000 0.09730  0.40860  0.63900  Biso   1.000  C
  C101     1.0000 0.59730  0.09140  0.13900  Biso   1.000  C
  C102     1.0000 0.09730  0.59140  0.13900  Biso   1.000  C
  C103     1.0000 0.40270  0.09140  0.36100  Biso   1.000  C
  C104     1.0000 0.90270  0.59140  0.36100  Biso   1.000  C
  H57      1.0000 0.42600  0.94900  0.92640  Biso   1.000  H
  H58      1.0000 0.92600  0.44900  0.92640  Biso   1.000  H
  H59      1.0000 0.57400  0.94900  0.57360  Biso   1.000  H
  H60      1.0000 0.07400  0.44900  0.57360  Biso   1.000  H
  H61      1.0000 0.57400  0.05100  0.07360  Biso   1.000  H
  H62      1.0000 0.07400  0.55100  0.07360  Biso   1.000  H
  H63      1.0000 0.42600  0.05100  0.42640  Biso   1.000  H
  H64      1.0000 0.92600  0.55100  0.42640  Biso   1.000  H
  C105     1.0000 0.42751  0.66370  0.75370  Biso   1.000  C
  C106     1.0000 0.92751  0.16370  0.75370  Biso   1.000  C
  C107     1.0000 0.57249  0.66370  0.74630  Biso   1.000  C
  C108     1.0000 0.07249  0.16370  0.74630  Biso   1.000  C
  C109     1.0000 0.57249  0.33630  0.24630  Biso   1.000  C
  C110     1.0000 0.07249  0.83630  0.24630  Biso   1.000  C
  C111     1.0000 0.42751  0.33630  0.25370  Biso   1.000  C
  C112     1.0000 0.92751  0.83630  0.25370  Biso   1.000  C
  C113     1.0000 0.63111  0.36040  0.00380  Biso   1.000  C
  C114     1.0000 0.13111  0.86040  0.00380  Biso   1.000  C
  C115     1.0000 0.36889  0.36040  0.49620  Biso   1.000  C
  C116     1.0000 0.86889  0.86040  0.49620  Biso   1.000  C
  C117     1.0000 0.36889  0.63960  0.99620  Biso   1.000  C
  C118     1.0000 0.86889  0.13960  0.99620  Biso   1.000  C
  C119     1.0000 0.63111  0.63960  0.50380  Biso   1.000  C
  C120     1.0000 0.13111  0.13960  0.50380  Biso   1.000  C
  H65      1.0000 0.60200  0.35800  0.03640  Biso   1.000  H
  H66      1.0000 0.10200  0.85800  0.03640  Biso   1.000  H
  H67      1.0000 0.39800  0.35800  0.46360  Biso   1.000  H
  H68      1.0000 0.89800  0.85800  0.46360  Biso   1.000  H
  H69      1.0000 0.39800  0.64200  0.96360  Biso   1.000  H
  H70      1.0000 0.89800  0.14200  0.96360  Biso   1.000  H
  H71      1.0000 0.60200  0.64200  0.53640  Biso   1.000  H
  H72      1.0000 0.10200  0.14200  0.53640  Biso   1.000  H
  C121     1.0000 0.68030  0.28890  0.03380  Biso   1.000  C
  C122     1.0000 0.18030  0.78890  0.03380  Biso   1.000  C
  C123     1.0000 0.31970  0.28890  0.46620  Biso   1.000  C
  C124     1.0000 0.81970  0.78890  0.46620  Biso   1.000  C
  C125     1.0000 0.31970  0.71110  0.96620  Biso   1.000  C
  C126     1.0000 0.81970  0.21110  0.96620  Biso   1.000  C
  C127     1.0000 0.68030  0.71110  0.53380  Biso   1.000  C
  C128     1.0000 0.18030  0.21110  0.53380  Biso   1.000  C
  H73      1.0000 0.68410  0.23970  0.08610  Biso   1.000  H
  H74      1.0000 0.18410  0.73970  0.08610  Biso   1.000  H
  H75      1.0000 0.31590  0.23970  0.41390  Biso   1.000  H
  H76      1.0000 0.81590  0.73970  0.41390  Biso   1.000  H
  H77      1.0000 0.31590  0.76030  0.91390  Biso   1.000  H
  H78      1.0000 0.81590  0.26030  0.91390  Biso   1.000  H
  H79      1.0000 0.68410  0.76030  0.58610  Biso   1.000  H
  H80      1.0000 0.18410  0.26030  0.58610  Biso   1.000  H
  C129     1.0000 0.72441  0.28940  0.98650  Biso   1.000  C
  C130     1.0000 0.22441  0.78940  0.98650  Biso   1.000  C
  C131     1.0000 0.27559  0.28940  0.51350  Biso   1.000  C
  C132     1.0000 0.77559  0.78940  0.51350  Biso   1.000  C
  C133     1.0000 0.27559  0.71060  0.01350  Biso   1.000  C
  C134     1.0000 0.77559  0.21060  0.01350  Biso   1.000  C
  C135     1.0000 0.72441  0.71060  0.48650  Biso   1.000  C
  C136     1.0000 0.22441  0.21060  0.48650  Biso   1.000  C
  C137     1.0000 0.71729  0.36700  0.91440  Biso   1.000  C
  C138     1.0000 0.21729  0.86700  0.91440  Biso   1.000  C
  C139     1.0000 0.28271  0.36700  0.58560  Biso   1.000  C
  C140     1.0000 0.78271  0.86700  0.58560  Biso   1.000  C
  C141     1.0000 0.28271  0.63300  0.08560  Biso   1.000  C
  C142     1.0000 0.78271  0.13300  0.08560  Biso   1.000  C
  C143     1.0000 0.71729  0.63300  0.41440  Biso   1.000  C
  C144     1.0000 0.21729  0.13300  0.41440  Biso   1.000  C
  H81      1.0000 0.74690  0.37260  0.88320  Biso   1.000  H
  H82      1.0000 0.24690  0.87260  0.88320  Biso   1.000  H
  H83      1.0000 0.25310  0.37260  0.61680  Biso   1.000  H
  H84      1.0000 0.75310  0.87260  0.61680  Biso   1.000  H
  H85      1.0000 0.25310  0.62740  0.11680  Biso   1.000  H
  H86      1.0000 0.75310  0.12740  0.11680  Biso   1.000  H
  H87      1.0000 0.74690  0.62740  0.38320  Biso   1.000  H
  H88      1.0000 0.24690  0.12740  0.38320  Biso   1.000  H
  C145     1.0000 0.66698  0.43650  0.88770  Biso   1.000  C
  C146     1.0000 0.16698  0.93650  0.88770  Biso   1.000  C
  C147     1.0000 0.33302  0.43650  0.61230  Biso   1.000  C
  C148     1.0000 0.83302  0.93650  0.61230  Biso   1.000  C
  C149     1.0000 0.33302  0.56350  0.11230  Biso   1.000  C
  C150     1.0000 0.83302  0.06350  0.11230  Biso   1.000  C
  C151     1.0000 0.66698  0.56350  0.38770  Biso   1.000  C
  C152     1.0000 0.16698  0.06350  0.38770  Biso   1.000  C
  H89      1.0000 0.66340  0.48790  0.83820  Biso   1.000  H
  H90      1.0000 0.16340  0.98790  0.83820  Biso   1.000  H
  H91      1.0000 0.33660  0.48790  0.66180  Biso   1.000  H
  H92      1.0000 0.83660  0.98790  0.66180  Biso   1.000  H
  H93      1.0000 0.33660  0.51210  0.16180  Biso   1.000  H
  H94      1.0000 0.83660  0.01210  0.16180  Biso   1.000  H
  H95      1.0000 0.66340  0.51210  0.33820  Biso   1.000  H
  H96      1.0000 0.16340  0.01210  0.33820  Biso   1.000  H
