data_image0
_cell_length_a       5.9833
_cell_length_b       22.333
_cell_length_c       24.571
_cell_angle_alpha    90
_cell_angle_beta     90
_cell_angle_gamma    90

_symmetry_space_group_name_H-M    "P 1"
_symmetry_int_tables_number       1

loop_
  _symmetry_equiv_pos_as_xyz
  'x, y, z'

loop_
  _atom_site_label
  _atom_site_occupancy
  _atom_site_fract_x
  _atom_site_fract_y
  _atom_site_fract_z
  _atom_site_thermal_displace_type
  _atom_site_B_iso_or_equiv
  _atom_site_type_symbol
  Cu1      1.0000 0.21287  0.25000  0.00000  Biso   1.000  Cu
  Cu2      1.0000 0.78713  0.75000  0.50000  Biso   1.000  Cu
  Cu3      1.0000 0.78713  0.75000  0.00000  Biso   1.000  Cu
  Cu4      1.0000 0.21287  0.25000  0.50000  Biso   1.000  Cu
  S1       1.0000 0.16715  0.98422  0.25000  Biso   1.000  S
  S2       1.0000 0.83285  0.01578  0.75000  Biso   1.000  S
  S3       1.0000 0.16715  0.51578  0.75000  Biso   1.000  S
  S4       1.0000 0.83285  0.48422  0.25000  Biso   1.000  S
  O1       1.0000 0.20090  0.18066  0.04645  Biso   1.000  O
  O2       1.0000 0.79910  0.81934  0.54645  Biso   1.000  O
  O3       1.0000 0.20090  0.31934  0.95355  Biso   1.000  O
  O4       1.0000 0.79910  0.68066  0.45355  Biso   1.000  O
  O5       1.0000 0.79910  0.81934  0.95355  Biso   1.000  O
  O6       1.0000 0.20090  0.18066  0.45355  Biso   1.000  O
  O7       1.0000 0.79910  0.68066  0.04645  Biso   1.000  O
  O8       1.0000 0.20090  0.31934  0.54645  Biso   1.000  O
  N1       1.0000 0.24950  0.30253  0.06752  Biso   1.000  N
  N2       1.0000 0.75050  0.69747  0.56752  Biso   1.000  N
  N3       1.0000 0.24950  0.19747  0.93248  Biso   1.000  N
  N4       1.0000 0.75050  0.80253  0.43248  Biso   1.000  N
  N5       1.0000 0.75050  0.69747  0.93248  Biso   1.000  N
  N6       1.0000 0.24950  0.30253  0.43248  Biso   1.000  N
  N7       1.0000 0.75050  0.80253  0.06752  Biso   1.000  N
  N8       1.0000 0.24950  0.19747  0.56752  Biso   1.000  N
  C1       1.0000 0.37070  0.15669  0.06802  Biso   1.000  C
  C2       1.0000 0.62930  0.84331  0.56802  Biso   1.000  C
  C3       1.0000 0.37070  0.34331  0.93198  Biso   1.000  C
  C4       1.0000 0.62930  0.65669  0.43198  Biso   1.000  C
  C5       1.0000 0.62930  0.84331  0.93198  Biso   1.000  C
  C6       1.0000 0.37070  0.15669  0.43198  Biso   1.000  C
  C7       1.0000 0.62930  0.65669  0.06802  Biso   1.000  C
  C8       1.0000 0.37070  0.34331  0.56802  Biso   1.000  C
  O9       1.0000 0.56700  0.16900  0.05805  Biso   1.000  O
  O10      1.0000 0.43300  0.83100  0.55805  Biso   1.000  O
  O11      1.0000 0.56700  0.33100  0.94195  Biso   1.000  O
  O12      1.0000 0.43300  0.66900  0.44195  Biso   1.000  O
  O13      1.0000 0.43300  0.83100  0.94195  Biso   1.000  O
  O14      1.0000 0.56700  0.16900  0.44195  Biso   1.000  O
  O15      1.0000 0.43300  0.66900  0.05805  Biso   1.000  O
  O16      1.0000 0.56700  0.33100  0.55805  Biso   1.000  O
  C9       1.0000 0.31820  0.10998  0.11072  Biso   1.000  C
  C10      1.0000 0.68180  0.89002  0.61072  Biso   1.000  C
  C11      1.0000 0.31820  0.39002  0.88928  Biso   1.000  C
  C12      1.0000 0.68180  0.60998  0.38928  Biso   1.000  C
  C13      1.0000 0.68180  0.89002  0.88928  Biso   1.000  C
  C14      1.0000 0.31820  0.10998  0.38928  Biso   1.000  C
  C15      1.0000 0.68180  0.60998  0.11072  Biso   1.000  C
  C16      1.0000 0.31820  0.39002  0.61072  Biso   1.000  C
  O17      1.0000 0.32310  0.93539  0.25000  Biso   1.000  O
  O18      1.0000 0.67690  0.06461  0.75000  Biso   1.000  O
  O19      1.0000 0.32310  0.56461  0.75000  Biso   1.000  O
  O20      1.0000 0.67690  0.43539  0.25000  Biso   1.000  O
  C17      1.0000 0.10500  0.10634  0.13197  Biso   1.000  C
  C18      1.0000 0.89500  0.89366  0.63197  Biso   1.000  C
  C19      1.0000 0.10500  0.39366  0.86803  Biso   1.000  C
  C20      1.0000 0.89500  0.60634  0.36803  Biso   1.000  C
  C21      1.0000 0.89500  0.89366  0.86803  Biso   1.000  C
  C22      1.0000 0.10500  0.10634  0.36803  Biso   1.000  C
  C23      1.0000 0.89500  0.60634  0.13197  Biso   1.000  C
  C24      1.0000 0.10500  0.39366  0.63197  Biso   1.000  C
  H1       1.0000 0.99180  0.13030  0.11780  Biso   1.000  H
  H2       1.0000 0.00820  0.86970  0.61780  Biso   1.000  H
  H3       1.0000 0.99180  0.36970  0.88220  Biso   1.000  H
  H4       1.0000 0.00820  0.63030  0.38220  Biso   1.000  H
  H5       1.0000 0.00820  0.86970  0.88220  Biso   1.000  H
  H6       1.0000 0.99180  0.13030  0.38220  Biso   1.000  H
  H7       1.0000 0.00820  0.63030  0.11780  Biso   1.000  H
  H8       1.0000 0.99180  0.36970  0.61780  Biso   1.000  H
  O21      1.0000 0.93080  0.97190  0.25000  Biso   1.000  O
  O22      1.0000 0.06920  0.02810  0.75000  Biso   1.000  O
  O23      1.0000 0.93080  0.52810  0.75000  Biso   1.000  O
  O24      1.0000 0.06920  0.47190  0.25000  Biso   1.000  O
  C25      1.0000 0.05920  0.06748  0.17396  Biso   1.000  C
  C26      1.0000 0.94080  0.93252  0.67396  Biso   1.000  C
  C27      1.0000 0.05920  0.43252  0.82604  Biso   1.000  C
  C28      1.0000 0.94080  0.56748  0.32604  Biso   1.000  C
  C29      1.0000 0.94080  0.93252  0.82604  Biso   1.000  C
  C30      1.0000 0.05920  0.06748  0.32604  Biso   1.000  C
  C31      1.0000 0.94080  0.56748  0.17396  Biso   1.000  C
  C32      1.0000 0.05920  0.43252  0.67396  Biso   1.000  C
  H9       1.0000 0.91660  0.06600  0.18900  Biso   1.000  H
  H10      1.0000 0.08340  0.93400  0.68900  Biso   1.000  H
  H11      1.0000 0.91660  0.43400  0.81100  Biso   1.000  H
  H12      1.0000 0.08340  0.56600  0.31100  Biso   1.000  H
  H13      1.0000 0.08340  0.93400  0.81100  Biso   1.000  H
  H14      1.0000 0.91660  0.06600  0.31100  Biso   1.000  H
  H15      1.0000 0.08340  0.56600  0.18900  Biso   1.000  H
  H16      1.0000 0.91660  0.43400  0.68900  Biso   1.000  H
  O25      1.0000 0.83190  0.25000  0.00000  Biso   1.000  O
  O26      1.0000 0.16810  0.75000  0.50000  Biso   1.000  O
  O27      1.0000 0.16810  0.75000  0.00000  Biso   1.000  O
  O28      1.0000 0.83190  0.25000  0.50000  Biso   1.000  O
  C33      1.0000 0.22580  0.03080  0.19370  Biso   1.000  C
  C34      1.0000 0.77420  0.96920  0.69370  Biso   1.000  C
  C35      1.0000 0.22580  0.46920  0.80630  Biso   1.000  C
  C36      1.0000 0.77420  0.53080  0.30630  Biso   1.000  C
  C37      1.0000 0.77420  0.96920  0.80630  Biso   1.000  C
  C38      1.0000 0.22580  0.03080  0.30630  Biso   1.000  C
  C39      1.0000 0.77420  0.53080  0.19370  Biso   1.000  C
  C40      1.0000 0.22580  0.46920  0.69370  Biso   1.000  C
  C41      1.0000 0.43610  0.03203  0.17140  Biso   1.000  C
  C42      1.0000 0.56390  0.96797  0.67140  Biso   1.000  C
  C43      1.0000 0.43610  0.46797  0.82860  Biso   1.000  C
  C44      1.0000 0.56390  0.53203  0.32860  Biso   1.000  C
  C45      1.0000 0.56390  0.96797  0.82860  Biso   1.000  C
  C46      1.0000 0.43610  0.03203  0.32860  Biso   1.000  C
  C47      1.0000 0.56390  0.53203  0.17140  Biso   1.000  C
  C48      1.0000 0.43610  0.46797  0.67140  Biso   1.000  C
  H17      1.0000 0.54640  0.00610  0.18390  Biso   1.000  H
  H18      1.0000 0.45360  0.99390  0.68390  Biso   1.000  H
  H19      1.0000 0.54640  0.49390  0.81610  Biso   1.000  H
  H20      1.0000 0.45360  0.50610  0.31610  Biso   1.000  H
  H21      1.0000 0.45360  0.99390  0.81610  Biso   1.000  H
  H22      1.0000 0.54640  0.00610  0.31610  Biso   1.000  H
  H23      1.0000 0.45360  0.50610  0.18390  Biso   1.000  H
  H24      1.0000 0.54640  0.49390  0.68390  Biso   1.000  H
  C49      1.0000 0.48200  0.07224  0.13005  Biso   1.000  C
  C50      1.0000 0.51800  0.92776  0.63005  Biso   1.000  C
  C51      1.0000 0.48200  0.42776  0.86995  Biso   1.000  C
  C52      1.0000 0.51800  0.57224  0.36995  Biso   1.000  C
  C53      1.0000 0.51800  0.92776  0.86995  Biso   1.000  C
  C54      1.0000 0.48200  0.07224  0.36995  Biso   1.000  C
  C55      1.0000 0.51800  0.57224  0.13005  Biso   1.000  C
  C56      1.0000 0.48200  0.42776  0.63005  Biso   1.000  C
  H25      1.0000 0.62480  0.07380  0.11520  Biso   1.000  H
  H26      1.0000 0.37520  0.92620  0.61520  Biso   1.000  H
  H27      1.0000 0.62480  0.42620  0.88480  Biso   1.000  H
  H28      1.0000 0.37520  0.57380  0.38480  Biso   1.000  H
  H29      1.0000 0.37520  0.92620  0.88480  Biso   1.000  H
  H30      1.0000 0.62480  0.07380  0.38480  Biso   1.000  H
  H31      1.0000 0.37520  0.57380  0.11520  Biso   1.000  H
  H32      1.0000 0.62480  0.42620  0.61520  Biso   1.000  H
  C57      1.0000 0.09480  0.30188  0.10622  Biso   1.000  C
  C58      1.0000 0.90520  0.69812  0.60622  Biso   1.000  C
  C59      1.0000 0.09480  0.19812  0.89378  Biso   1.000  C
  C60      1.0000 0.90520  0.80188  0.39378  Biso   1.000  C
  C61      1.0000 0.90520  0.69812  0.89378  Biso   1.000  C
  C62      1.0000 0.09480  0.30188  0.39378  Biso   1.000  C
  C63      1.0000 0.90520  0.80188  0.10622  Biso   1.000  C
  C64      1.0000 0.09480  0.19812  0.60622  Biso   1.000  C
  H33      1.0000 0.97170  0.27690  0.10210  Biso   1.000  H
  H34      1.0000 0.02830  0.72310  0.60210  Biso   1.000  H
  H35      1.0000 0.97170  0.22310  0.89790  Biso   1.000  H
  H36      1.0000 0.02830  0.77690  0.39790  Biso   1.000  H
  H37      1.0000 0.02830  0.72310  0.89790  Biso   1.000  H
  H38      1.0000 0.97170  0.27690  0.39790  Biso   1.000  H
  H39      1.0000 0.02830  0.77690  0.10210  Biso   1.000  H
  H40      1.0000 0.97170  0.22310  0.60210  Biso   1.000  H
  C65      1.0000 0.10960  0.33690  0.15232  Biso   1.000  C
  C66      1.0000 0.89040  0.66310  0.65232  Biso   1.000  C
  C67      1.0000 0.10960  0.16310  0.84768  Biso   1.000  C
  C68      1.0000 0.89040  0.83690  0.34768  Biso   1.000  C
  C69      1.0000 0.89040  0.66310  0.84768  Biso   1.000  C
  C70      1.0000 0.10960  0.33690  0.34768  Biso   1.000  C
  C71      1.0000 0.89040  0.83690  0.15232  Biso   1.000  C
  C72      1.0000 0.10960  0.16310  0.65232  Biso   1.000  C
  H41      1.0000 0.99570  0.33620  0.17810  Biso   1.000  H
  H42      1.0000 0.00430  0.66380  0.67810  Biso   1.000  H
  H43      1.0000 0.99570  0.16380  0.82190  Biso   1.000  H
  H44      1.0000 0.00430  0.83620  0.32190  Biso   1.000  H
  H45      1.0000 0.00430  0.66380  0.82190  Biso   1.000  H
  H46      1.0000 0.99570  0.33620  0.32190  Biso   1.000  H
  H47      1.0000 0.00430  0.83620  0.17810  Biso   1.000  H
  H48      1.0000 0.99570  0.16380  0.67810  Biso   1.000  H
  C73      1.0000 0.29230  0.37260  0.15997  Biso   1.000  C
  C74      1.0000 0.70770  0.62740  0.65997  Biso   1.000  C
  C75      1.0000 0.29230  0.12740  0.84003  Biso   1.000  C
  C76      1.0000 0.70770  0.87260  0.34003  Biso   1.000  C
  C77      1.0000 0.70770  0.62740  0.84003  Biso   1.000  C
  C78      1.0000 0.29230  0.37260  0.34003  Biso   1.000  C
  C79      1.0000 0.70770  0.87260  0.15997  Biso   1.000  C
  C80      1.0000 0.29230  0.12740  0.65997  Biso   1.000  C
  H49      1.0000 0.30580  0.39640  0.19090  Biso   1.000  H
  H50      1.0000 0.69420  0.60360  0.69090  Biso   1.000  H
  H51      1.0000 0.30580  0.10360  0.80910  Biso   1.000  H
  H52      1.0000 0.69420  0.89640  0.30910  Biso   1.000  H
  H53      1.0000 0.69420  0.60360  0.80910  Biso   1.000  H
  H54      1.0000 0.30580  0.39640  0.30910  Biso   1.000  H
  H55      1.0000 0.69420  0.89640  0.19090  Biso   1.000  H
  H56      1.0000 0.30580  0.10360  0.69090  Biso   1.000  H
  C81      1.0000 0.45440  0.37240  0.12091  Biso   1.000  C
  C82      1.0000 0.54560  0.62760  0.62091  Biso   1.000  C
  C83      1.0000 0.45440  0.12760  0.87909  Biso   1.000  C
  C84      1.0000 0.54560  0.87240  0.37909  Biso   1.000  C
  C85      1.0000 0.54560  0.62760  0.87909  Biso   1.000  C
  C86      1.0000 0.45440  0.37240  0.37909  Biso   1.000  C
  C87      1.0000 0.54560  0.87240  0.12091  Biso   1.000  C
  C88      1.0000 0.45440  0.12760  0.62091  Biso   1.000  C
  H57      1.0000 0.58320  0.39520  0.12540  Biso   1.000  H
  H58      1.0000 0.41680  0.60480  0.62540  Biso   1.000  H
  H59      1.0000 0.58320  0.10480  0.87460  Biso   1.000  H
  H60      1.0000 0.41680  0.89520  0.37460  Biso   1.000  H
  H61      1.0000 0.41680  0.60480  0.87460  Biso   1.000  H
  H62      1.0000 0.58320  0.39520  0.37460  Biso   1.000  H
  H63      1.0000 0.41680  0.89520  0.12540  Biso   1.000  H
  H64      1.0000 0.58320  0.10480  0.62540  Biso   1.000  H
  C89      1.0000 0.42600  0.33803  0.07449  Biso   1.000  C
  C90      1.0000 0.57400  0.66197  0.57449  Biso   1.000  C
  C91      1.0000 0.42600  0.16197  0.92551  Biso   1.000  C
  C92      1.0000 0.57400  0.83803  0.42551  Biso   1.000  C
  C93      1.0000 0.57400  0.66197  0.92551  Biso   1.000  C
  C94      1.0000 0.42600  0.33803  0.42551  Biso   1.000  C
  C95      1.0000 0.57400  0.83803  0.07449  Biso   1.000  C
  C96      1.0000 0.42600  0.16197  0.57449  Biso   1.000  C
  H65      1.0000 0.53390  0.33980  0.04730  Biso   1.000  H
  H66      1.0000 0.46610  0.66020  0.54730  Biso   1.000  H
  H67      1.0000 0.53390  0.16020  0.95270  Biso   1.000  H
  H68      1.0000 0.46610  0.83980  0.45270  Biso   1.000  H
  H69      1.0000 0.46610  0.66020  0.95270  Biso   1.000  H
  H70      1.0000 0.53390  0.33980  0.45270  Biso   1.000  H
  H71      1.0000 0.46610  0.83980  0.04730  Biso   1.000  H
  H72      1.0000 0.53390  0.16020  0.54730  Biso   1.000  H
  C97      1.0000 0.45360  0.21720  0.22070  Biso   1.000  C
  C98      1.0000 0.54640  0.78280  0.72070  Biso   1.000  C
  C99      1.0000 0.45360  0.28280  0.77930  Biso   1.000  C
  C100     1.0000 0.54640  0.71720  0.27930  Biso   1.000  C
  C101     1.0000 0.54640  0.78280  0.77930  Biso   1.000  C
  C102     1.0000 0.45360  0.21720  0.27930  Biso   1.000  C
  C103     1.0000 0.54640  0.71720  0.22070  Biso   1.000  C
  C104     1.0000 0.45360  0.28280  0.72070  Biso   1.000  C
  C105     1.0000 0.64000  0.21620  0.19690  Biso   1.000  C
  C106     1.0000 0.36000  0.78380  0.69690  Biso   1.000  C
  C107     1.0000 0.64000  0.28380  0.80310  Biso   1.000  C
  C108     1.0000 0.36000  0.71620  0.30310  Biso   1.000  C
  C109     1.0000 0.36000  0.78380  0.80310  Biso   1.000  C
  C110     1.0000 0.64000  0.21620  0.30310  Biso   1.000  C
  C111     1.0000 0.36000  0.71620  0.19690  Biso   1.000  C
  C112     1.0000 0.64000  0.28380  0.69690  Biso   1.000  C
  C113     1.0000 0.82760  0.21390  0.22220  Biso   1.000  C
  C114     1.0000 0.17240  0.78610  0.72220  Biso   1.000  C
  C115     1.0000 0.82760  0.28610  0.77780  Biso   1.000  C
  C116     1.0000 0.17240  0.71390  0.27780  Biso   1.000  C
  C117     1.0000 0.17240  0.78610  0.77780  Biso   1.000  C
  C118     1.0000 0.82760  0.21390  0.27780  Biso   1.000  C
  C119     1.0000 0.17240  0.71390  0.22220  Biso   1.000  C
  C120     1.0000 0.82760  0.28610  0.72220  Biso   1.000  C
  C121     1.0000 0.98800  0.44520  0.02210  Biso   1.000  C
  C122     1.0000 0.01200  0.55480  0.52210  Biso   1.000  C
  C123     1.0000 0.98800  0.05480  0.97790  Biso   1.000  C
  C124     1.0000 0.01200  0.94520  0.47790  Biso   1.000  C
  C125     1.0000 0.01200  0.55480  0.97790  Biso   1.000  C
  C126     1.0000 0.98800  0.44520  0.47790  Biso   1.000  C
  C127     1.0000 0.01200  0.94520  0.02210  Biso   1.000  C
  C128     1.0000 0.98800  0.05480  0.52210  Biso   1.000  C
  C129     1.0000 0.81200  0.46870  0.00090  Biso   1.000  C
  C130     1.0000 0.18800  0.53130  0.50090  Biso   1.000  C
  C131     1.0000 0.81200  0.03130  0.99910  Biso   1.000  C
  C132     1.0000 0.18800  0.96870  0.49910  Biso   1.000  C
  C133     1.0000 0.18800  0.53130  0.99910  Biso   1.000  C
  C134     1.0000 0.81200  0.46870  0.49910  Biso   1.000  C
  C135     1.0000 0.18800  0.96870  0.00090  Biso   1.000  C
  C136     1.0000 0.81200  0.03130  0.50090  Biso   1.000  C
  C137     1.0000 0.18100  0.47600  0.02190  Biso   1.000  C
  C138     1.0000 0.81900  0.52400  0.52190  Biso   1.000  C
  C139     1.0000 0.18100  0.02400  0.97810  Biso   1.000  C
  C140     1.0000 0.81900  0.97600  0.47810  Biso   1.000  C
  C141     1.0000 0.81900  0.52400  0.97810  Biso   1.000  C
  C142     1.0000 0.18100  0.47600  0.47810  Biso   1.000  C
  C143     1.0000 0.81900  0.97600  0.02190  Biso   1.000  C
  C144     1.0000 0.18100  0.02400  0.52190  Biso   1.000  C
  H73      1.0000 0.75610  0.25510  0.02850  Biso   1.000  H
  H74      1.0000 0.24390  0.74490  0.52850  Biso   1.000  H
  H75      1.0000 0.75610  0.24490  0.97150  Biso   1.000  H
  H76      1.0000 0.24390  0.75510  0.47150  Biso   1.000  H
  H77      1.0000 0.24390  0.74490  0.97150  Biso   1.000  H
  H78      1.0000 0.75610  0.25510  0.47150  Biso   1.000  H
  H79      1.0000 0.24390  0.75510  0.02850  Biso   1.000  H
  H80      1.0000 0.75610  0.24490  0.52850  Biso   1.000  H
