data_image0
_cell_length_a       13.382
_cell_length_b       8.527
_cell_length_c       9.622
_cell_angle_alpha    90
_cell_angle_beta     90
_cell_angle_gamma    90

_symmetry_space_group_name_H-M    "P 1"
_symmetry_int_tables_number       1

loop_
  _symmetry_equiv_pos_as_xyz
  'x, y, z'

loop_
  _atom_site_label
  _atom_site_occupancy
  _atom_site_fract_x
  _atom_site_fract_y
  _atom_site_fract_z
  _atom_site_thermal_displace_type
  _atom_site_B_iso_or_equiv
  _atom_site_type_symbol
  Mo1      1.0000 0.88083  0.13354  0.17883  Biso   1.000  Mo
  Mo2      1.0000 0.11917  0.86646  0.67883  Biso   1.000  Mo
  Mo3      1.0000 0.38083  0.86646  0.17883  Biso   1.000  Mo
  Mo4      1.0000 0.61917  0.13354  0.67883  Biso   1.000  Mo
  Cu1      1.0000 0.62779  0.99919  0.25410  Biso   1.000  Cu
  Cu2      1.0000 0.37221  0.00081  0.75410  Biso   1.000  Cu
  Cu3      1.0000 0.12779  0.00081  0.25410  Biso   1.000  Cu
  Cu4      1.0000 0.87221  0.99919  0.75410  Biso   1.000  Cu
  O1       1.0000 0.87670  0.33770  0.20370  Biso   1.000  O
  O2       1.0000 0.12330  0.66230  0.70370  Biso   1.000  O
  O3       1.0000 0.37670  0.66230  0.20370  Biso   1.000  O
  O4       1.0000 0.62330  0.33770  0.70370  Biso   1.000  O
  O5       1.0000 0.77140  0.04890  0.24800  Biso   1.000  O
  O6       1.0000 0.22860  0.95110  0.74800  Biso   1.000  O
  O7       1.0000 0.27140  0.95110  0.24800  Biso   1.000  O
  O8       1.0000 0.72860  0.04890  0.74800  Biso   1.000  O
  O9       1.0000 0.98430  0.05290  0.27010  Biso   1.000  O
  O10      1.0000 0.01570  0.94710  0.77010  Biso   1.000  O
  O11      1.0000 0.48430  0.94710  0.27010  Biso   1.000  O
  O12      1.0000 0.51570  0.05290  0.77010  Biso   1.000  O
  O13      1.0000 0.89020  0.09330  0.00260  Biso   1.000  O
  O14      1.0000 0.10980  0.90670  0.50260  Biso   1.000  O
  O15      1.0000 0.39020  0.90670  0.00260  Biso   1.000  O
  O16      1.0000 0.60980  0.09330  0.50260  Biso   1.000  O
  O17      1.0000 0.62840  0.89220  0.00340  Biso   1.000  O
  O18      1.0000 0.37160  0.10780  0.50340  Biso   1.000  O
  O19      1.0000 0.12840  0.10780  0.00340  Biso   1.000  O
  O20      1.0000 0.87160  0.89220  0.50340  Biso   1.000  O
  H1       1.0000 0.65290  0.93650  0.93200  Biso   1.000  H
  H2       1.0000 0.34710  0.06350  0.43200  Biso   1.000  H
  H3       1.0000 0.15290  0.06350  0.93200  Biso   1.000  H
  H4       1.0000 0.84710  0.93650  0.43200  Biso   1.000  H
  H5       1.0000 0.56510  0.89890  0.99920  Biso   1.000  H
  H6       1.0000 0.43490  0.10110  0.49920  Biso   1.000  H
  H7       1.0000 0.06510  0.10110  0.99920  Biso   1.000  H
  H8       1.0000 0.93490  0.89890  0.49920  Biso   1.000  H
  C1       1.0000 0.52570  0.30380  0.23900  Biso   1.000  C
  C2       1.0000 0.47430  0.69620  0.73900  Biso   1.000  C
  C3       1.0000 0.02570  0.69620  0.23900  Biso   1.000  C
  C4       1.0000 0.97430  0.30380  0.73900  Biso   1.000  C
  H9       1.0000 0.48630  0.27710  0.31500  Biso   1.000  H
  H10      1.0000 0.51370  0.72290  0.81500  Biso   1.000  H
  H11      1.0000 0.98630  0.72290  0.31500  Biso   1.000  H
  H12      1.0000 0.01370  0.27710  0.81500  Biso   1.000  H
  C5       1.0000 0.51970  0.43990  0.17340  Biso   1.000  C
  C6       1.0000 0.48030  0.56010  0.67340  Biso   1.000  C
  C7       1.0000 0.01970  0.56010  0.17340  Biso   1.000  C
  C8       1.0000 0.98030  0.43990  0.67340  Biso   1.000  C
  H13      1.0000 0.47740  0.52310  0.19460  Biso   1.000  H
  H14      1.0000 0.52260  0.47690  0.69460  Biso   1.000  H
  H15      1.0000 0.97740  0.47690  0.19460  Biso   1.000  H
  H16      1.0000 0.02260  0.52310  0.69460  Biso   1.000  H
  C9       1.0000 0.63290  0.29230  0.07530  Biso   1.000  C
  C10      1.0000 0.36710  0.70770  0.57530  Biso   1.000  C
  C11      1.0000 0.13290  0.70770  0.07530  Biso   1.000  C
  C12      1.0000 0.86710  0.29230  0.57530  Biso   1.000  C
  H17      1.0000 0.68250  0.25610  0.01570  Biso   1.000  H
  H18      1.0000 0.31750  0.74390  0.51570  Biso   1.000  H
  H19      1.0000 0.18250  0.74390  0.01570  Biso   1.000  H
  H20      1.0000 0.81750  0.25610  0.51570  Biso   1.000  H
  C13      1.0000 0.62570  0.69990  0.41850  Biso   1.000  C
  C14      1.0000 0.37430  0.30010  0.91850  Biso   1.000  C
  C15      1.0000 0.12570  0.30010  0.41850  Biso   1.000  C
  C16      1.0000 0.87430  0.69990  0.91850  Biso   1.000  C
  H21      1.0000 0.57670  0.73220  0.48070  Biso   1.000  H
  H22      1.0000 0.42330  0.26780  0.98070  Biso   1.000  H
  H23      1.0000 0.07670  0.26780  0.48070  Biso   1.000  H
  H24      1.0000 0.92330  0.73220  0.98070  Biso   1.000  H
  C17      1.0000 0.73870  0.55630  0.31580  Biso   1.000  C
  C18      1.0000 0.26130  0.44370  0.81580  Biso   1.000  C
  C19      1.0000 0.23870  0.44370  0.31580  Biso   1.000  C
  C20      1.0000 0.76130  0.55630  0.81580  Biso   1.000  C
  H25      1.0000 0.78200  0.47490  0.29320  Biso   1.000  H
  H26      1.0000 0.21800  0.52510  0.79320  Biso   1.000  H
  H27      1.0000 0.28200  0.52510  0.29320  Biso   1.000  H
  H28      1.0000 0.71800  0.47490  0.79320  Biso   1.000  H
  C21      1.0000 0.73150  0.69590  0.25150  Biso   1.000  C
  C22      1.0000 0.26850  0.30410  0.75150  Biso   1.000  C
  C23      1.0000 0.23150  0.30410  0.25150  Biso   1.000  C
  C24      1.0000 0.76850  0.69590  0.75150  Biso   1.000  C
  H29      1.0000 0.76910  0.72500  0.17430  Biso   1.000  H
  H30      1.0000 0.23090  0.27500  0.67430  Biso   1.000  H
  H31      1.0000 0.26910  0.27500  0.17430  Biso   1.000  H
  H32      1.0000 0.73090  0.72500  0.67430  Biso   1.000  H
  N1       1.0000 0.59320  0.21070  0.18510  Biso   1.000  N
  N2       1.0000 0.40680  0.78930  0.68510  Biso   1.000  N
  N3       1.0000 0.09320  0.78930  0.18510  Biso   1.000  N
  N4       1.0000 0.90680  0.21070  0.68510  Biso   1.000  N
  N5       1.0000 0.58830  0.43350  0.06810  Biso   1.000  N
  N6       1.0000 0.41170  0.56650  0.56810  Biso   1.000  N
  N7       1.0000 0.08830  0.56650  0.06810  Biso   1.000  N
  N8       1.0000 0.91170  0.43350  0.56810  Biso   1.000  N
  H33      1.0000 0.60060  0.50610  0.00850  Biso   1.000  H
  H34      1.0000 0.39940  0.49390  0.50850  Biso   1.000  H
  H35      1.0000 0.10060  0.49390  0.00850  Biso   1.000  H
  H36      1.0000 0.89940  0.50610  0.50850  Biso   1.000  H
  N9       1.0000 0.66360  0.78740  0.31250  Biso   1.000  N
  N10      1.0000 0.33640  0.21260  0.81250  Biso   1.000  N
  N11      1.0000 0.16360  0.21260  0.31250  Biso   1.000  N
  N12      1.0000 0.83640  0.78740  0.81250  Biso   1.000  N
  N13      1.0000 0.67140  0.55760  0.41840  Biso   1.000  N
  N14      1.0000 0.32860  0.44240  0.91840  Biso   1.000  N
  N15      1.0000 0.17140  0.44240  0.41840  Biso   1.000  N
  N16      1.0000 0.82860  0.55760  0.91840  Biso   1.000  N
  H37      1.0000 0.65920  0.48160  0.47460  Biso   1.000  H
  H38      1.0000 0.34080  0.51840  0.97460  Biso   1.000  H
  H39      1.0000 0.15920  0.51840  0.47460  Biso   1.000  H
  H40      1.0000 0.84080  0.48160  0.97460  Biso   1.000  H
