data_image0
_cell_length_a       5.5599
_cell_length_b       23.771
_cell_length_c       7.3044
_cell_angle_alpha    90
_cell_angle_beta     129.356
_cell_angle_gamma    90

_symmetry_space_group_name_H-M    "P 1"
_symmetry_int_tables_number       1

loop_
  _symmetry_equiv_pos_as_xyz
  'x, y, z'

loop_
  _atom_site_label
  _atom_site_occupancy
  _atom_site_fract_x
  _atom_site_fract_y
  _atom_site_fract_z
  _atom_site_thermal_displace_type
  _atom_site_B_iso_or_equiv
  _atom_site_type_symbol
  Mo1      1.0000 0.92999  0.08565  0.88749  Biso   1.000  Mo
  Mo2      1.0000 0.07001  0.58565  0.61251  Biso   1.000  Mo
  Mo3      1.0000 0.07001  0.91435  0.11251  Biso   1.000  Mo
  Mo4      1.0000 0.92999  0.41435  0.38749  Biso   1.000  Mo
  Cu1      1.0000 0.50000  0.00000  0.00000  Biso   1.000  Cu
  Cu2      1.0000 0.50000  0.50000  0.50000  Biso   1.000  Cu
  Cu3      1.0000 0.86554  0.94439  0.50046  Biso   1.000  Cu
  Cu4      1.0000 0.13446  0.44439  0.99954  Biso   1.000  Cu
  Cu5      1.0000 0.13446  0.05561  0.49954  Biso   1.000  Cu
  Cu6      1.0000 0.86554  0.55561  0.00046  Biso   1.000  Cu
  O1       1.0000 0.28330  0.98090  0.65840  Biso   1.000  O
  O2       1.0000 0.71670  0.48090  0.84160  Biso   1.000  O
  O3       1.0000 0.71670  0.01910  0.34160  Biso   1.000  O
  O4       1.0000 0.28330  0.51910  0.15840  Biso   1.000  O
  H1       1.0000 0.41190  0.96140  0.63400  Biso   1.000  H
  H2       1.0000 0.58810  0.46140  0.86600  Biso   1.000  H
  H3       1.0000 0.58810  0.03860  0.36600  Biso   1.000  H
  H4       1.0000 0.41190  0.53860  0.13400  Biso   1.000  H
  O5       1.0000 0.23380  0.06540  0.87820  Biso   1.000  O
  O6       1.0000 0.76620  0.56540  0.62180  Biso   1.000  O
  O7       1.0000 0.76620  0.93460  0.12180  Biso   1.000  O
  O8       1.0000 0.23380  0.43460  0.37820  Biso   1.000  O
  O9       1.0000 0.03330  0.95054  0.88810  Biso   1.000  O
  O10      1.0000 0.96670  0.45054  0.61190  Biso   1.000  O
  O11      1.0000 0.96670  0.04946  0.11190  Biso   1.000  O
  O12      1.0000 0.03330  0.54946  0.38810  Biso   1.000  O
  O13      1.0000 0.55460  0.07192  0.61030  Biso   1.000  O
  O14      1.0000 0.44540  0.57192  0.88970  Biso   1.000  O
  O15      1.0000 0.44540  0.92808  0.38970  Biso   1.000  O
  O16      1.0000 0.55460  0.42808  0.11030  Biso   1.000  O
  O17      1.0000 0.96250  0.15678  0.94370  Biso   1.000  O
  O18      1.0000 0.03750  0.65678  0.55630  Biso   1.000  O
  O19      1.0000 0.03750  0.84322  0.05630  Biso   1.000  O
  O20      1.0000 0.96250  0.34322  0.44370  Biso   1.000  O
  N1       1.0000 0.99940  0.86522  0.56390  Biso   1.000  N
  N2       1.0000 0.00060  0.36522  0.93610  Biso   1.000  N
  N3       1.0000 0.00060  0.13478  0.43610  Biso   1.000  N
  N4       1.0000 0.99940  0.63478  0.06390  Biso   1.000  N
  N5       1.0000 0.98560  0.77314  0.54320  Biso   1.000  N
  N6       1.0000 0.01440  0.27314  0.95680  Biso   1.000  N
  N7       1.0000 0.01440  0.22686  0.45680  Biso   1.000  N
  N8       1.0000 0.98560  0.72686  0.04320  Biso   1.000  N
  C1       1.0000 0.27600  0.78860  0.65600  Biso   1.000  C
  C2       1.0000 0.72400  0.28860  0.84400  Biso   1.000  C
  C3       1.0000 0.72400  0.21140  0.34400  Biso   1.000  C
  C4       1.0000 0.27600  0.71140  0.15600  Biso   1.000  C
  C5       1.0000 0.25700  0.78490  0.73620  Biso   1.000  C
  C6       1.0000 0.74300  0.28490  0.76380  Biso   1.000  C
  C7       1.0000 0.74300  0.21510  0.26380  Biso   1.000  C
  C8       1.0000 0.25700  0.71510  0.23620  Biso   1.000  C
  C9       1.0000 0.27990  0.84510  0.65070  Biso   1.000  C
  C10      1.0000 0.72010  0.34510  0.84930  Biso   1.000  C
  C11      1.0000 0.72010  0.15490  0.34930  Biso   1.000  C
  C12      1.0000 0.27990  0.65490  0.15070  Biso   1.000  C
  C13      1.0000 0.26640  0.84150  0.76300  Biso   1.000  C
  C14      1.0000 0.73360  0.34150  0.73700  Biso   1.000  C
  C15      1.0000 0.73360  0.15850  0.23700  Biso   1.000  C
  C16      1.0000 0.26640  0.65850  0.26300  Biso   1.000  C
  C17      1.0000 0.83000  0.82230  0.52700  Biso   1.000  C
  C18      1.0000 0.17000  0.32230  0.97300  Biso   1.000  C
  C19      1.0000 0.17000  0.17770  0.47300  Biso   1.000  C
  C20      1.0000 0.83000  0.67770  0.02700  Biso   1.000  C
  C21      1.0000 0.82880  0.82160  0.41680  Biso   1.000  C
  C22      1.0000 0.17120  0.32160  0.08320  Biso   1.000  C
  C23      1.0000 0.17120  0.17840  0.58320  Biso   1.000  C
  C24      1.0000 0.82880  0.67840  0.91680  Biso   1.000  C
