data_image0
_cell_length_a       11.17
_cell_length_b       7.8244
_cell_length_c       22.631
_cell_angle_alpha    90
_cell_angle_beta     115.79
_cell_angle_gamma    90

_symmetry_space_group_name_H-M    "P 1"
_symmetry_int_tables_number       1

loop_
  _symmetry_equiv_pos_as_xyz
  'x, y, z'

loop_
  _atom_site_label
  _atom_site_occupancy
  _atom_site_fract_x
  _atom_site_fract_y
  _atom_site_fract_z
  _atom_site_thermal_displace_type
  _atom_site_B_iso_or_equiv
  _atom_site_type_symbol
  Mo1      1.0000 0.47108  0.37522  0.56072  Biso   1.000  Mo
  Mo2      1.0000 0.52891  0.87522  0.93928  Biso   1.000  Mo
  Mo3      1.0000 0.52892  0.62478  0.43928  Biso   1.000  Mo
  Mo4      1.0000 0.47108  0.12478  0.06072  Biso   1.000  Mo
  Mo5      1.0000 0.23832  0.90219  0.45478  Biso   1.000  Mo
  Mo6      1.0000 0.76168  0.40219  0.04522  Biso   1.000  Mo
  Mo7      1.0000 0.76168  0.09781  0.54522  Biso   1.000  Mo
  Mo8      1.0000 0.23832  0.59781  0.95478  Biso   1.000  Mo
  Cu1      1.0000 0.46109  0.13625  0.43627  Biso   1.000  Cu
  Cu2      1.0000 0.53891  0.63625  0.06373  Biso   1.000  Cu
  Cu3      1.0000 0.53891  0.86375  0.56373  Biso   1.000  Cu
  Cu4      1.0000 0.46109  0.36375  0.93627  Biso   1.000  Cu
  Cu5      1.0000 0.77642  0.56095  0.58503  Biso   1.000  Cu
  Cu6      1.0000 0.22358  0.06095  0.91497  Biso   1.000  Cu
  Cu7      1.0000 0.22358  0.43905  0.41497  Biso   1.000  Cu
  Cu8      1.0000 0.77642  0.93905  0.08502  Biso   1.000  Cu
  O1       1.0000 0.51175  0.17990  0.53187  Biso   1.000  O
  O2       1.0000 0.48825  0.67990  0.96813  Biso   1.000  O
  O3       1.0000 0.48825  0.82010  0.46813  Biso   1.000  O
  O4       1.0000 0.51175  0.32010  0.03187  Biso   1.000  O
  O5       1.0000 0.58204  0.54980  0.56738  Biso   1.000  O
  O6       1.0000 0.41796  0.04980  0.93262  Biso   1.000  O
  O7       1.0000 0.41796  0.45020  0.43262  Biso   1.000  O
  O8       1.0000 0.58204  0.95020  0.06738  Biso   1.000  O
  O9       1.0000 0.30218  0.43110  0.51300  Biso   1.000  O
  O10      1.0000 0.69782  0.93110  0.98700  Biso   1.000  O
  O11      1.0000 0.69782  0.56890  0.48700  Biso   1.000  O
  O12      1.0000 0.30218  0.06890  0.01300  Biso   1.000  O
  O13      1.0000 0.48600  0.33880  0.63861  Biso   1.000  O
  O14      1.0000 0.51400  0.83880  0.86139  Biso   1.000  O
  O15      1.0000 0.51400  0.66120  0.36139  Biso   1.000  O
  O16      1.0000 0.48600  0.16120  0.13861  Biso   1.000  O
  O17      1.0000 0.27906  0.09350  0.42335  Biso   1.000  O
  O18      1.0000 0.72094  0.59350  0.07665  Biso   1.000  O
  O19      1.0000 0.72094  0.90650  0.57665  Biso   1.000  O
  O20      1.0000 0.27906  0.40650  0.92335  Biso   1.000  O
  O21      1.0000 0.08724  0.93830  0.45635  Biso   1.000  O
  O22      1.0000 0.91276  0.43830  0.04365  Biso   1.000  O
  O23      1.0000 0.91276  0.06170  0.54365  Biso   1.000  O
  O24      1.0000 0.08724  0.56170  0.95635  Biso   1.000  O
  O25      1.0000 0.64978  0.14460  0.46066  Biso   1.000  O
  O26      1.0000 0.35022  0.64460  0.03934  Biso   1.000  O
  O27      1.0000 0.35022  0.85540  0.53934  Biso   1.000  O
  O28      1.0000 0.64978  0.35540  0.96066  Biso   1.000  O
  O29      1.0000 0.79053  0.27100  0.59962  Biso   1.000  O
  O30      1.0000 0.20947  0.77100  0.90038  Biso   1.000  O
  O31      1.0000 0.20947  0.72900  0.40038  Biso   1.000  O
  O32      1.0000 0.79053  0.22900  0.09962  Biso   1.000  O
  N1       1.0000 0.84160  0.59900  0.68027  Biso   1.000  N
  N2       1.0000 0.15840  0.09900  0.81973  Biso   1.000  N
  N3       1.0000 0.15840  0.40100  0.31973  Biso   1.000  N
  N4       1.0000 0.84160  0.90100  0.18027  Biso   1.000  N
  N5       1.0000 0.96380  0.68680  0.78089  Biso   1.000  N
  N6       1.0000 0.03620  0.18680  0.71911  Biso   1.000  N
  N7       1.0000 0.03620  0.31320  0.21911  Biso   1.000  N
  N8       1.0000 0.96380  0.81320  0.28089  Biso   1.000  N
  H1       1.0000 0.02700  0.73450  0.81410  Biso   1.000  H
  H2       1.0000 0.97300  0.23450  0.68590  Biso   1.000  H
  H3       1.0000 0.97300  0.26550  0.18590  Biso   1.000  H
  H4       1.0000 0.02700  0.76550  0.31410  Biso   1.000  H
  N9       1.0000 0.95770  0.56850  0.58889  Biso   1.000  N
  N10      1.0000 0.04230  0.06850  0.91111  Biso   1.000  N
  N11      1.0000 0.04230  0.43150  0.41111  Biso   1.000  N
  N12      1.0000 0.95770  0.93150  0.08889  Biso   1.000  N
  N13      1.0000 0.13110  0.48790  0.57455  Biso   1.000  N
  N14      1.0000 0.86890  0.98790  0.92545  Biso   1.000  N
  N15      1.0000 0.86890  0.51210  0.42545  Biso   1.000  N
  N16      1.0000 0.13110  0.01210  0.07455  Biso   1.000  N
  H5       1.0000 0.18740  0.42300  0.56890  Biso   1.000  H
  H6       1.0000 0.81260  0.92300  0.93110  Biso   1.000  H
  H7       1.0000 0.81260  0.57700  0.43110  Biso   1.000  H
  H8       1.0000 0.18740  0.07700  0.06890  Biso   1.000  H
  N17      1.0000 0.41940  0.09950  0.34379  Biso   1.000  N
  N18      1.0000 0.58060  0.59950  0.15621  Biso   1.000  N
  N19      1.0000 0.58060  0.90050  0.65621  Biso   1.000  N
  N20      1.0000 0.41940  0.40050  0.84379  Biso   1.000  N
  N21      1.0000 0.42300  0.11180  0.24831  Biso   1.000  N
  N22      1.0000 0.57700  0.61180  0.25169  Biso   1.000  N
  N23      1.0000 0.57700  0.88820  0.75169  Biso   1.000  N
  N24      1.0000 0.42300  0.38820  0.74831  Biso   1.000  N
  H9       1.0000 0.44720  0.13830  0.21820  Biso   1.000  H
  H10      1.0000 0.55280  0.63830  0.28180  Biso   1.000  H
  H11      1.0000 0.55280  0.86170  0.78180  Biso   1.000  H
  H12      1.0000 0.44720  0.36170  0.71820  Biso   1.000  H
  C1       1.0000 0.95050  0.68430  0.71959  Biso   1.000  C
  C2       1.0000 0.04950  0.18430  0.78041  Biso   1.000  C
  C3       1.0000 0.04950  0.31570  0.28041  Biso   1.000  C
  C4       1.0000 0.95050  0.81570  0.21959  Biso   1.000  C
  H13      1.0000 0.00940  0.73540  0.70600  Biso   1.000  H
  H14      1.0000 0.99060  0.23540  0.79400  Biso   1.000  H
  H15      1.0000 0.99060  0.26460  0.29400  Biso   1.000  H
  H16      1.0000 0.00940  0.76460  0.20600  Biso   1.000  H
  C5       1.0000 0.85760  0.59880  0.78131  Biso   1.000  C
  C6       1.0000 0.14240  0.09880  0.71869  Biso   1.000  C
  C7       1.0000 0.14240  0.40120  0.21869  Biso   1.000  C
  C8       1.0000 0.85760  0.90120  0.28131  Biso   1.000  C
  H17      1.0000 0.84010  0.57970  0.81740  Biso   1.000  H
  H18      1.0000 0.15990  0.07970  0.68260  Biso   1.000  H
  H19      1.0000 0.15990  0.42030  0.18260  Biso   1.000  H
  H20      1.0000 0.84010  0.92030  0.31740  Biso   1.000  H
  C9       1.0000 0.78400  0.54560  0.71941  Biso   1.000  C
  C10      1.0000 0.21600  0.04560  0.78059  Biso   1.000  C
  C11      1.0000 0.21600  0.45440  0.28059  Biso   1.000  C
  C12      1.0000 0.78400  0.95440  0.21941  Biso   1.000  C
  H21      1.0000 0.70600  0.48230  0.70540  Biso   1.000  H
  H22      1.0000 0.29400  0.98230  0.79460  Biso   1.000  H
  H23      1.0000 0.29400  0.51770  0.29460  Biso   1.000  H
  H24      1.0000 0.70600  0.01770  0.20540  Biso   1.000  H
  C13      1.0000 0.02250  0.43530  0.58027  Biso   1.000  C
  C14      1.0000 0.97750  0.93530  0.91973  Biso   1.000  C
  C15      1.0000 0.97750  0.56470  0.41973  Biso   1.000  C
  C16      1.0000 0.02250  0.06470  0.08027  Biso   1.000  C
  H25      1.0000 0.99620  0.32190  0.57850  Biso   1.000  H
  H26      1.0000 0.00380  0.82190  0.92150  Biso   1.000  H
  H27      1.0000 0.00380  0.67810  0.42150  Biso   1.000  H
  H28      1.0000 0.99620  0.17810  0.07850  Biso   1.000  H
  C17      1.0000 0.13720  0.66070  0.57912  Biso   1.000  C
  C18      1.0000 0.86280  0.16070  0.92088  Biso   1.000  C
  C19      1.0000 0.86280  0.33930  0.42088  Biso   1.000  C
  C20      1.0000 0.13720  0.83930  0.07912  Biso   1.000  C
  H29      1.0000 0.20180  0.73110  0.57650  Biso   1.000  H
  H30      1.0000 0.79820  0.23110  0.92350  Biso   1.000  H
  H31      1.0000 0.79820  0.26890  0.42350  Biso   1.000  H
  H32      1.0000 0.20180  0.76890  0.07650  Biso   1.000  H
  C21      1.0000 0.03000  0.71030  0.58823  Biso   1.000  C
  C22      1.0000 0.97000  0.21030  0.91177  Biso   1.000  C
  C23      1.0000 0.97000  0.28970  0.41177  Biso   1.000  C
  C24      1.0000 0.03000  0.78970  0.08823  Biso   1.000  C
  H33      1.0000 0.00870  0.82260  0.59320  Biso   1.000  H
  H34      1.0000 0.99130  0.32260  0.90680  Biso   1.000  H
  H35      1.0000 0.99130  0.17740  0.40680  Biso   1.000  H
  H36      1.0000 0.00870  0.67740  0.09320  Biso   1.000  H
  C25      1.0000 0.48170  0.16280  0.31074  Biso   1.000  C
  C26      1.0000 0.51830  0.66280  0.18926  Biso   1.000  C
  C27      1.0000 0.51830  0.83720  0.68926  Biso   1.000  C
  C28      1.0000 0.48170  0.33720  0.81074  Biso   1.000  C
  H37      1.0000 0.55610  0.23320  0.32850  Biso   1.000  H
  H38      1.0000 0.44390  0.73320  0.17150  Biso   1.000  H
  H39      1.0000 0.44390  0.76680  0.67150  Biso   1.000  H
  H40      1.0000 0.55610  0.26680  0.82850  Biso   1.000  H
  C29      1.0000 0.31830  0.01050  0.24070  Biso   1.000  C
  C30      1.0000 0.68170  0.51050  0.25930  Biso   1.000  C
  C31      1.0000 0.68170  0.98950  0.75930  Biso   1.000  C
  C32      1.0000 0.31830  0.48950  0.74070  Biso   1.000  C
  H41      1.0000 0.25980  0.95660  0.20230  Biso   1.000  H
  H42      1.0000 0.74020  0.45660  0.29770  Biso   1.000  H
  H43      1.0000 0.74020  0.04340  0.79770  Biso   1.000  H
  H44      1.0000 0.25980  0.54340  0.70230  Biso   1.000  H
  C33      1.0000 0.31620  0.00370  0.29980  Biso   1.000  C
  C34      1.0000 0.68380  0.50370  0.20020  Biso   1.000  C
  C35      1.0000 0.68380  0.99630  0.70020  Biso   1.000  C
  C36      1.0000 0.31620  0.49630  0.79980  Biso   1.000  C
  H45      1.0000 0.25480  0.94370  0.30920  Biso   1.000  H
  H46      1.0000 0.74520  0.44370  0.19080  Biso   1.000  H
  H47      1.0000 0.74520  0.05630  0.69080  Biso   1.000  H
  H48      1.0000 0.25480  0.55630  0.80920  Biso   1.000  H
  O33      1.0000 0.21040  0.10820  0.59370  Biso   1.000  O
  O34      1.0000 0.78960  0.60820  0.90630  Biso   1.000  O
  O35      1.0000 0.78960  0.89180  0.40630  Biso   1.000  O
  O36      1.0000 0.21040  0.39180  0.09370  Biso   1.000  O
  H49      1.0000 0.12720  0.08980  0.57820  Biso   1.000  H
  H50      1.0000 0.87280  0.58980  0.92180  Biso   1.000  H
  H51      1.0000 0.87280  0.91020  0.42180  Biso   1.000  H
  H52      1.0000 0.12720  0.41020  0.07820  Biso   1.000  H
  H53      1.0000 0.24390  0.03550  0.57730  Biso   1.000  H
  H54      1.0000 0.75610  0.53550  0.92270  Biso   1.000  H
  H55      1.0000 0.75610  0.96450  0.42270  Biso   1.000  H
  H56      1.0000 0.24390  0.46450  0.07730  Biso   1.000  H
