data_image0
_cell_length_a       12.721
_cell_length_b       13.578
_cell_length_c       9.624
_cell_angle_alpha    90
_cell_angle_beta     99.761
_cell_angle_gamma    90

_symmetry_space_group_name_H-M    "P 1"
_symmetry_int_tables_number       1

loop_
  _symmetry_equiv_pos_as_xyz
  'x, y, z'

loop_
  _atom_site_label
  _atom_site_occupancy
  _atom_site_fract_x
  _atom_site_fract_y
  _atom_site_fract_z
  _atom_site_thermal_displace_type
  _atom_site_B_iso_or_equiv
  _atom_site_type_symbol
  Cu1      1.0000 0.00000  0.39566  0.75000  Biso   1.000  Cu
  Cu2      1.0000 0.50000  0.89566  0.75000  Biso   1.000  Cu
  Cu3      1.0000 0.00000  0.60434  0.25000  Biso   1.000  Cu
  Cu4      1.0000 0.50000  0.10434  0.25000  Biso   1.000  Cu
  C1       1.0000 0.95164  0.47143  0.45754  Biso   1.000  C
  C2       1.0000 0.45164  0.97143  0.45754  Biso   1.000  C
  C3       1.0000 0.04836  0.47143  0.04246  Biso   1.000  C
  C4       1.0000 0.54836  0.97143  0.04246  Biso   1.000  C
  C5       1.0000 0.04836  0.52857  0.54246  Biso   1.000  C
  C6       1.0000 0.54836  0.02857  0.54246  Biso   1.000  C
  C7       1.0000 0.95164  0.52857  0.95754  Biso   1.000  C
  C8       1.0000 0.45164  0.02857  0.95754  Biso   1.000  C
  C9       1.0000 0.90173  0.24220  0.91360  Biso   1.000  C
  C10      1.0000 0.40173  0.74220  0.91360  Biso   1.000  C
  C11      1.0000 0.09827  0.24220  0.58640  Biso   1.000  C
  C12      1.0000 0.59827  0.74220  0.58640  Biso   1.000  C
  C13      1.0000 0.09827  0.75780  0.08640  Biso   1.000  C
  C14      1.0000 0.59827  0.25780  0.08640  Biso   1.000  C
  C15      1.0000 0.90173  0.75780  0.41360  Biso   1.000  C
  C16      1.0000 0.40173  0.25780  0.41360  Biso   1.000  C
  H1       1.0000 0.95140  0.25280  0.99500  Biso   1.000  H
  H2       1.0000 0.45140  0.75280  0.99500  Biso   1.000  H
  H3       1.0000 0.04860  0.25280  0.50500  Biso   1.000  H
  H4       1.0000 0.54860  0.75280  0.50500  Biso   1.000  H
  H5       1.0000 0.04860  0.74720  0.00500  Biso   1.000  H
  H6       1.0000 0.54860  0.24720  0.00500  Biso   1.000  H
  H7       1.0000 0.95140  0.74720  0.49500  Biso   1.000  H
  H8       1.0000 0.45140  0.24720  0.49500  Biso   1.000  H
  C17      1.0000 0.81408  0.25382  0.70340  Biso   1.000  C
  C18      1.0000 0.31408  0.75382  0.70340  Biso   1.000  C
  C19      1.0000 0.18592  0.25382  0.79660  Biso   1.000  C
  C20      1.0000 0.68592  0.75382  0.79660  Biso   1.000  C
  C21      1.0000 0.18592  0.74618  0.29660  Biso   1.000  C
  C22      1.0000 0.68592  0.24618  0.29660  Biso   1.000  C
  C23      1.0000 0.81408  0.74618  0.20340  Biso   1.000  C
  C24      1.0000 0.31408  0.24618  0.20340  Biso   1.000  C
  H9       1.0000 0.79160  0.27490  0.61120  Biso   1.000  H
  H10      1.0000 0.29160  0.77490  0.61120  Biso   1.000  H
  H11      1.0000 0.20840  0.27490  0.88880  Biso   1.000  H
  H12      1.0000 0.70840  0.77490  0.88880  Biso   1.000  H
  H13      1.0000 0.20840  0.72510  0.38880  Biso   1.000  H
  H14      1.0000 0.70840  0.22510  0.38880  Biso   1.000  H
  H15      1.0000 0.79160  0.72510  0.11120  Biso   1.000  H
  H16      1.0000 0.29160  0.22510  0.11120  Biso   1.000  H
  C25      1.0000 0.76927  0.17994  0.76790  Biso   1.000  C
  C26      1.0000 0.26927  0.67994  0.76790  Biso   1.000  C
  C27      1.0000 0.23073  0.17994  0.73210  Biso   1.000  C
  C28      1.0000 0.73073  0.67994  0.73210  Biso   1.000  C
  C29      1.0000 0.23073  0.82006  0.23210  Biso   1.000  C
  C30      1.0000 0.73073  0.32006  0.23210  Biso   1.000  C
  C31      1.0000 0.76927  0.82006  0.26790  Biso   1.000  C
  C32      1.0000 0.26927  0.32006  0.26790  Biso   1.000  C
  H17      1.0000 0.71170  0.14110  0.72840  Biso   1.000  H
  H18      1.0000 0.21170  0.64110  0.72840  Biso   1.000  H
  H19      1.0000 0.28830  0.14110  0.77160  Biso   1.000  H
  H20      1.0000 0.78830  0.64110  0.77160  Biso   1.000  H
  H21      1.0000 0.28830  0.85890  0.27160  Biso   1.000  H
  H22      1.0000 0.78830  0.35890  0.27160  Biso   1.000  H
  H23      1.0000 0.71170  0.85890  0.22840  Biso   1.000  H
  H24      1.0000 0.21170  0.35890  0.22840  Biso   1.000  H
  C33      1.0000 0.81120  0.09903  0.00810  Biso   1.000  C
  C34      1.0000 0.31120  0.59903  0.00810  Biso   1.000  C
  C35      1.0000 0.18880  0.09903  0.49190  Biso   1.000  C
  C36      1.0000 0.68880  0.59903  0.49190  Biso   1.000  C
  C37      1.0000 0.18880  0.90097  0.99190  Biso   1.000  C
  C38      1.0000 0.68880  0.40097  0.99190  Biso   1.000  C
  C39      1.0000 0.81120  0.90097  0.50810  Biso   1.000  C
  C40      1.0000 0.31120  0.40097  0.50810  Biso   1.000  C
  H25      1.0000 0.73720  0.09780  0.02130  Biso   1.000  H
  H26      1.0000 0.23720  0.59780  0.02130  Biso   1.000  H
  H27      1.0000 0.26280  0.09780  0.47870  Biso   1.000  H
  H28      1.0000 0.76280  0.59780  0.47870  Biso   1.000  H
  H29      1.0000 0.26280  0.90220  0.97870  Biso   1.000  H
  H30      1.0000 0.76280  0.40220  0.97870  Biso   1.000  H
  H31      1.0000 0.73720  0.90220  0.52130  Biso   1.000  H
  H32      1.0000 0.23720  0.40220  0.52130  Biso   1.000  H
  H33      1.0000 0.85460  0.11700  0.09730  Biso   1.000  H
  H34      1.0000 0.35460  0.61700  0.09730  Biso   1.000  H
  H35      1.0000 0.14540  0.11700  0.40270  Biso   1.000  H
  H36      1.0000 0.64540  0.61700  0.40270  Biso   1.000  H
  H37      1.0000 0.14540  0.88300  0.90270  Biso   1.000  H
  H38      1.0000 0.64540  0.38300  0.90270  Biso   1.000  H
  H39      1.0000 0.85460  0.88300  0.59730  Biso   1.000  H
  H40      1.0000 0.35460  0.38300  0.59730  Biso   1.000  H
  C41      1.0000 0.84300  0.99790  0.96530  Biso   1.000  C
  C42      1.0000 0.34300  0.49790  0.96530  Biso   1.000  C
  C43      1.0000 0.15700  0.99790  0.53470  Biso   1.000  C
  C44      1.0000 0.65700  0.49790  0.53470  Biso   1.000  C
  C45      1.0000 0.15700  0.00210  0.03470  Biso   1.000  C
  C46      1.0000 0.65700  0.50210  0.03470  Biso   1.000  C
  C47      1.0000 0.84300  0.00210  0.46530  Biso   1.000  C
  C48      1.0000 0.34300  0.50210  0.46530  Biso   1.000  C
  H41      1.0000 0.79450  0.97810  0.88110  Biso   1.000  H
  H42      1.0000 0.29450  0.47810  0.88110  Biso   1.000  H
  H43      1.0000 0.20550  0.97810  0.61890  Biso   1.000  H
  H44      1.0000 0.70550  0.47810  0.61890  Biso   1.000  H
  H45      1.0000 0.20550  0.02190  0.11890  Biso   1.000  H
  H46      1.0000 0.70550  0.52190  0.11890  Biso   1.000  H
  H47      1.0000 0.79450  0.02190  0.38110  Biso   1.000  H
  H48      1.0000 0.29450  0.52190  0.38110  Biso   1.000  H
  H49      1.0000 0.83450  0.95170  0.03950  Biso   1.000  H
  H50      1.0000 0.33450  0.45170  0.03950  Biso   1.000  H
  H51      1.0000 0.16550  0.95170  0.46050  Biso   1.000  H
  H52      1.0000 0.66550  0.45170  0.46050  Biso   1.000  H
  H53      1.0000 0.16550  0.04830  0.96050  Biso   1.000  H
  H54      1.0000 0.66550  0.54830  0.96050  Biso   1.000  H
  H55      1.0000 0.83450  0.04830  0.53950  Biso   1.000  H
  H56      1.0000 0.33450  0.54830  0.53950  Biso   1.000  H
  C49      1.0000 0.95720  0.99065  0.93650  Biso   1.000  C
  C50      1.0000 0.45720  0.49065  0.93650  Biso   1.000  C
  C51      1.0000 0.04280  0.99065  0.56350  Biso   1.000  C
  C52      1.0000 0.54280  0.49065  0.56350  Biso   1.000  C
  C53      1.0000 0.04280  0.00935  0.06350  Biso   1.000  C
  C54      1.0000 0.54280  0.50935  0.06350  Biso   1.000  C
  C55      1.0000 0.95720  0.00935  0.43650  Biso   1.000  C
  C56      1.0000 0.45720  0.50935  0.43650  Biso   1.000  C
  H57      1.0000 0.96770  0.92540  0.90030  Biso   1.000  H
  H58      1.0000 0.46770  0.42540  0.90030  Biso   1.000  H
  H59      1.0000 0.03230  0.92540  0.59970  Biso   1.000  H
  H60      1.0000 0.53230  0.42540  0.59970  Biso   1.000  H
  H61      1.0000 0.03230  0.07460  0.09970  Biso   1.000  H
  H62      1.0000 0.53230  0.57460  0.09970  Biso   1.000  H
  H63      1.0000 0.96770  0.07460  0.40030  Biso   1.000  H
  H64      1.0000 0.46770  0.57460  0.40030  Biso   1.000  H
  H65      1.0000 0.96590  0.03770  0.86350  Biso   1.000  H
  H66      1.0000 0.46590  0.53770  0.86350  Biso   1.000  H
  H67      1.0000 0.03410  0.03770  0.63650  Biso   1.000  H
  H68      1.0000 0.53410  0.53770  0.63650  Biso   1.000  H
  H69      1.0000 0.03410  0.96230  0.13650  Biso   1.000  H
  H70      1.0000 0.53410  0.46230  0.13650  Biso   1.000  H
  H71      1.0000 0.96590  0.96230  0.36350  Biso   1.000  H
  H72      1.0000 0.46590  0.46230  0.36350  Biso   1.000  H
  N1       1.0000 0.82439  0.17345  0.90090  Biso   1.000  N
  N2       1.0000 0.32439  0.67345  0.90090  Biso   1.000  N
  N3       1.0000 0.17561  0.17345  0.59910  Biso   1.000  N
  N4       1.0000 0.67561  0.67345  0.59910  Biso   1.000  N
  N5       1.0000 0.17561  0.82655  0.09910  Biso   1.000  N
  N6       1.0000 0.67561  0.32655  0.09910  Biso   1.000  N
  N7       1.0000 0.82439  0.82655  0.40090  Biso   1.000  N
  N8       1.0000 0.32439  0.32655  0.40090  Biso   1.000  N
  N9       1.0000 0.89777  0.29241  0.79575  Biso   1.000  N
  N10      1.0000 0.39777  0.79241  0.79575  Biso   1.000  N
  N11      1.0000 0.10223  0.29241  0.70425  Biso   1.000  N
  N12      1.0000 0.60223  0.79241  0.70425  Biso   1.000  N
  N13      1.0000 0.10223  0.70759  0.20425  Biso   1.000  N
  N14      1.0000 0.60223  0.20759  0.20425  Biso   1.000  N
  N15      1.0000 0.89777  0.70759  0.29575  Biso   1.000  N
  N16      1.0000 0.39777  0.20759  0.29575  Biso   1.000  N
  O1       1.0000 0.91187  0.40436  0.51852  Biso   1.000  O
  O2       1.0000 0.41187  0.90436  0.51852  Biso   1.000  O
  O3       1.0000 0.08813  0.40436  0.98148  Biso   1.000  O
  O4       1.0000 0.58813  0.90436  0.98148  Biso   1.000  O
  O5       1.0000 0.08813  0.59564  0.48148  Biso   1.000  O
  O6       1.0000 0.58813  0.09564  0.48148  Biso   1.000  O
  O7       1.0000 0.91187  0.59564  0.01852  Biso   1.000  O
  O8       1.0000 0.41187  0.09564  0.01852  Biso   1.000  O
  O9       1.0000 0.92049  0.49738  0.33187  Biso   1.000  O
  O10      1.0000 0.42049  0.99738  0.33187  Biso   1.000  O
  O11      1.0000 0.07951  0.49738  0.16813  Biso   1.000  O
  O12      1.0000 0.57951  0.99738  0.16813  Biso   1.000  O
  O13      1.0000 0.07951  0.50262  0.66813  Biso   1.000  O
  O14      1.0000 0.57951  0.00262  0.66813  Biso   1.000  O
  O15      1.0000 0.92049  0.50262  0.83187  Biso   1.000  O
  O16      1.0000 0.42049  0.00262  0.83187  Biso   1.000  O
  O17      1.0000 0.00000  0.28210  0.25000  Biso   1.000  O
  O18      1.0000 0.50000  0.78210  0.25000  Biso   1.000  O
  O19      1.0000 0.00000  0.71790  0.75000  Biso   1.000  O
  O20      1.0000 0.50000  0.21790  0.75000  Biso   1.000  O
