data_image0
_cell_length_a       11.808
_cell_length_b       9.828
_cell_length_c       21.109
_cell_angle_alpha    90
_cell_angle_beta     112.859
_cell_angle_gamma    90

_symmetry_space_group_name_H-M    "P 1"
_symmetry_int_tables_number       1

loop_
  _symmetry_equiv_pos_as_xyz
  'x, y, z'

loop_
  _atom_site_label
  _atom_site_occupancy
  _atom_site_fract_x
  _atom_site_fract_y
  _atom_site_fract_z
  _atom_site_thermal_displace_type
  _atom_site_B_iso_or_equiv
  _atom_site_type_symbol
  N1       1.0000 0.66650  0.22570  0.16490  Biso   1.000  N
  N2       1.0000 0.33350  0.72570  0.33510  Biso   1.000  N
  N3       1.0000 0.33350  0.77430  0.83510  Biso   1.000  N
  N4       1.0000 0.66650  0.27430  0.66490  Biso   1.000  N
  C1       1.0000 0.77920  0.21240  0.16590  Biso   1.000  C
  C2       1.0000 0.22080  0.71240  0.33410  Biso   1.000  C
  C3       1.0000 0.22080  0.78760  0.83410  Biso   1.000  C
  C4       1.0000 0.77920  0.28760  0.66590  Biso   1.000  C
  C5       1.0000 0.86640  0.12650  0.21120  Biso   1.000  C
  C6       1.0000 0.13360  0.62650  0.28880  Biso   1.000  C
  C7       1.0000 0.13360  0.87350  0.78880  Biso   1.000  C
  C8       1.0000 0.86640  0.37350  0.71120  Biso   1.000  C
  C9       1.0000 0.83370  0.05700  0.25880  Biso   1.000  C
  C10      1.0000 0.16630  0.55700  0.24120  Biso   1.000  C
  C11      1.0000 0.16630  0.94300  0.74120  Biso   1.000  C
  C12      1.0000 0.83370  0.44300  0.75880  Biso   1.000  C
  C13      1.0000 0.63740  0.15330  0.20890  Biso   1.000  C
  C14      1.0000 0.36260  0.65330  0.29110  Biso   1.000  C
  C15      1.0000 0.36260  0.84670  0.79110  Biso   1.000  C
  C16      1.0000 0.63740  0.34670  0.70890  Biso   1.000  C
  C17      1.0000 0.71650  0.06640  0.25790  Biso   1.000  C
  C18      1.0000 0.28350  0.56640  0.24210  Biso   1.000  C
  C19      1.0000 0.28350  0.93360  0.74210  Biso   1.000  C
  C20      1.0000 0.71650  0.43360  0.75790  Biso   1.000  C
  Cu1      1.0000 0.46826  0.87901  0.41320  Biso   1.000  Cu
  Cu2      1.0000 0.53174  0.37901  0.08680  Biso   1.000  Cu
  Cu3      1.0000 0.53174  0.12099  0.58680  Biso   1.000  Cu
  Cu4      1.0000 0.46826  0.62099  0.91320  Biso   1.000  Cu
  C21      1.0000 0.61250  0.64730  0.50410  Biso   1.000  C
  C22      1.0000 0.38750  0.14730  0.99590  Biso   1.000  C
  C23      1.0000 0.38750  0.35270  0.49590  Biso   1.000  C
  C24      1.0000 0.61250  0.85270  0.00410  Biso   1.000  C
  C25      1.0000 0.70860  0.55700  0.53050  Biso   1.000  C
  C26      1.0000 0.29140  0.05700  0.96950  Biso   1.000  C
  C27      1.0000 0.29140  0.44300  0.46950  Biso   1.000  C
  C28      1.0000 0.70860  0.94300  0.03050  Biso   1.000  C
  C29      1.0000 0.80540  0.56440  0.50960  Biso   1.000  C
  C30      1.0000 0.19460  0.06440  0.99040  Biso   1.000  C
  C31      1.0000 0.19460  0.43560  0.49040  Biso   1.000  C
  C32      1.0000 0.80540  0.93560  0.00960  Biso   1.000  C
  C33      1.0000 0.80040  0.66110  0.46020  Biso   1.000  C
  C34      1.0000 0.19960  0.16110  0.03980  Biso   1.000  C
  C35      1.0000 0.19960  0.33890  0.53980  Biso   1.000  C
  C36      1.0000 0.80040  0.83890  0.96020  Biso   1.000  C
  C37      1.0000 0.69900  0.74710  0.43450  Biso   1.000  C
  C38      1.0000 0.30100  0.24710  0.06550  Biso   1.000  C
  C39      1.0000 0.30100  0.25290  0.56550  Biso   1.000  C
  C40      1.0000 0.69900  0.75290  0.93450  Biso   1.000  C
  C41      1.0000 0.67700  0.85160  0.38150  Biso   1.000  C
  C42      1.0000 0.32300  0.35160  0.11850  Biso   1.000  C
  C43      1.0000 0.32300  0.14840  0.61850  Biso   1.000  C
  C44      1.0000 0.67700  0.64840  0.88150  Biso   1.000  C
  N5       1.0000 0.57370  0.01190  0.31320  Biso   1.000  N
  N6       1.0000 0.42630  0.51190  0.18680  Biso   1.000  N
  N7       1.0000 0.42630  0.98810  0.68680  Biso   1.000  N
  N8       1.0000 0.57370  0.48810  0.81320  Biso   1.000  N
  C45      1.0000 0.33930  0.12870  0.33080  Biso   1.000  C
  C46      1.0000 0.66070  0.62870  0.16920  Biso   1.000  C
  C47      1.0000 0.66070  0.87130  0.66920  Biso   1.000  C
  C48      1.0000 0.33930  0.37130  0.83080  Biso   1.000  C
  C49      1.0000 0.24200  0.22200  0.30740  Biso   1.000  C
  C50      1.0000 0.75800  0.72200  0.19260  Biso   1.000  C
  C51      1.0000 0.75800  0.77800  0.69260  Biso   1.000  C
  C52      1.0000 0.24200  0.27800  0.80740  Biso   1.000  C
  C53      1.0000 0.15540  0.22450  0.33530  Biso   1.000  C
  C54      1.0000 0.84460  0.72450  0.16470  Biso   1.000  C
  C55      1.0000 0.84460  0.77550  0.66470  Biso   1.000  C
  C56      1.0000 0.15540  0.27550  0.83530  Biso   1.000  C
  C57      1.0000 0.16620  0.13370  0.38650  Biso   1.000  C
  C58      1.0000 0.83380  0.63370  0.11350  Biso   1.000  C
  C59      1.0000 0.83380  0.86630  0.61350  Biso   1.000  C
  C60      1.0000 0.16620  0.36630  0.88650  Biso   1.000  C
  C61      1.0000 0.26320  0.04020  0.40960  Biso   1.000  C
  C62      1.0000 0.73680  0.54020  0.09040  Biso   1.000  C
  C63      1.0000 0.73680  0.95980  0.59040  Biso   1.000  C
  C64      1.0000 0.26320  0.45980  0.90960  Biso   1.000  C
  C65      1.0000 0.28670  0.93970  0.46480  Biso   1.000  C
  C66      1.0000 0.71330  0.43970  0.03520  Biso   1.000  C
  C67      1.0000 0.71330  0.06030  0.53520  Biso   1.000  C
  C68      1.0000 0.28670  0.56030  0.96480  Biso   1.000  C
  C69      1.0000 0.28460  0.80160  0.53860  Biso   1.000  C
  C70      1.0000 0.71540  0.30160  0.96140  Biso   1.000  C
  C71      1.0000 0.71540  0.19840  0.46140  Biso   1.000  C
  C72      1.0000 0.28460  0.69840  0.03860  Biso   1.000  C
  C73      1.0000 0.24890  0.72700  0.58750  Biso   1.000  C
  C74      1.0000 0.75110  0.22700  0.91250  Biso   1.000  C
  C75      1.0000 0.75110  0.27300  0.41250  Biso   1.000  C
  C76      1.0000 0.24890  0.77300  0.08750  Biso   1.000  C
  C77      1.0000 0.13300  0.73580  0.58590  Biso   1.000  C
  C78      1.0000 0.86700  0.23580  0.91410  Biso   1.000  C
  C79      1.0000 0.86700  0.26420  0.41410  Biso   1.000  C
  C80      1.0000 0.13300  0.76420  0.08590  Biso   1.000  C
  C81      1.0000 0.17200  0.58560  0.67260  Biso   1.000  C
  C82      1.0000 0.82800  0.08560  0.82740  Biso   1.000  C
  C83      1.0000 0.82800  0.41440  0.32740  Biso   1.000  C
  C84      1.0000 0.17200  0.91440  0.17260  Biso   1.000  C
  C85      1.0000 0.29320  0.56960  0.67970  Biso   1.000  C
  C86      1.0000 0.70680  0.06960  0.82030  Biso   1.000  C
  C87      1.0000 0.70680  0.43040  0.32030  Biso   1.000  C
  C88      1.0000 0.29320  0.93040  0.17970  Biso   1.000  C
  C89      1.0000 0.32710  0.64440  0.63560  Biso   1.000  C
  C90      1.0000 0.67290  0.14440  0.86440  Biso   1.000  C
  C91      1.0000 0.67290  0.35560  0.36440  Biso   1.000  C
  C92      1.0000 0.32710  0.85560  0.13560  Biso   1.000  C
  H1       1.0000 0.55300  0.64200  0.51800  Biso   1.000  H
  H2       1.0000 0.44700  0.14200  0.98200  Biso   1.000  H
  H3       1.0000 0.44700  0.35800  0.48200  Biso   1.000  H
  H4       1.0000 0.55300  0.85800  0.01800  Biso   1.000  H
  H5       1.0000 0.70300  0.48400  0.56500  Biso   1.000  H
  H6       1.0000 0.29700  0.98400  0.93500  Biso   1.000  H
  H7       1.0000 0.29700  0.51600  0.43500  Biso   1.000  H
  H8       1.0000 0.70300  0.01600  0.06500  Biso   1.000  H
  H9       1.0000 0.87000  0.49900  0.51600  Biso   1.000  H
  H10      1.0000 0.13000  0.99900  0.98400  Biso   1.000  H
  H11      1.0000 0.13000  0.50100  0.48400  Biso   1.000  H
  H12      1.0000 0.87000  0.00100  0.01600  Biso   1.000  H
  H13      1.0000 0.85100  0.66400  0.43500  Biso   1.000  H
  H14      1.0000 0.14900  0.16400  0.06500  Biso   1.000  H
  H15      1.0000 0.14900  0.33600  0.56500  Biso   1.000  H
  H16      1.0000 0.85100  0.83600  0.93500  Biso   1.000  H
  H17      1.0000 0.55400  0.17200  0.20800  Biso   1.000  H
  H18      1.0000 0.44600  0.67200  0.29200  Biso   1.000  H
  H19      1.0000 0.44600  0.82800  0.79200  Biso   1.000  H
  H20      1.0000 0.55400  0.32800  0.70800  Biso   1.000  H
  H21      1.0000 0.87700  0.99700  0.28900  Biso   1.000  H
  H22      1.0000 0.12300  0.49700  0.21100  Biso   1.000  H
  H23      1.0000 0.12300  0.00300  0.71100  Biso   1.000  H
  H24      1.0000 0.87700  0.50300  0.78900  Biso   1.000  H
  H25      1.0000 0.95500  0.11700  0.21200  Biso   1.000  H
  H26      1.0000 0.04500  0.61700  0.28800  Biso   1.000  H
  H27      1.0000 0.04500  0.88300  0.78800  Biso   1.000  H
  H28      1.0000 0.95500  0.38300  0.71200  Biso   1.000  H
  H29      1.0000 0.79500  0.24800  0.12900  Biso   1.000  H
  H30      1.0000 0.20500  0.74800  0.37100  Biso   1.000  H
  H31      1.0000 0.20500  0.75200  0.87100  Biso   1.000  H
  H32      1.0000 0.79500  0.25200  0.62900  Biso   1.000  H
  H33      1.0000 0.40200  0.12900  0.31300  Biso   1.000  H
  H34      1.0000 0.59800  0.62900  0.18700  Biso   1.000  H
  H35      1.0000 0.59800  0.87100  0.68700  Biso   1.000  H
  H36      1.0000 0.40200  0.37100  0.81300  Biso   1.000  H
  H37      1.0000 0.26200  0.28400  0.27500  Biso   1.000  H
  H38      1.0000 0.73800  0.78400  0.22500  Biso   1.000  H
  H39      1.0000 0.73800  0.71600  0.72500  Biso   1.000  H
  H40      1.0000 0.26200  0.21600  0.77500  Biso   1.000  H
  H41      1.0000 0.09100  0.28500  0.30700  Biso   1.000  H
  H42      1.0000 0.90900  0.78500  0.19300  Biso   1.000  H
  H43      1.0000 0.90900  0.71500  0.69300  Biso   1.000  H
  H44      1.0000 0.09100  0.21500  0.80700  Biso   1.000  H
  H45      1.0000 0.10900  0.12900  0.40100  Biso   1.000  H
  H46      1.0000 0.89100  0.62900  0.09900  Biso   1.000  H
  H47      1.0000 0.89100  0.87100  0.59900  Biso   1.000  H
  H48      1.0000 0.10900  0.37100  0.90100  Biso   1.000  H
  H49      1.0000 0.08100  0.79000  0.55200  Biso   1.000  H
  H50      1.0000 0.91900  0.29000  0.94800  Biso   1.000  H
  H51      1.0000 0.91900  0.21000  0.44800  Biso   1.000  H
  H52      1.0000 0.08100  0.71000  0.05200  Biso   1.000  H
  H53      1.0000 0.13600  0.54300  0.69500  Biso   1.000  H
  H54      1.0000 0.86400  0.04300  0.80500  Biso   1.000  H
  H55      1.0000 0.86400  0.45700  0.30500  Biso   1.000  H
  H56      1.0000 0.13600  0.95700  0.19500  Biso   1.000  H
  H57      1.0000 0.33500  0.50200  0.70200  Biso   1.000  H
  H58      1.0000 0.66500  0.00200  0.79800  Biso   1.000  H
  H59      1.0000 0.66500  0.49800  0.29800  Biso   1.000  H
  H60      1.0000 0.33500  0.99800  0.20200  Biso   1.000  H
  N9       1.0000 0.60690  0.74230  0.45690  Biso   1.000  N
  N10      1.0000 0.39310  0.24230  0.04310  Biso   1.000  N
  N11      1.0000 0.39310  0.25770  0.54310  Biso   1.000  N
  N12      1.0000 0.60690  0.75770  0.95690  Biso   1.000  N
  N13      1.0000 0.57100  0.92240  0.36290  Biso   1.000  N
  N14      1.0000 0.42900  0.42240  0.13710  Biso   1.000  N
  N15      1.0000 0.42900  0.07760  0.63710  Biso   1.000  N
  N16      1.0000 0.57100  0.57760  0.86290  Biso   1.000  N
  C93      1.0000 0.67850  0.98930  0.30630  Biso   1.000  C
  C94      1.0000 0.32150  0.48930  0.19370  Biso   1.000  C
  C95      1.0000 0.32150  0.01070  0.69370  Biso   1.000  C
  C96      1.0000 0.67850  0.51070  0.80630  Biso   1.000  C
  N17      1.0000 0.74900  0.88790  0.34750  Biso   1.000  N
  N18      1.0000 0.25100  0.38790  0.15250  Biso   1.000  N
  N19      1.0000 0.25100  0.11210  0.65250  Biso   1.000  N
  N20      1.0000 0.74900  0.61210  0.84750  Biso   1.000  N
  N21      1.0000 0.34690  0.03790  0.38040  Biso   1.000  N
  N22      1.0000 0.65310  0.53790  0.11960  Biso   1.000  N
  N23      1.0000 0.65310  0.96210  0.61960  Biso   1.000  N
  N24      1.0000 0.34690  0.46210  0.88040  Biso   1.000  N
  N25      1.0000 0.38760  0.86510  0.47860  Biso   1.000  N
  N26      1.0000 0.61240  0.36510  0.02140  Biso   1.000  N
  N27      1.0000 0.61240  0.13490  0.52140  Biso   1.000  N
  N28      1.0000 0.38760  0.63490  0.97860  Biso   1.000  N
  N29      1.0000 0.38620  0.77550  0.52840  Biso   1.000  N
  N30      1.0000 0.61380  0.27550  0.97160  Biso   1.000  N
  N31      1.0000 0.61380  0.22450  0.47160  Biso   1.000  N
  N32      1.0000 0.38620  0.72450  0.02840  Biso   1.000  N
  N33      1.0000 0.21590  0.90690  0.49760  Biso   1.000  N
  N34      1.0000 0.78410  0.40690  0.00240  Biso   1.000  N
  N35      1.0000 0.78410  0.09310  0.50240  Biso   1.000  N
  N36      1.0000 0.21590  0.59310  0.99760  Biso   1.000  N
  N37      1.0000 0.09060  0.66580  0.62780  Biso   1.000  N
  N38      1.0000 0.90940  0.16580  0.87220  Biso   1.000  N
  N39      1.0000 0.90940  0.33420  0.37220  Biso   1.000  N
  N40      1.0000 0.09060  0.83420  0.12780  Biso   1.000  N
  H61      1.0000 0.39700  0.61500  0.63700  Biso   1.000  H
  H62      1.0000 0.60300  0.11500  0.86300  Biso   1.000  H
  H63      1.0000 0.60300  0.38500  0.36300  Biso   1.000  H
  H64      1.0000 0.39700  0.88500  0.13700  Biso   1.000  H
  O1       1.0000 0.99580  0.78520  0.38240  Biso   1.000  O
  O2       1.0000 0.00420  0.28520  0.11760  Biso   1.000  O
  O3       1.0000 0.00420  0.21480  0.61760  Biso   1.000  O
  O4       1.0000 0.99580  0.71480  0.88240  Biso   1.000  O
  H65      1.0000 0.91900  0.79900  0.37100  Biso   1.000  H
  H66      1.0000 0.08100  0.29900  0.12900  Biso   1.000  H
  H67      1.0000 0.08100  0.20100  0.62900  Biso   1.000  H
  H68      1.0000 0.91900  0.70100  0.87100  Biso   1.000  H
  H69      1.0000 0.98800  0.85400  0.40500  Biso   1.000  H
  H70      1.0000 0.01200  0.35400  0.09500  Biso   1.000  H
  H71      1.0000 0.01200  0.14600  0.59500  Biso   1.000  H
  H72      1.0000 0.98800  0.64600  0.90500  Biso   1.000  H
