data_image0
_cell_length_a       8.872
_cell_length_b       11.163
_cell_length_c       12.589
_cell_angle_alpha    94.687
_cell_angle_beta     99.93
_cell_angle_gamma    103.074

_symmetry_space_group_name_H-M    "P 1"
_symmetry_int_tables_number       1

loop_
  _symmetry_equiv_pos_as_xyz
  'x, y, z'

loop_
  _atom_site_label
  _atom_site_occupancy
  _atom_site_fract_x
  _atom_site_fract_y
  _atom_site_fract_z
  _atom_site_thermal_displace_type
  _atom_site_B_iso_or_equiv
  _atom_site_type_symbol
  Cu1      1.0000 0.52215  0.43060  0.22447  Biso   1.000  Cu
  Cu2      1.0000 0.47785  0.56940  0.77553  Biso   1.000  Cu
  O1       1.0000 0.35250  0.26710  0.08050  Biso   1.000  O
  O2       1.0000 0.64750  0.73290  0.91950  Biso   1.000  O
  O3       1.0000 0.55740  0.26490  0.20660  Biso   1.000  O
  O4       1.0000 0.44260  0.73510  0.79340  Biso   1.000  O
  O5       1.0000 0.66640  0.48530  0.13070  Biso   1.000  O
  O6       1.0000 0.33360  0.51470  0.86930  Biso   1.000  O
  O7       1.0000 0.87300  0.49090  0.26140  Biso   1.000  O
  O8       1.0000 0.12700  0.50910  0.73860  Biso   1.000  O
  O9       1.0000 0.92950  0.05460  0.86180  Biso   1.000  O
  O10      1.0000 0.07050  0.94540  0.13820  Biso   1.000  O
  O11      1.0000 0.41680  0.04820  0.46840  Biso   1.000  O
  O12      1.0000 0.58320  0.95180  0.53160  Biso   1.000  O
  H1       1.0000 0.52540  0.08130  0.45980  Biso   1.000  H
  H2       1.0000 0.47460  0.91870  0.54020  Biso   1.000  H
  H3       1.0000 0.35230  0.96560  0.47150  Biso   1.000  H
  H4       1.0000 0.64770  0.03440  0.52850  Biso   1.000  H
  N1       1.0000 0.40100  0.40040  0.34410  Biso   1.000  N
  N2       1.0000 0.59900  0.59960  0.65590  Biso   1.000  N
  N3       1.0000 0.46790  0.59310  0.23910  Biso   1.000  N
  N4       1.0000 0.53210  0.40690  0.76090  Biso   1.000  N
  N5       1.0000 0.16540  0.65410  0.57500  Biso   1.000  N
  N6       1.0000 0.83460  0.34590  0.42500  Biso   1.000  N
  H5       1.0000 0.13130  0.60970  0.62260  Biso   1.000  H
  H6       1.0000 0.86870  0.39030  0.37740  Biso   1.000  H
  N7       1.0000 0.22060  0.81700  0.48400  Biso   1.000  N
  N8       1.0000 0.77940  0.18300  0.51600  Biso   1.000  N
  C1       1.0000 0.37510  0.30170  0.39450  Biso   1.000  C
  C2       1.0000 0.62490  0.69830  0.60550  Biso   1.000  C
  H7       1.0000 0.41110  0.23380  0.37170  Biso   1.000  H
  H8       1.0000 0.58890  0.76620  0.62830  Biso   1.000  H
  C3       1.0000 0.29570  0.29500  0.48120  Biso   1.000  C
  C4       1.0000 0.70430  0.70500  0.51880  Biso   1.000  C
  H9       1.0000 0.27820  0.22340  0.51490  Biso   1.000  H
  H10      1.0000 0.72180  0.77660  0.48510  Biso   1.000  H
  C5       1.0000 0.24350  0.39580  0.51610  Biso   1.000  C
  C6       1.0000 0.75650  0.60420  0.48390  Biso   1.000  C
  H11      1.0000 0.19020  0.39280  0.57370  Biso   1.000  H
  H12      1.0000 0.80980  0.60720  0.42630  Biso   1.000  H
  C7       1.0000 0.27080  0.50240  0.46460  Biso   1.000  C
  C8       1.0000 0.72920  0.49760  0.53540  Biso   1.000  C
  C9       1.0000 0.23300  0.61760  0.49200  Biso   1.000  C
  C10      1.0000 0.76700  0.38240  0.50800  Biso   1.000  C
  C11      1.0000 0.16290  0.77430  0.56720  Biso   1.000  C
  C12      1.0000 0.83710  0.22570  0.43280  Biso   1.000  C
  C13      1.0000 0.10200  0.84880  0.64380  Biso   1.000  C
  C14      1.0000 0.89800  0.15120  0.35620  Biso   1.000  C
  C15      1.0000 0.02040  0.79500  0.72050  Biso   1.000  C
  C16      1.0000 0.97960  0.20500  0.27950  Biso   1.000  C
  H13      1.0000 0.00550  0.71040  0.72440  Biso   1.000  H
  H14      1.0000 0.99450  0.28960  0.27560  Biso   1.000  H
  C17      1.0000 0.96170  0.86600  0.79010  Biso   1.000  C
  C18      1.0000 0.03830  0.13400  0.20990  Biso   1.000  C
  H15      1.0000 0.90380  0.82860  0.83870  Biso   1.000  H
  H16      1.0000 0.09620  0.17140  0.16130  Biso   1.000  H
  C19      1.0000 0.98850  0.99090  0.78790  Biso   1.000  C
  C20      1.0000 0.01150  0.00910  0.21210  Biso   1.000  C
  C21      1.0000 0.98220  0.18520  0.87980  Biso   1.000  C
  C22      1.0000 0.01780  0.81480  0.12020  Biso   1.000  C
  H17      1.0000 0.93230  0.21720  0.93380  Biso   1.000  H
  H18      1.0000 0.06770  0.78280  0.06620  Biso   1.000  H
  H19      1.0000 0.95550  0.21860  0.81320  Biso   1.000  H
  H20      1.0000 0.04450  0.78140  0.18680  Biso   1.000  H
  H21      1.0000 0.09460  0.20830  0.90470  Biso   1.000  H
  H22      1.0000 0.90540  0.79170  0.09530  Biso   1.000  H
  C23      1.0000 0.06980  0.04680  0.71430  Biso   1.000  C
  C24      1.0000 0.93020  0.95320  0.28570  Biso   1.000  C
  H23      1.0000 0.08630  0.13170  0.71170  Biso   1.000  H
  H24      1.0000 0.91370  0.86830  0.28830  Biso   1.000  H
  C25      1.0000 0.12670  0.97410  0.64390  Biso   1.000  C
  C26      1.0000 0.87330  0.02590  0.35610  Biso   1.000  C
  H25      1.0000 0.18360  0.01200  0.59510  Biso   1.000  H
  H26      1.0000 0.81640  0.98800  0.40490  Biso   1.000  H
  C27      1.0000 0.26420  0.71810  0.43750  Biso   1.000  C
  C28      1.0000 0.73580  0.28190  0.56250  Biso   1.000  C
  C29      1.0000 0.34320  0.71550  0.34640  Biso   1.000  C
  C30      1.0000 0.65680  0.28450  0.65360  Biso   1.000  C
  C31      1.0000 0.38320  0.81330  0.28620  Biso   1.000  C
  C32      1.0000 0.61680  0.18670  0.71380  Biso   1.000  C
  H27      1.0000 0.35550  0.88740  0.30170  Biso   1.000  H
  H28      1.0000 0.64450  0.11260  0.69830  Biso   1.000  H
  C33      1.0000 0.46400  0.79970  0.20370  Biso   1.000  C
  C34      1.0000 0.53600  0.20030  0.79630  Biso   1.000  C
  H29      1.0000 0.49240  0.86440  0.16330  Biso   1.000  H
  H30      1.0000 0.50760  0.13560  0.83670  Biso   1.000  H
  C35      1.0000 0.50240  0.68680  0.18180  Biso   1.000  C
  C36      1.0000 0.49760  0.31320  0.81820  Biso   1.000  C
  H31      1.0000 0.55430  0.67680  0.12470  Biso   1.000  H
  H32      1.0000 0.44570  0.32320  0.87530  Biso   1.000  H
  C37      1.0000 0.38680  0.60550  0.31930  Biso   1.000  C
  C38      1.0000 0.61320  0.39450  0.68070  Biso   1.000  C
  C39      1.0000 0.35150  0.50180  0.37660  Biso   1.000  C
  C40      1.0000 0.64850  0.49820  0.62340  Biso   1.000  C
  C41      1.0000 0.45750  0.21830  0.11850  Biso   1.000  C
  C42      1.0000 0.54250  0.78170  0.88150  Biso   1.000  C
  C43      1.0000 0.47910  0.10270  0.05980  Biso   1.000  C
  C44      1.0000 0.52090  0.89730  0.94020  Biso   1.000  C
  C45      1.0000 0.62690  0.07880  0.06980  Biso   1.000  C
  C46      1.0000 0.37310  0.92120  0.93020  Biso   1.000  C
  H33      1.0000 0.71270  0.13150  0.11710  Biso   1.000  H
  H34      1.0000 0.28730  0.86850  0.88290  Biso   1.000  H
  C47      1.0000 0.35340  0.02300  0.99010  Biso   1.000  C
  C48      1.0000 0.64660  0.97700  0.00990  Biso   1.000  C
  H35      1.0000 0.25360  0.03820  0.98340  Biso   1.000  H
  H36      1.0000 0.74640  0.96180  0.01660  Biso   1.000  H
  C49      1.0000 0.81090  0.49040  0.16520  Biso   1.000  C
  C50      1.0000 0.18910  0.50960  0.83480  Biso   1.000  C
  C51      1.0000 0.91010  0.49650  0.08000  Biso   1.000  C
  C52      1.0000 0.08990  0.50350  0.92000  Biso   1.000  C
  C53      1.0000 0.85070  0.51710  0.97690  Biso   1.000  C
  C54      1.0000 0.14930  0.48290  0.02310  Biso   1.000  C
  H37      1.0000 0.74890  0.52840  0.96050  Biso   1.000  H
  H38      1.0000 0.25110  0.47160  0.03950  Biso   1.000  H
  C55      1.0000 0.06010  0.47870  0.10230  Biso   1.000  C
  C56      1.0000 0.93990  0.52130  0.89770  Biso   1.000  C
  H39      1.0000 0.10160  0.46370  0.17160  Biso   1.000  H
  H40      1.0000 0.89840  0.53630  0.82840  Biso   1.000  H
