data_image0
_cell_length_a       14.7064
_cell_length_b       14.8112
_cell_length_c       15.2607
_cell_angle_alpha    110.074
_cell_angle_beta     97.147
_cell_angle_gamma    106.121

_symmetry_space_group_name_H-M    "P 1"
_symmetry_int_tables_number       1

loop_
  _symmetry_equiv_pos_as_xyz
  'x, y, z'

loop_
  _atom_site_label
  _atom_site_occupancy
  _atom_site_fract_x
  _atom_site_fract_y
  _atom_site_fract_z
  _atom_site_thermal_displace_type
  _atom_site_B_iso_or_equiv
  _atom_site_type_symbol
  Cu1      1.0000 0.52713  0.21090  0.34412  Biso   1.000  Cu
  Cu2      1.0000 0.47287  0.78910  0.65588  Biso   1.000  Cu
  Cu3      1.0000 0.43142  0.89911  0.41278  Biso   1.000  Cu
  Cu4      1.0000 0.56858  0.10089  0.58722  Biso   1.000  Cu
  Cu5      1.0000 0.25733  0.88293  0.22700  Biso   1.000  Cu
  Cu6      1.0000 0.74267  0.11707  0.77300  Biso   1.000  Cu
  P1       1.0000 0.47842  0.97107  0.23773  Biso   1.000  P
  P2       1.0000 0.52158  0.02893  0.76227  Biso   1.000  P
  P3       1.0000 0.36293  0.08024  0.43022  Biso   1.000  P
  P4       1.0000 0.63707  0.91976  0.56978  Biso   1.000  P
  Cl1      1.0000 0.33544  0.42258  0.77474  Biso   1.000  Cl
  Cl2      1.0000 0.66456  0.57742  0.22526  Biso   1.000  Cl
  Cl3      1.0000 0.05335  0.33650  0.32690  Biso   1.000  Cl
  Cl4      1.0000 0.94665  0.66350  0.67310  Biso   1.000  Cl
  O1       1.0000 0.53670  0.08240  0.26390  Biso   1.000  O
  O2       1.0000 0.46330  0.91760  0.73610  Biso   1.000  O
  O3       1.0000 0.49360  0.93840  0.32130  Biso   1.000  O
  O4       1.0000 0.50640  0.06160  0.67870  Biso   1.000  O
  O5       1.0000 0.37120  0.94450  0.19140  Biso   1.000  O
  O6       1.0000 0.62880  0.05550  0.80860  Biso   1.000  O
  O7       1.0000 0.27930  0.99420  0.35030  Biso   1.000  O
  O8       1.0000 0.72070  0.00580  0.64970  Biso   1.000  O
  O9       1.0000 0.42370  0.03560  0.48250  Biso   1.000  O
  O10      1.0000 0.57630  0.96440  0.51750  Biso   1.000  O
  O11      1.0000 0.42520  0.15800  0.39890  Biso   1.000  O
  O12      1.0000 0.57480  0.84200  0.60110  Biso   1.000  O
  O13      1.0000 0.34400  0.33210  0.78130  Biso   1.000  O
  O14      1.0000 0.65600  0.66790  0.21870  Biso   1.000  O
  O15      1.0000 0.36470  0.42980  0.68910  Biso   1.000  O
  O16      1.0000 0.63530  0.57020  0.31090  Biso   1.000  O
  O17      1.0000 0.23570  0.41720  0.76810  Biso   1.000  O
  O18      1.0000 0.76430  0.58280  0.23190  Biso   1.000  O
  O19      1.0000 0.39790  0.51280  0.85320  Biso   1.000  O
  O20      1.0000 0.60210  0.48720  0.14680  Biso   1.000  O
  O21      1.0000 0.12970  0.29410  0.31390  Biso   1.000  O
  O22      1.0000 0.87030  0.70590  0.68610  Biso   1.000  O
  O23      1.0000 0.06530  0.39670  0.43850  Biso   1.000  O
  O24      1.0000 0.93470  0.60330  0.56150  Biso   1.000  O
  O25      1.0000 0.07230  0.42960  0.30350  Biso   1.000  O
  O26      1.0000 0.92770  0.57040  0.69650  Biso   1.000  O
  O27      1.0000 0.03860  0.34590  0.41440  Biso   1.000  O
  O28      1.0000 0.96140  0.65410  0.58560  Biso   1.000  O
  O29      1.0000 0.03450  0.37100  0.25360  Biso   1.000  O
  O30      1.0000 0.96550  0.62900  0.74640  Biso   1.000  O
  O31      1.0000 0.96850  0.25520  0.27110  Biso   1.000  O
  O32      1.0000 0.03150  0.74480  0.72890  Biso   1.000  O
  O33      1.0000 0.87940  0.07620  0.24870  Biso   1.000  O
  O34      1.0000 0.12060  0.92380  0.75130  Biso   1.000  O
  H1       1.0000 0.91260  0.13300  0.25350  Biso   1.000  H
  H2       1.0000 0.08740  0.86700  0.74650  Biso   1.000  H
  O35      1.0000 0.54550  0.57600  0.00530  Biso   1.000  O
  O36      1.0000 0.45450  0.42400  0.99470  Biso   1.000  O
  N1       1.0000 0.64730  0.28540  0.31230  Biso   1.000  N
  N2       1.0000 0.35270  0.71460  0.68770  Biso   1.000  N
  N3       1.0000 0.56770  0.35190  0.45300  Biso   1.000  N
  N4       1.0000 0.43230  0.64810  0.54700  Biso   1.000  N
  N5       1.0000 0.40460  0.75060  0.33030  Biso   1.000  N
  N6       1.0000 0.59540  0.24940  0.66970  Biso   1.000  N
  N7       1.0000 0.33250  0.83190  0.47130  Biso   1.000  N
  N8       1.0000 0.66750  0.16810  0.52870  Biso   1.000  N
  N9       1.0000 0.23290  0.74570  0.12060  Biso   1.000  N
  N10      1.0000 0.76710  0.25430  0.87940  Biso   1.000  N
  N11      1.0000 0.14900  0.79070  0.26020  Biso   1.000  N
  N12      1.0000 0.85100  0.20930  0.73980  Biso   1.000  N
  N13      1.0000 0.42440  0.23670  0.23950  Biso   1.000  N
  N14      1.0000 0.57560  0.76330  0.76050  Biso   1.000  N
  N15      1.0000 0.05650  0.29710  0.93890  Biso   1.000  N
  N16      1.0000 0.94350  0.70290  0.06110  Biso   1.000  N
  N17      1.0000 0.15710  0.92770  0.13870  Biso   1.000  N
  N18      1.0000 0.84290  0.07230  0.86130  Biso   1.000  N
  C1       1.0000 0.03340  0.98410  0.02840  Biso   1.000  C
  C2       1.0000 0.96660  0.01590  0.97160  Biso   1.000  C
  C3       1.0000 0.68520  0.24310  0.24090  Biso   1.000  C
  C4       1.0000 0.31480  0.75690  0.75910  Biso   1.000  C
  H3       1.0000 0.65200  0.17510  0.19940  Biso   1.000  H
  H4       1.0000 0.34800  0.82490  0.80060  Biso   1.000  H
  C5       1.0000 0.77020  0.29380  0.22540  Biso   1.000  C
  C6       1.0000 0.22980  0.70620  0.77460  Biso   1.000  C
  H5       1.0000 0.79320  0.26170  0.17350  Biso   1.000  H
  H6       1.0000 0.20680  0.73830  0.82650  Biso   1.000  H
  C7       1.0000 0.82160  0.39420  0.28830  Biso   1.000  C
  C8       1.0000 0.17840  0.60580  0.71170  Biso   1.000  C
  H7       1.0000 0.88120  0.43000  0.28130  Biso   1.000  H
  H8       1.0000 0.11880  0.57000  0.71870  Biso   1.000  H
  C9       1.0000 0.78160  0.44000  0.36250  Biso   1.000  C
  C10      1.0000 0.21840  0.56000  0.63750  Biso   1.000  C
  H9       1.0000 0.81320  0.50810  0.40420  Biso   1.000  H
  H10      1.0000 0.18680  0.49190  0.59580  Biso   1.000  H
  C11      1.0000 0.69500  0.38420  0.37410  Biso   1.000  C
  C12      1.0000 0.30500  0.61580  0.62590  Biso   1.000  C
  C13      1.0000 0.64970  0.42350  0.45300  Biso   1.000  C
  C14      1.0000 0.35030  0.57650  0.54700  Biso   1.000  C
  C15      1.0000 0.68630  0.52100  0.52300  Biso   1.000  C
  C16      1.0000 0.31370  0.47900  0.47700  Biso   1.000  C
  H11      1.0000 0.74270  0.56840  0.52220  Biso   1.000  H
  H12      1.0000 0.25730  0.43160  0.47780  Biso   1.000  H
  C17      1.0000 0.63730  0.54810  0.59580  Biso   1.000  C
  C18      1.0000 0.36270  0.45190  0.40420  Biso   1.000  C
  H13      1.0000 0.66050  0.61400  0.64370  Biso   1.000  H
  H14      1.0000 0.33950  0.38600  0.35630  Biso   1.000  H
  C19      1.0000 0.55430  0.47600  0.59550  Biso   1.000  C
  C20      1.0000 0.44570  0.52400  0.40450  Biso   1.000  C
  H15      1.0000 0.52090  0.49250  0.64330  Biso   1.000  H
  H16      1.0000 0.47910  0.50750  0.35670  Biso   1.000  H
  C21      1.0000 0.52130  0.37880  0.52330  Biso   1.000  C
  C22      1.0000 0.47870  0.62120  0.47670  Biso   1.000  C
  H17      1.0000 0.46520  0.33040  0.52320  Biso   1.000  H
  H18      1.0000 0.53480  0.66960  0.47680  Biso   1.000  H
  C23      1.0000 0.44820  0.71580  0.26090  Biso   1.000  C
  C24      1.0000 0.55180  0.28420  0.73910  Biso   1.000  C
  H19      1.0000 0.50500  0.76050  0.25760  Biso   1.000  H
  H20      1.0000 0.49500  0.23950  0.74240  Biso   1.000  H
  C25      1.0000 0.41220  0.61560  0.19370  Biso   1.000  C
  C26      1.0000 0.58780  0.38440  0.80630  Biso   1.000  C
  H21      1.0000 0.44470  0.59320  0.14650  Biso   1.000  H
  H22      1.0000 0.55530  0.40680  0.85350  Biso   1.000  H
  C27      1.0000 0.32820  0.55020  0.19780  Biso   1.000  C
  C28      1.0000 0.67180  0.44980  0.80220  Biso   1.000  C
  H23      1.0000 0.30160  0.48340  0.15170  Biso   1.000  H
  H24      1.0000 0.69840  0.51660  0.84830  Biso   1.000  H
  C29      1.0000 0.28230  0.58310  0.27050  Biso   1.000  C
  C30      1.0000 0.71770  0.41690  0.72950  Biso   1.000  C
  H25      1.0000 0.22610  0.53890  0.27520  Biso   1.000  H
  H26      1.0000 0.77390  0.46110  0.72480  Biso   1.000  H
  C31      1.0000 0.32360  0.68540  0.33690  Biso   1.000  C
  C32      1.0000 0.67640  0.31460  0.66310  Biso   1.000  C
  C33      1.0000 0.28390  0.73030  0.41940  Biso   1.000  C
  C34      1.0000 0.71610  0.26970  0.58060  Biso   1.000  C
  C35      1.0000 0.20530  0.67530  0.44430  Biso   1.000  C
  C36      1.0000 0.79470  0.32470  0.55570  Biso   1.000  C
  H27      1.0000 0.17160  0.60610  0.40740  Biso   1.000  H
  H28      1.0000 0.82840  0.39390  0.59260  Biso   1.000  H
  C37      1.0000 0.17890  0.72800  0.52670  Biso   1.000  C
  C38      1.0000 0.82110  0.27200  0.47330  Biso   1.000  C
  H29      1.0000 0.12690  0.69370  0.54550  Biso   1.000  H
  H30      1.0000 0.87310  0.30630  0.45450  Biso   1.000  H
  C39      1.0000 0.22910  0.82930  0.57940  Biso   1.000  C
  C40      1.0000 0.77090  0.17070  0.42060  Biso   1.000  C
  H31      1.0000 0.21260  0.86450  0.63490  Biso   1.000  H
  H32      1.0000 0.78740  0.13550  0.36510  Biso   1.000  H
  C41      1.0000 0.30460  0.87870  0.54930  Biso   1.000  C
  C42      1.0000 0.69540  0.12130  0.45070  Biso   1.000  C
  H33      1.0000 0.33790  0.94810  0.58500  Biso   1.000  H
  H34      1.0000 0.66210  0.05190  0.41500  Biso   1.000  H
  C43      1.0000 0.27990  0.72960  0.04840  Biso   1.000  C
  C44      1.0000 0.72010  0.27040  0.95160  Biso   1.000  C
  H35      1.0000 0.32830  0.78530  0.04820  Biso   1.000  H
  H36      1.0000 0.67170  0.21470  0.95180  Biso   1.000  H
  C45      1.0000 0.25970  0.63530  0.97550  Biso   1.000  C
  C46      1.0000 0.74030  0.36470  0.02450  Biso   1.000  C
  H37      1.0000 0.29400  0.62740  0.92780  Biso   1.000  H
  H38      1.0000 0.70600  0.37260  0.07220  Biso   1.000  H
  C47      1.0000 0.18580  0.55130  0.97530  Biso   1.000  C
  C48      1.0000 0.81420  0.44870  0.02470  Biso   1.000  C
  H39      1.0000 0.17000  0.48650  0.92700  Biso   1.000  H
  H40      1.0000 0.83000  0.51350  0.07300  Biso   1.000  H
  C49      1.0000 0.13690  0.56640  0.04820  Biso   1.000  C
  C50      1.0000 0.86310  0.43360  0.95180  Biso   1.000  C
  H41      1.0000 0.08740  0.51190  0.04900  Biso   1.000  H
  H42      1.0000 0.91260  0.48810  0.95100  Biso   1.000  H
  C51      1.0000 0.16230  0.66400  0.12000  Biso   1.000  C
  C52      1.0000 0.83770  0.33600  0.88000  Biso   1.000  C
  C53      1.0000 0.11610  0.69060  0.20120  Biso   1.000  C
  C54      1.0000 0.88390  0.30940  0.79880  Biso   1.000  C
  C55      1.0000 0.04060  0.62050  0.21610  Biso   1.000  C
  C56      1.0000 0.95940  0.37950  0.78390  Biso   1.000  C
  H43      1.0000 0.01950  0.55140  0.17630  Biso   1.000  H
  H44      1.0000 0.98050  0.44860  0.82370  Biso   1.000  H
  C57      1.0000 0.99720  0.65470  0.29060  Biso   1.000  C
  C58      1.0000 0.00280  0.34530  0.70940  Biso   1.000  C
  H45      1.0000 0.94590  0.60910  0.30060  Biso   1.000  H
  H46      1.0000 0.05410  0.39090  0.69940  Biso   1.000  H
  C59      1.0000 0.03120  0.75680  0.34930  Biso   1.000  C
  C60      1.0000 0.96880  0.24320  0.65070  Biso   1.000  C
  H47      1.0000 0.00310  0.78130  0.39970  Biso   1.000  H
  H48      1.0000 0.99690  0.21870  0.60030  Biso   1.000  H
  C61      1.0000 0.10710  0.82280  0.33300  Biso   1.000  C
  C62      1.0000 0.89290  0.17720  0.66700  Biso   1.000  C
  H49      1.0000 0.13020  0.89180  0.37370  Biso   1.000  H
  H50      1.0000 0.86980  0.10820  0.62630  Biso   1.000  H
  C63      1.0000 0.32960  0.18510  0.22370  Biso   1.000  C
  C64      1.0000 0.67040  0.81490  0.77630  Biso   1.000  C
  H51      1.0000 0.31150  0.13820  0.25170  Biso   1.000  H
  H52      1.0000 0.68850  0.86180  0.74830  Biso   1.000  H
  C65      1.0000 0.25790  0.19810  0.16790  Biso   1.000  C
  C66      1.0000 0.74210  0.80190  0.83210  Biso   1.000  C
  H53      1.0000 0.19260  0.16400  0.16230  Biso   1.000  H
  H54      1.0000 0.80740  0.83600  0.83770  Biso   1.000  H
  C67      1.0000 0.28270  0.26250  0.11970  Biso   1.000  C
  C68      1.0000 0.71730  0.73750  0.88030  Biso   1.000  C
  C69      1.0000 0.38130  0.31470  0.13570  Biso   1.000  C
  C70      1.0000 0.61870  0.68530  0.86430  Biso   1.000  C
  H55      1.0000 0.40170  0.35960  0.10610  Biso   1.000  H
  H56      1.0000 0.59830  0.64040  0.89390  Biso   1.000  H
  C71      1.0000 0.44880  0.30020  0.19480  Biso   1.000  C
  C72      1.0000 0.55120  0.69980  0.80520  Biso   1.000  C
  H57      1.0000 0.51450  0.33610  0.20430  Biso   1.000  H
  H58      1.0000 0.48550  0.66390  0.79570  Biso   1.000  H
  C73      1.0000 0.20400  0.27420  0.05600  Biso   1.000  C
  C74      1.0000 0.79600  0.72580  0.94400  Biso   1.000  C
  C75      1.0000 0.21660  0.28440  0.96990  Biso   1.000  C
  C76      1.0000 0.78340  0.71560  0.03010  Biso   1.000  C
  H59      1.0000 0.27390  0.28490  0.95010  Biso   1.000  H
  H60      1.0000 0.72610  0.71510  0.04990  Biso   1.000  H
  C77      1.0000 0.13800  0.29370  0.91480  Biso   1.000  C
  C78      1.0000 0.86200  0.70630  0.08520  Biso   1.000  C
  H61      1.0000 0.14490  0.29790  0.85640  Biso   1.000  H
  H62      1.0000 0.85510  0.70210  0.14360  Biso   1.000  H
  C79      1.0000 0.04620  0.28930  0.02130  Biso   1.000  C
  C80      1.0000 0.95380  0.71070  0.97870  Biso   1.000  C
  H63      1.0000 0.98880  0.29200  0.04000  Biso   1.000  H
  H64      1.0000 0.01120  0.70800  0.96000  Biso   1.000  H
  C81      1.0000 0.11770  0.27720  0.08140  Biso   1.000  C
  C82      1.0000 0.88230  0.72280  0.91860  Biso   1.000  C
  H65      1.0000 0.10710  0.27110  0.13830  Biso   1.000  H
  H66      1.0000 0.89290  0.72890  0.86170  Biso   1.000  H
  C83      1.0000 0.52930  0.89870  0.14850  Biso   1.000  C
  C84      1.0000 0.47070  0.10130  0.85150  Biso   1.000  C
  H67      1.0000 0.49260  0.82600  0.12960  Biso   1.000  H
  H68      1.0000 0.50740  0.17400  0.87040  Biso   1.000  H
  C85      1.0000 0.63840  0.91610  0.18450  Biso   1.000  C
  C86      1.0000 0.36160  0.08390  0.81550  Biso   1.000  C
  H69      1.0000 0.67140  0.98280  0.23640  Biso   1.000  H
  H70      1.0000 0.32860  0.01720  0.76360  Biso   1.000  H
  H71      1.0000 0.64620  0.86360  0.20600  Biso   1.000  H
  H72      1.0000 0.35380  0.13640  0.79400  Biso   1.000  H
  C87      1.0000 0.67650  0.90900  0.09430  Biso   1.000  C
  C88      1.0000 0.32350  0.09100  0.90570  Biso   1.000  C
  H73      1.0000 0.74500  0.95080  0.11270  Biso   1.000  H
  H74      1.0000 0.25500  0.04920  0.88730  Biso   1.000  H
  H75      1.0000 0.67030  0.83870  0.05750  Biso   1.000  H
  H76      1.0000 0.32970  0.16130  0.94250  Biso   1.000  H
  C89      1.0000 0.62270  0.94310  0.03750  Biso   1.000  C
  C90      1.0000 0.37730  0.05690  0.96250  Biso   1.000  C
  H77      1.0000 0.64520  0.97340  0.99650  Biso   1.000  H
  H78      1.0000 0.35480  0.02660  0.00350  Biso   1.000  H
  C91      1.0000 0.52130  0.92140  0.05570  Biso   1.000  C
  C92      1.0000 0.47870  0.07860  0.94430  Biso   1.000  C
  H79      1.0000 0.47460  0.86280  0.00170  Biso   1.000  H
  H80      1.0000 0.52540  0.13720  0.99830  Biso   1.000  H
  H81      1.0000 0.50070  0.98010  0.06520  Biso   1.000  H
  H82      1.0000 0.49930  0.01990  0.93480  Biso   1.000  H
  C93      1.0000 0.30720  0.15210  0.51630  Biso   1.000  C
  C94      1.0000 0.69280  0.84790  0.48370  Biso   1.000  C
  H83      1.0000 0.35920  0.20530  0.57120  Biso   1.000  H
  H84      1.0000 0.64080  0.79470  0.42880  Biso   1.000  H
  C95      1.0000 0.23280  0.08820  0.55480  Biso   1.000  C
  C96      1.0000 0.76720  0.91180  0.44520  Biso   1.000  C
  H85      1.0000 0.22190  0.01580  0.52200  Biso   1.000  H
  H86      1.0000 0.77810  0.98420  0.47800  Biso   1.000  H
  H87      1.0000 0.25670  0.10830  0.62320  Biso   1.000  H
  H88      1.0000 0.74330  0.89170  0.37680  Biso   1.000  H
  C97      1.0000 0.13960  0.10960  0.53510  Biso   1.000  C
  C98      1.0000 0.86040  0.89040  0.46490  Biso   1.000  C
  H89      1.0000 0.09290  0.05300  0.47950  Biso   1.000  H
  H90      1.0000 0.90710  0.94700  0.52050  Biso   1.000  H
  H91      1.0000 0.11090  0.11880  0.59000  Biso   1.000  H
  H92      1.0000 0.88910  0.88120  0.41000  Biso   1.000  H
  C99      1.0000 0.16570  0.20530  0.51640  Biso   1.000  C
  C100     1.0000 0.83430  0.79470  0.48360  Biso   1.000  C
  H93      1.0000 0.11100  0.20530  0.47380  Biso   1.000  H
  H94      1.0000 0.88900  0.79470  0.52620  Biso   1.000  H
  H95      1.0000 0.18430  0.26530  0.57610  Biso   1.000  H
  H96      1.0000 0.81570  0.73470  0.42390  Biso   1.000  H
  C101     1.0000 0.24880  0.20480  0.47110  Biso   1.000  C
  C102     1.0000 0.75120  0.79520  0.52890  Biso   1.000  C
  H97      1.0000 0.28940  0.27420  0.48420  Biso   1.000  H
  H98      1.0000 0.71060  0.72580  0.51580  Biso   1.000  H
  H99      1.0000 0.22570  0.16700  0.40200  Biso   1.000  H
  H100     1.0000 0.77430  0.83300  0.59800  Biso   1.000  H
  C103     1.0000 0.16810  0.92800  0.05380  Biso   1.000  C
  C104     1.0000 0.83190  0.07200  0.94620  Biso   1.000  C
  H101     1.0000 0.21930  0.91010  0.03150  Biso   1.000  H
  H102     1.0000 0.78070  0.08990  0.96850  Biso   1.000  H
  C105     1.0000 0.10760  0.95320  0.99680  Biso   1.000  C
  C106     1.0000 0.89240  0.04680  0.00320  Biso   1.000  C
  H103     1.0000 0.11710  0.94940  0.93670  Biso   1.000  H
  H104     1.0000 0.88290  0.05060  0.06330  Biso   1.000  H
  C107     1.0000 0.02460  0.98840  0.11920  Biso   1.000  C
  C108     1.0000 0.97540  0.01160  0.88080  Biso   1.000  C
  H105     1.0000 0.97860  0.01290  0.14630  Biso   1.000  H
  H106     1.0000 0.02140  0.98710  0.85370  Biso   1.000  H
  C109     1.0000 0.08440  0.95630  0.16840  Biso   1.000  C
  C110     1.0000 0.91560  0.04370  0.83160  Biso   1.000  C
  H107     1.0000 0.07350  0.95440  0.22650  Biso   1.000  H
  H108     1.0000 0.92650  0.04560  0.77350  Biso   1.000  H
  C111     1.0000 0.93010  0.04720  0.31800  Biso   1.000  C
  C112     1.0000 0.06990  0.95280  0.68200  Biso   1.000  C
  H109     1.0000 0.99730  0.06180  0.31570  Biso   1.000  H
  H110     1.0000 0.00270  0.93820  0.68430  Biso   1.000  H
  H111     1.0000 0.90000  0.97530  0.30210  Biso   1.000  H
  H112     1.0000 0.10000  0.02470  0.69790  Biso   1.000  H
  H113     1.0000 0.92610  0.08540  0.38160  Biso   1.000  H
  H114     1.0000 0.07390  0.91460  0.61840  Biso   1.000  H
