data_image0
_cell_length_a       12.872
_cell_length_b       11.015
_cell_length_c       20.869
_cell_angle_alpha    90
_cell_angle_beta     102.12
_cell_angle_gamma    90

_symmetry_space_group_name_H-M    "P 1"
_symmetry_int_tables_number       1

loop_
  _symmetry_equiv_pos_as_xyz
  'x, y, z'

loop_
  _atom_site_label
  _atom_site_occupancy
  _atom_site_fract_x
  _atom_site_fract_y
  _atom_site_fract_z
  _atom_site_thermal_displace_type
  _atom_site_B_iso_or_equiv
  _atom_site_type_symbol
  C1       1.0000 0.65321  0.45770  0.35268  Biso   1.000  C
  C2       1.0000 0.15321  0.95770  0.35268  Biso   1.000  C
  C3       1.0000 0.34679  0.45770  0.14732  Biso   1.000  C
  C4       1.0000 0.84679  0.95770  0.14732  Biso   1.000  C
  C5       1.0000 0.34679  0.54230  0.64732  Biso   1.000  C
  C6       1.0000 0.84679  0.04230  0.64732  Biso   1.000  C
  C7       1.0000 0.65321  0.54230  0.85268  Biso   1.000  C
  C8       1.0000 0.15321  0.04230  0.85268  Biso   1.000  C
  C9       1.0000 0.71300  0.43310  0.42064  Biso   1.000  C
  C10      1.0000 0.21300  0.93310  0.42064  Biso   1.000  C
  C11      1.0000 0.28700  0.43310  0.07936  Biso   1.000  C
  C12      1.0000 0.78700  0.93310  0.07936  Biso   1.000  C
  C13      1.0000 0.28700  0.56690  0.57936  Biso   1.000  C
  C14      1.0000 0.78700  0.06690  0.57936  Biso   1.000  C
  C15      1.0000 0.71300  0.56690  0.92064  Biso   1.000  C
  C16      1.0000 0.21300  0.06690  0.92064  Biso   1.000  C
  C17      1.0000 0.66735  0.44710  0.47346  Biso   1.000  C
  C18      1.0000 0.16735  0.94710  0.47346  Biso   1.000  C
  C19      1.0000 0.33265  0.44710  0.02654  Biso   1.000  C
  C20      1.0000 0.83265  0.94710  0.02654  Biso   1.000  C
  C21      1.0000 0.33265  0.55290  0.52654  Biso   1.000  C
  C22      1.0000 0.83265  0.05290  0.52654  Biso   1.000  C
  C23      1.0000 0.66735  0.55290  0.97346  Biso   1.000  C
  C24      1.0000 0.16735  0.05290  0.97346  Biso   1.000  C
  H1       1.0000 0.59640  0.46990  0.46750  Biso   1.000  H
  H2       1.0000 0.09640  0.96990  0.46750  Biso   1.000  H
  H3       1.0000 0.40360  0.46990  0.03250  Biso   1.000  H
  H4       1.0000 0.90360  0.96990  0.03250  Biso   1.000  H
  H5       1.0000 0.40360  0.53010  0.53250  Biso   1.000  H
  H6       1.0000 0.90360  0.03010  0.53250  Biso   1.000  H
  H7       1.0000 0.59640  0.53010  0.96750  Biso   1.000  H
  H8       1.0000 0.09640  0.03010  0.96750  Biso   1.000  H
  C25      1.0000 0.72730  0.42740  0.53676  Biso   1.000  C
  C26      1.0000 0.22730  0.92740  0.53676  Biso   1.000  C
  C27      1.0000 0.27270  0.42740  0.96324  Biso   1.000  C
  C28      1.0000 0.77270  0.92740  0.96324  Biso   1.000  C
  C29      1.0000 0.27270  0.57260  0.46324  Biso   1.000  C
  C30      1.0000 0.77270  0.07260  0.46324  Biso   1.000  C
  C31      1.0000 0.72730  0.57260  0.03676  Biso   1.000  C
  C32      1.0000 0.22730  0.07260  0.03676  Biso   1.000  C
  C33      1.0000 0.67960  0.44700  0.59454  Biso   1.000  C
  C34      1.0000 0.17960  0.94700  0.59454  Biso   1.000  C
  C35      1.0000 0.32040  0.44700  0.90546  Biso   1.000  C
  C36      1.0000 0.82040  0.94700  0.90546  Biso   1.000  C
  C37      1.0000 0.32040  0.55300  0.40546  Biso   1.000  C
  C38      1.0000 0.82040  0.05300  0.40546  Biso   1.000  C
  C39      1.0000 0.67960  0.55300  0.09454  Biso   1.000  C
  C40      1.0000 0.17960  0.05300  0.09454  Biso   1.000  C
  C41      1.0000 0.83206  0.39010  0.54551  Biso   1.000  C
  C42      1.0000 0.33206  0.89010  0.54551  Biso   1.000  C
  C43      1.0000 0.16794  0.39010  0.95449  Biso   1.000  C
  C44      1.0000 0.66794  0.89010  0.95449  Biso   1.000  C
  C45      1.0000 0.16794  0.60990  0.45449  Biso   1.000  C
  C46      1.0000 0.66794  0.10990  0.45449  Biso   1.000  C
  C47      1.0000 0.83206  0.60990  0.04551  Biso   1.000  C
  C48      1.0000 0.33206  0.10990  0.04551  Biso   1.000  C
  H9       1.0000 0.87190  0.37530  0.58740  Biso   1.000  H
  H10      1.0000 0.37190  0.87530  0.58740  Biso   1.000  H
  H11      1.0000 0.12810  0.37530  0.91260  Biso   1.000  H
  H12      1.0000 0.62810  0.87530  0.91260  Biso   1.000  H
  H13      1.0000 0.12810  0.62470  0.41260  Biso   1.000  H
  H14      1.0000 0.62810  0.12470  0.41260  Biso   1.000  H
  H15      1.0000 0.87190  0.62470  0.08740  Biso   1.000  H
  H16      1.0000 0.37190  0.12470  0.08740  Biso   1.000  H
  C49      1.0000 0.87666  0.37540  0.49168  Biso   1.000  C
  C50      1.0000 0.37666  0.87540  0.49168  Biso   1.000  C
  C51      1.0000 0.12334  0.37540  0.00832  Biso   1.000  C
  C52      1.0000 0.62334  0.87540  0.00832  Biso   1.000  C
  C53      1.0000 0.12334  0.62460  0.50832  Biso   1.000  C
  C54      1.0000 0.62334  0.12460  0.50832  Biso   1.000  C
  C55      1.0000 0.87666  0.62460  0.99168  Biso   1.000  C
  C56      1.0000 0.37666  0.12460  0.99168  Biso   1.000  C
  C57      1.0000 0.81893  0.39840  0.42918  Biso   1.000  C
  C58      1.0000 0.31893  0.89840  0.42918  Biso   1.000  C
  C59      1.0000 0.18107  0.39840  0.07082  Biso   1.000  C
  C60      1.0000 0.68107  0.89840  0.07082  Biso   1.000  C
  C61      1.0000 0.18107  0.60160  0.57082  Biso   1.000  C
  C62      1.0000 0.68107  0.10160  0.57082  Biso   1.000  C
  C63      1.0000 0.81893  0.60160  0.92918  Biso   1.000  C
  C64      1.0000 0.31893  0.10160  0.92918  Biso   1.000  C
  H17      1.0000 0.85060  0.39080  0.39320  Biso   1.000  H
  H18      1.0000 0.35060  0.89080  0.39320  Biso   1.000  H
  H19      1.0000 0.14940  0.39080  0.10680  Biso   1.000  H
  H20      1.0000 0.64940  0.89080  0.10680  Biso   1.000  H
  H21      1.0000 0.14940  0.60920  0.60680  Biso   1.000  H
  H22      1.0000 0.64940  0.10920  0.60680  Biso   1.000  H
  H23      1.0000 0.85060  0.60920  0.89320  Biso   1.000  H
  H24      1.0000 0.35060  0.10920  0.89320  Biso   1.000  H
  C65      1.0000 0.03164  0.32300  0.45391  Biso   1.000  C
  C66      1.0000 0.53164  0.82300  0.45391  Biso   1.000  C
  C67      1.0000 0.96836  0.32300  0.04609  Biso   1.000  C
  C68      1.0000 0.46836  0.82300  0.04609  Biso   1.000  C
  C69      1.0000 0.96836  0.67700  0.54609  Biso   1.000  C
  C70      1.0000 0.46836  0.17700  0.54609  Biso   1.000  C
  C71      1.0000 0.03164  0.67700  0.95391  Biso   1.000  C
  C72      1.0000 0.53164  0.17700  0.95391  Biso   1.000  C
  H25      1.0000 0.03020  0.39810  0.42940  Biso   1.000  H
  H26      1.0000 0.53020  0.89810  0.42940  Biso   1.000  H
  H27      1.0000 0.96980  0.39810  0.07060  Biso   1.000  H
  H28      1.0000 0.46980  0.89810  0.07060  Biso   1.000  H
  H29      1.0000 0.96980  0.60190  0.57060  Biso   1.000  H
  H30      1.0000 0.46980  0.10190  0.57060  Biso   1.000  H
  H31      1.0000 0.03020  0.60190  0.92940  Biso   1.000  H
  H32      1.0000 0.53020  0.10190  0.92940  Biso   1.000  H
  H33      1.0000 0.99430  0.26140  0.42470  Biso   1.000  H
  H34      1.0000 0.49430  0.76140  0.42470  Biso   1.000  H
  H35      1.0000 0.00570  0.26140  0.07530  Biso   1.000  H
  H36      1.0000 0.50570  0.76140  0.07530  Biso   1.000  H
  H37      1.0000 0.00570  0.73860  0.57530  Biso   1.000  H
  H38      1.0000 0.50570  0.23860  0.57530  Biso   1.000  H
  H39      1.0000 0.99430  0.73860  0.92470  Biso   1.000  H
  H40      1.0000 0.49430  0.23860  0.92470  Biso   1.000  H
  C73      1.0000 0.14528  0.28410  0.47935  Biso   1.000  C
  C74      1.0000 0.64528  0.78410  0.47935  Biso   1.000  C
  C75      1.0000 0.85472  0.28410  0.02065  Biso   1.000  C
  C76      1.0000 0.35472  0.78410  0.02065  Biso   1.000  C
  C77      1.0000 0.85472  0.71590  0.52065  Biso   1.000  C
  C78      1.0000 0.35472  0.21590  0.52065  Biso   1.000  C
  C79      1.0000 0.14528  0.71590  0.97935  Biso   1.000  C
  C80      1.0000 0.64528  0.21590  0.97935  Biso   1.000  C
  C81      1.0000 0.18560  0.26730  0.54364  Biso   1.000  C
  C82      1.0000 0.68560  0.76730  0.54364  Biso   1.000  C
  C83      1.0000 0.81440  0.26730  0.95636  Biso   1.000  C
  C84      1.0000 0.31440  0.76730  0.95636  Biso   1.000  C
  C85      1.0000 0.81440  0.73270  0.45636  Biso   1.000  C
  C86      1.0000 0.31440  0.23270  0.45636  Biso   1.000  C
  C87      1.0000 0.18560  0.73270  0.04364  Biso   1.000  C
  C88      1.0000 0.68560  0.23270  0.04364  Biso   1.000  C
  H41      1.0000 0.14290  0.27830  0.57400  Biso   1.000  H
  H42      1.0000 0.64290  0.77830  0.57400  Biso   1.000  H
  H43      1.0000 0.85710  0.27830  0.92600  Biso   1.000  H
  H44      1.0000 0.35710  0.77830  0.92600  Biso   1.000  H
  H45      1.0000 0.85710  0.72170  0.42600  Biso   1.000  H
  H46      1.0000 0.35710  0.22170  0.42600  Biso   1.000  H
  H47      1.0000 0.14290  0.72170  0.07400  Biso   1.000  H
  H48      1.0000 0.64290  0.22170  0.07400  Biso   1.000  H
  H49      1.0000 0.18090  0.27750  0.39090  Biso   1.000  H
  H50      1.0000 0.68090  0.77750  0.39090  Biso   1.000  H
  H51      1.0000 0.81910  0.27750  0.10910  Biso   1.000  H
  H52      1.0000 0.31910  0.77750  0.10910  Biso   1.000  H
  H53      1.0000 0.81910  0.72250  0.60910  Biso   1.000  H
  H54      1.0000 0.31910  0.22250  0.60910  Biso   1.000  H
  H55      1.0000 0.18090  0.72250  0.89090  Biso   1.000  H
  H56      1.0000 0.68090  0.22250  0.89090  Biso   1.000  H
  C89      1.0000 0.20870  0.26660  0.43541  Biso   1.000  C
  C90      1.0000 0.70870  0.76660  0.43541  Biso   1.000  C
  C91      1.0000 0.79130  0.26660  0.06459  Biso   1.000  C
  C92      1.0000 0.29130  0.76660  0.06459  Biso   1.000  C
  C93      1.0000 0.79130  0.73340  0.56459  Biso   1.000  C
  C94      1.0000 0.29130  0.23340  0.56459  Biso   1.000  C
  C95      1.0000 0.20870  0.73340  0.93541  Biso   1.000  C
  C96      1.0000 0.70870  0.23340  0.93541  Biso   1.000  C
  C97      1.0000 0.56750  0.23330  0.22285  Biso   1.000  C
  C98      1.0000 0.06750  0.73330  0.22285  Biso   1.000  C
  C99      1.0000 0.43250  0.23330  0.27715  Biso   1.000  C
  C100     1.0000 0.93250  0.73330  0.27715  Biso   1.000  C
  C101     1.0000 0.43250  0.76670  0.77715  Biso   1.000  C
  C102     1.0000 0.93250  0.26670  0.77715  Biso   1.000  C
  C103     1.0000 0.56750  0.76670  0.72285  Biso   1.000  C
  C104     1.0000 0.06750  0.26670  0.72285  Biso   1.000  C
  H57      1.0000 0.61470  0.27590  0.20300  Biso   1.000  H
  H58      1.0000 0.11470  0.77590  0.20300  Biso   1.000  H
  H59      1.0000 0.38530  0.27590  0.29700  Biso   1.000  H
  H60      1.0000 0.88530  0.77590  0.29700  Biso   1.000  H
  H61      1.0000 0.38530  0.72410  0.79700  Biso   1.000  H
  H62      1.0000 0.88530  0.22410  0.79700  Biso   1.000  H
  H63      1.0000 0.61470  0.72410  0.70300  Biso   1.000  H
  H64      1.0000 0.11470  0.22410  0.70300  Biso   1.000  H
  C105     1.0000 0.57140  0.10890  0.22256  Biso   1.000  C
  C106     1.0000 0.07140  0.60890  0.22256  Biso   1.000  C
  C107     1.0000 0.42860  0.10890  0.27744  Biso   1.000  C
  C108     1.0000 0.92860  0.60890  0.27744  Biso   1.000  C
  C109     1.0000 0.42860  0.89110  0.77744  Biso   1.000  C
  C110     1.0000 0.92860  0.39110  0.77744  Biso   1.000  C
  C111     1.0000 0.57140  0.89110  0.72256  Biso   1.000  C
  C112     1.0000 0.07140  0.39110  0.72256  Biso   1.000  C
  H65      1.0000 0.62150  0.06880  0.20410  Biso   1.000  H
  H66      1.0000 0.12150  0.56880  0.20410  Biso   1.000  H
  H67      1.0000 0.37850  0.06880  0.29590  Biso   1.000  H
  H68      1.0000 0.87850  0.56880  0.29590  Biso   1.000  H
  H69      1.0000 0.37850  0.93120  0.79590  Biso   1.000  H
  H70      1.0000 0.87850  0.43120  0.79590  Biso   1.000  H
  H71      1.0000 0.62150  0.93120  0.70410  Biso   1.000  H
  H72      1.0000 0.12150  0.43120  0.70410  Biso   1.000  H
  C113     1.0000 0.50000  0.04380  0.25000  Biso   1.000  C
  C114     1.0000 0.00000  0.54380  0.25000  Biso   1.000  C
  C115     1.0000 0.50000  0.95620  0.75000  Biso   1.000  C
  C116     1.0000 1.00000  0.45620  0.75000  Biso   1.000  C
  C117     1.0000 0.50000  0.90880  0.25000  Biso   1.000  C
  C118     1.0000 0.00000  0.40880  0.25000  Biso   1.000  C
  C119     1.0000 0.50000  0.09120  0.75000  Biso   1.000  C
  C120     1.0000 1.00000  0.59120  0.75000  Biso   1.000  C
  C121     1.0000 0.58924  0.84380  0.24429  Biso   1.000  C
  C122     1.0000 0.08924  0.34380  0.24429  Biso   1.000  C
  C123     1.0000 0.41076  0.84380  0.25571  Biso   1.000  C
  C124     1.0000 0.91076  0.34380  0.25571  Biso   1.000  C
  C125     1.0000 0.41076  0.15620  0.75571  Biso   1.000  C
  C126     1.0000 0.91076  0.65620  0.75571  Biso   1.000  C
  C127     1.0000 0.58924  0.15620  0.74429  Biso   1.000  C
  C128     1.0000 0.08924  0.65620  0.74429  Biso   1.000  C
  H73      1.0000 0.65100  0.88410  0.24030  Biso   1.000  H
  H74      1.0000 0.15100  0.38410  0.24030  Biso   1.000  H
  H75      1.0000 0.34900  0.88410  0.25970  Biso   1.000  H
  H76      1.0000 0.84900  0.38410  0.25970  Biso   1.000  H
  H77      1.0000 0.34900  0.11590  0.75970  Biso   1.000  H
  H78      1.0000 0.84900  0.61590  0.75970  Biso   1.000  H
  H79      1.0000 0.65100  0.11590  0.74030  Biso   1.000  H
  H80      1.0000 0.15100  0.61590  0.74030  Biso   1.000  H
  C129     1.0000 0.58621  0.71930  0.24461  Biso   1.000  C
  C130     1.0000 0.08621  0.21930  0.24461  Biso   1.000  C
  C131     1.0000 0.41379  0.71930  0.25539  Biso   1.000  C
  C132     1.0000 0.91379  0.21930  0.25539  Biso   1.000  C
  C133     1.0000 0.41379  0.28070  0.75539  Biso   1.000  C
  C134     1.0000 0.91379  0.78070  0.75539  Biso   1.000  C
  C135     1.0000 0.58621  0.28070  0.74461  Biso   1.000  C
  C136     1.0000 0.08621  0.78070  0.74461  Biso   1.000  C
  H81      1.0000 0.64710  0.67680  0.24090  Biso   1.000  H
  H82      1.0000 0.14710  0.17680  0.24090  Biso   1.000  H
  H83      1.0000 0.35290  0.67680  0.25910  Biso   1.000  H
  H84      1.0000 0.85290  0.17680  0.25910  Biso   1.000  H
  H85      1.0000 0.35290  0.32320  0.75910  Biso   1.000  H
  H86      1.0000 0.85290  0.82320  0.75910  Biso   1.000  H
  H87      1.0000 0.64710  0.32320  0.74090  Biso   1.000  H
  H88      1.0000 0.14710  0.82320  0.74090  Biso   1.000  H
  Cu1      1.0000 0.50000  0.47714  0.25000  Biso   1.000  Cu
  Cu2      1.0000 0.00000  0.97714  0.25000  Biso   1.000  Cu
  Cu3      1.0000 0.50000  0.52286  0.75000  Biso   1.000  Cu
  Cu4      1.0000 1.00000  0.02286  0.75000  Biso   1.000  Cu
  N1       1.0000 0.50000  0.29610  0.25000  Biso   1.000  N
  N2       1.0000 0.00000  0.79610  0.25000  Biso   1.000  N
  N3       1.0000 0.50000  0.70390  0.75000  Biso   1.000  N
  N4       1.0000 1.00000  0.20390  0.75000  Biso   1.000  N
  N5       1.0000 0.50000  0.65640  0.25000  Biso   1.000  N
  N6       1.0000 0.00000  0.15640  0.25000  Biso   1.000  N
  N7       1.0000 0.50000  0.34360  0.75000  Biso   1.000  N
  N8       1.0000 1.00000  0.84360  0.75000  Biso   1.000  N
  O1       1.0000 0.55115  0.47357  0.34488  Biso   1.000  O
  O2       1.0000 0.05115  0.97357  0.34488  Biso   1.000  O
  O3       1.0000 0.44885  0.47357  0.15512  Biso   1.000  O
  O4       1.0000 0.94885  0.97357  0.15512  Biso   1.000  O
  O5       1.0000 0.44885  0.52643  0.65512  Biso   1.000  O
  O6       1.0000 0.94885  0.02643  0.65512  Biso   1.000  O
  O7       1.0000 0.55115  0.52643  0.84488  Biso   1.000  O
  O8       1.0000 0.05115  0.02643  0.84488  Biso   1.000  O
  O9       1.0000 0.69659  0.46008  0.30576  Biso   1.000  O
  O10      1.0000 0.19659  0.96008  0.30576  Biso   1.000  O
  O11      1.0000 0.30341  0.46008  0.19424  Biso   1.000  O
  O12      1.0000 0.80341  0.96008  0.19424  Biso   1.000  O
  O13      1.0000 0.30341  0.53992  0.69424  Biso   1.000  O
  O14      1.0000 0.80341  0.03992  0.69424  Biso   1.000  O
  O15      1.0000 0.69659  0.53992  0.80576  Biso   1.000  O
  O16      1.0000 0.19659  0.03992  0.80576  Biso   1.000  O
  O17      1.0000 0.57754  0.46797  0.57782  Biso   1.000  O
  O18      1.0000 0.07754  0.96797  0.57782  Biso   1.000  O
  O19      1.0000 0.42246  0.46797  0.92218  Biso   1.000  O
  O20      1.0000 0.92246  0.96797  0.92218  Biso   1.000  O
  O21      1.0000 0.42246  0.53203  0.42218  Biso   1.000  O
  O22      1.0000 0.92246  0.03203  0.42218  Biso   1.000  O
  O23      1.0000 0.57754  0.53203  0.07782  Biso   1.000  O
  O24      1.0000 0.07754  0.03203  0.07782  Biso   1.000  O
  H89      1.0000 0.55300  0.50000  0.61490  Biso   1.000  H
  H90      1.0000 0.05300  0.00000  0.61490  Biso   1.000  H
  H91      1.0000 0.44700  0.50000  0.88510  Biso   1.000  H
  H92      1.0000 0.94700  0.00000  0.88510  Biso   1.000  H
  H93      1.0000 0.44700  0.50000  0.38510  Biso   1.000  H
  H94      1.0000 0.94700  0.00000  0.38510  Biso   1.000  H
  H95      1.0000 0.55300  0.50000  0.11490  Biso   1.000  H
  H96      1.0000 0.05300  0.00000  0.11490  Biso   1.000  H
  O25      1.0000 0.72519  0.44463  0.65001  Biso   1.000  O
  O26      1.0000 0.22519  0.94463  0.65001  Biso   1.000  O
  O27      1.0000 0.27481  0.44463  0.84999  Biso   1.000  O
  O28      1.0000 0.77481  0.94463  0.84999  Biso   1.000  O
  O29      1.0000 0.27481  0.55537  0.34999  Biso   1.000  O
  O30      1.0000 0.77481  0.05537  0.34999  Biso   1.000  O
  O31      1.0000 0.72519  0.55537  0.15001  Biso   1.000  O
  O32      1.0000 0.22519  0.05537  0.15001  Biso   1.000  O
  O33      1.0000 0.98169  0.33990  0.50600  Biso   1.000  O
  O34      1.0000 0.48169  0.83990  0.50600  Biso   1.000  O
  O35      1.0000 0.01831  0.33990  0.99400  Biso   1.000  O
  O36      1.0000 0.51831  0.83990  0.99400  Biso   1.000  O
  O37      1.0000 0.01831  0.66010  0.49400  Biso   1.000  O
  O38      1.0000 0.51831  0.16010  0.49400  Biso   1.000  O
  O39      1.0000 0.98169  0.66010  0.00600  Biso   1.000  O
  O40      1.0000 0.48169  0.16010  0.00600  Biso   1.000  O
