data_image0
_cell_length_a       22.9549
_cell_length_b       12.2443
_cell_length_c       17.8687
_cell_angle_alpha    90
_cell_angle_beta     110.873
_cell_angle_gamma    90

_symmetry_space_group_name_H-M    "P 1"
_symmetry_int_tables_number       1

loop_
  _symmetry_equiv_pos_as_xyz
  'x, y, z'

loop_
  _atom_site_label
  _atom_site_occupancy
  _atom_site_fract_x
  _atom_site_fract_y
  _atom_site_fract_z
  _atom_site_thermal_displace_type
  _atom_site_B_iso_or_equiv
  _atom_site_type_symbol
  Cu1      1.0000 0.32419  0.20681  0.21007  Biso   1.000  Cu
  Cu2      1.0000 0.82419  0.70681  0.21007  Biso   1.000  Cu
  Cu3      1.0000 0.67581  0.20681  0.28993  Biso   1.000  Cu
  Cu4      1.0000 0.17581  0.70681  0.28993  Biso   1.000  Cu
  Cu5      1.0000 0.67581  0.79319  0.78993  Biso   1.000  Cu
  Cu6      1.0000 0.17581  0.29319  0.78993  Biso   1.000  Cu
  Cu7      1.0000 0.32419  0.79319  0.71007  Biso   1.000  Cu
  Cu8      1.0000 0.82419  0.29319  0.71007  Biso   1.000  Cu
  S1       1.0000 0.07524  0.19873  0.46694  Biso   1.000  S
  S2       1.0000 0.57524  0.69873  0.46694  Biso   1.000  S
  S3       1.0000 0.92476  0.19873  0.03306  Biso   1.000  S
  S4       1.0000 0.42476  0.69873  0.03306  Biso   1.000  S
  S5       1.0000 0.92476  0.80127  0.53306  Biso   1.000  S
  S6       1.0000 0.42476  0.30127  0.53306  Biso   1.000  S
  S7       1.0000 0.07524  0.80127  0.96694  Biso   1.000  S
  S8       1.0000 0.57524  0.30127  0.96694  Biso   1.000  S
  O1       1.0000 0.26746  0.17840  0.26510  Biso   1.000  O
  O2       1.0000 0.76746  0.67840  0.26510  Biso   1.000  O
  O3       1.0000 0.73254  0.17840  0.23490  Biso   1.000  O
  O4       1.0000 0.23254  0.67840  0.23490  Biso   1.000  O
  O5       1.0000 0.73254  0.82160  0.73490  Biso   1.000  O
  O6       1.0000 0.23254  0.32160  0.73490  Biso   1.000  O
  O7       1.0000 0.26746  0.82160  0.76510  Biso   1.000  O
  O8       1.0000 0.76746  0.32160  0.76510  Biso   1.000  O
  O9       1.0000 0.22480  0.01470  0.22830  Biso   1.000  O
  O10      1.0000 0.72480  0.51470  0.22830  Biso   1.000  O
  O11      1.0000 0.77520  0.01470  0.27170  Biso   1.000  O
  O12      1.0000 0.27520  0.51470  0.27170  Biso   1.000  O
  O13      1.0000 0.77520  0.98530  0.77170  Biso   1.000  O
  O14      1.0000 0.27520  0.48530  0.77170  Biso   1.000  O
  O15      1.0000 0.22480  0.98530  0.72830  Biso   1.000  O
  O16      1.0000 0.72480  0.48530  0.72830  Biso   1.000  O
  O17      1.0000 0.88819  0.60950  0.27680  Biso   1.000  O
  O18      1.0000 0.38819  0.10950  0.27680  Biso   1.000  O
  O19      1.0000 0.11181  0.60950  0.22320  Biso   1.000  O
  O20      1.0000 0.61181  0.10950  0.22320  Biso   1.000  O
  O21      1.0000 0.11181  0.39050  0.72320  Biso   1.000  O
  O22      1.0000 0.61181  0.89050  0.72320  Biso   1.000  O
  O23      1.0000 0.88819  0.39050  0.77680  Biso   1.000  O
  O24      1.0000 0.38819  0.89050  0.77680  Biso   1.000  O
  O25      1.0000 0.86060  0.48530  0.17970  Biso   1.000  O
  O26      1.0000 0.36060  0.98530  0.17970  Biso   1.000  O
  O27      1.0000 0.13940  0.48530  0.32030  Biso   1.000  O
  O28      1.0000 0.63940  0.98530  0.32030  Biso   1.000  O
  O29      1.0000 0.13940  0.51470  0.82030  Biso   1.000  O
  O30      1.0000 0.63940  0.01470  0.82030  Biso   1.000  O
  O31      1.0000 0.86060  0.51470  0.67970  Biso   1.000  O
  O32      1.0000 0.36060  0.01470  0.67970  Biso   1.000  O
  O33      1.0000 0.11239  0.25630  0.53830  Biso   1.000  O
  O34      1.0000 0.61239  0.75630  0.53830  Biso   1.000  O
  O35      1.0000 0.88761  0.25630  0.96170  Biso   1.000  O
  O36      1.0000 0.38761  0.75630  0.96170  Biso   1.000  O
  O37      1.0000 0.88761  0.74370  0.46170  Biso   1.000  O
  O38      1.0000 0.38761  0.24370  0.46170  Biso   1.000  O
  O39      1.0000 0.11239  0.74370  0.03830  Biso   1.000  O
  O40      1.0000 0.61239  0.24370  0.03830  Biso   1.000  O
  O41      1.0000 0.04323  0.10080  0.47410  Biso   1.000  O
  O42      1.0000 0.54323  0.60080  0.47410  Biso   1.000  O
  O43      1.0000 0.95677  0.10080  0.02590  Biso   1.000  O
  O44      1.0000 0.45677  0.60080  0.02590  Biso   1.000  O
  O45      1.0000 0.95677  0.89920  0.52590  Biso   1.000  O
  O46      1.0000 0.45677  0.39920  0.52590  Biso   1.000  O
  O47      1.0000 0.04323  0.89920  0.97410  Biso   1.000  O
  O48      1.0000 0.54323  0.39920  0.97410  Biso   1.000  O
  O49      1.0000 0.36142  0.34630  0.30440  Biso   1.000  O
  O50      1.0000 0.86142  0.84630  0.30440  Biso   1.000  O
  O51      1.0000 0.63858  0.34630  0.19560  Biso   1.000  O
  O52      1.0000 0.13858  0.84630  0.19560  Biso   1.000  O
  O53      1.0000 0.63858  0.65370  0.69560  Biso   1.000  O
  O54      1.0000 0.13858  0.15370  0.69560  Biso   1.000  O
  O55      1.0000 0.36142  0.65370  0.80440  Biso   1.000  O
  O56      1.0000 0.86142  0.15370  0.80440  Biso   1.000  O
  N1       1.0000 0.26095  0.30790  0.13180  Biso   1.000  N
  N2       1.0000 0.76095  0.80790  0.13180  Biso   1.000  N
  N3       1.0000 0.73905  0.30790  0.36820  Biso   1.000  N
  N4       1.0000 0.23905  0.80790  0.36820  Biso   1.000  N
  N5       1.0000 0.73905  0.69210  0.86820  Biso   1.000  N
  N6       1.0000 0.23905  0.19210  0.86820  Biso   1.000  N
  N7       1.0000 0.26095  0.69210  0.63180  Biso   1.000  N
  N8       1.0000 0.76095  0.19210  0.63180  Biso   1.000  N
  N9       1.0000 0.37340  0.24860  0.14080  Biso   1.000  N
  N10      1.0000 0.87340  0.74860  0.14080  Biso   1.000  N
  N11      1.0000 0.62660  0.24860  0.35920  Biso   1.000  N
  N12      1.0000 0.12660  0.74860  0.35920  Biso   1.000  N
  N13      1.0000 0.62660  0.75140  0.85920  Biso   1.000  N
  N14      1.0000 0.12660  0.25140  0.85920  Biso   1.000  N
  N15      1.0000 0.37340  0.75140  0.64080  Biso   1.000  N
  N16      1.0000 0.87340  0.25140  0.64080  Biso   1.000  N
  C1       1.0000 0.23160  0.10090  0.26610  Biso   1.000  C
  C2       1.0000 0.73160  0.60090  0.26610  Biso   1.000  C
  C3       1.0000 0.76840  0.10090  0.23390  Biso   1.000  C
  C4       1.0000 0.26840  0.60090  0.23390  Biso   1.000  C
  C5       1.0000 0.76840  0.89910  0.73390  Biso   1.000  C
  C6       1.0000 0.26840  0.39910  0.73390  Biso   1.000  C
  C7       1.0000 0.23160  0.89910  0.76610  Biso   1.000  C
  C8       1.0000 0.73160  0.39910  0.76610  Biso   1.000  C
  C9       1.0000 0.19410  0.12230  0.31910  Biso   1.000  C
  C10      1.0000 0.69410  0.62230  0.31910  Biso   1.000  C
  C11      1.0000 0.80590  0.12230  0.18090  Biso   1.000  C
  C12      1.0000 0.30590  0.62230  0.18090  Biso   1.000  C
  C13      1.0000 0.80590  0.87770  0.68090  Biso   1.000  C
  C14      1.0000 0.30590  0.37770  0.68090  Biso   1.000  C
  C15      1.0000 0.19410  0.87770  0.81910  Biso   1.000  C
  C16      1.0000 0.69410  0.37770  0.81910  Biso   1.000  C
  C17      1.0000 0.14150  0.06050  0.31070  Biso   1.000  C
  C18      1.0000 0.64150  0.56050  0.31070  Biso   1.000  C
  C19      1.0000 0.85850  0.06050  0.18930  Biso   1.000  C
  C20      1.0000 0.35850  0.56050  0.18930  Biso   1.000  C
  C21      1.0000 0.85850  0.93950  0.68930  Biso   1.000  C
  C22      1.0000 0.35850  0.43950  0.68930  Biso   1.000  C
  C23      1.0000 0.14150  0.93950  0.81070  Biso   1.000  C
  C24      1.0000 0.64150  0.43950  0.81070  Biso   1.000  C
  H1       1.0000 0.13030  0.00350  0.27390  Biso   1.000  H
  H2       1.0000 0.63030  0.50350  0.27390  Biso   1.000  H
  H3       1.0000 0.86970  0.00350  0.22610  Biso   1.000  H
  H4       1.0000 0.36970  0.50350  0.22610  Biso   1.000  H
  H5       1.0000 0.86970  0.99650  0.72610  Biso   1.000  H
  H6       1.0000 0.36970  0.49650  0.72610  Biso   1.000  H
  H7       1.0000 0.13030  0.99650  0.77390  Biso   1.000  H
  H8       1.0000 0.63030  0.49650  0.77390  Biso   1.000  H
  C25      1.0000 0.10550  0.08280  0.35620  Biso   1.000  C
  C26      1.0000 0.60550  0.58280  0.35620  Biso   1.000  C
  C27      1.0000 0.89450  0.08280  0.14380  Biso   1.000  C
  C28      1.0000 0.39450  0.58280  0.14380  Biso   1.000  C
  C29      1.0000 0.89450  0.91720  0.64380  Biso   1.000  C
  C30      1.0000 0.39450  0.41720  0.64380  Biso   1.000  C
  C31      1.0000 0.10550  0.91720  0.85620  Biso   1.000  C
  C32      1.0000 0.60550  0.41720  0.85620  Biso   1.000  C
  H9       1.0000 0.07020  0.04120  0.35030  Biso   1.000  H
  H10      1.0000 0.57020  0.54120  0.35030  Biso   1.000  H
  H11      1.0000 0.92980  0.04120  0.14970  Biso   1.000  H
  H12      1.0000 0.42980  0.54120  0.14970  Biso   1.000  H
  H13      1.0000 0.92980  0.95880  0.64970  Biso   1.000  H
  H14      1.0000 0.42980  0.45880  0.64970  Biso   1.000  H
  H15      1.0000 0.07020  0.95880  0.85030  Biso   1.000  H
  H16      1.0000 0.57020  0.45880  0.85030  Biso   1.000  H
  C33      1.0000 0.12230  0.16760  0.41080  Biso   1.000  C
  C34      1.0000 0.62230  0.66760  0.41080  Biso   1.000  C
  C35      1.0000 0.87770  0.16760  0.08920  Biso   1.000  C
  C36      1.0000 0.37770  0.66760  0.08920  Biso   1.000  C
  C37      1.0000 0.87770  0.83240  0.58920  Biso   1.000  C
  C38      1.0000 0.37770  0.33240  0.58920  Biso   1.000  C
  C39      1.0000 0.12230  0.83240  0.91080  Biso   1.000  C
  C40      1.0000 0.62230  0.33240  0.91080  Biso   1.000  C
  C41      1.0000 0.17520  0.23080  0.42060  Biso   1.000  C
  C42      1.0000 0.67520  0.73080  0.42060  Biso   1.000  C
  C43      1.0000 0.82480  0.23080  0.07940  Biso   1.000  C
  C44      1.0000 0.32480  0.73080  0.07940  Biso   1.000  C
  C45      1.0000 0.82480  0.76920  0.57940  Biso   1.000  C
  C46      1.0000 0.32480  0.26920  0.57940  Biso   1.000  C
  C47      1.0000 0.17520  0.76920  0.92060  Biso   1.000  C
  C48      1.0000 0.67520  0.26920  0.92060  Biso   1.000  C
  H17      1.0000 0.18640  0.28760  0.45750  Biso   1.000  H
  H18      1.0000 0.68640  0.78760  0.45750  Biso   1.000  H
  H19      1.0000 0.81360  0.28760  0.04250  Biso   1.000  H
  H20      1.0000 0.31360  0.78760  0.04250  Biso   1.000  H
  H21      1.0000 0.81360  0.71240  0.54250  Biso   1.000  H
  H22      1.0000 0.31360  0.21240  0.54250  Biso   1.000  H
  H23      1.0000 0.18640  0.71240  0.95750  Biso   1.000  H
  H24      1.0000 0.68640  0.21240  0.95750  Biso   1.000  H
  C49      1.0000 0.21060  0.20710  0.37410  Biso   1.000  C
  C50      1.0000 0.71060  0.70710  0.37410  Biso   1.000  C
  C51      1.0000 0.78940  0.20710  0.12590  Biso   1.000  C
  C52      1.0000 0.28940  0.70710  0.12590  Biso   1.000  C
  C53      1.0000 0.78940  0.79290  0.62590  Biso   1.000  C
  C54      1.0000 0.28940  0.29290  0.62590  Biso   1.000  C
  C55      1.0000 0.21060  0.79290  0.87410  Biso   1.000  C
  C56      1.0000 0.71060  0.29290  0.87410  Biso   1.000  C
  H25      1.0000 0.24590  0.24850  0.37990  Biso   1.000  H
  H26      1.0000 0.74590  0.74850  0.37990  Biso   1.000  H
  H27      1.0000 0.75410  0.24850  0.12010  Biso   1.000  H
  H28      1.0000 0.25410  0.74850  0.12010  Biso   1.000  H
  H29      1.0000 0.75410  0.75150  0.62010  Biso   1.000  H
  H30      1.0000 0.25410  0.25150  0.62010  Biso   1.000  H
  H31      1.0000 0.24590  0.75150  0.87990  Biso   1.000  H
  H32      1.0000 0.74590  0.25150  0.87990  Biso   1.000  H
  C57      1.0000 0.01970  0.29250  0.40550  Biso   1.000  C
  C58      1.0000 0.51970  0.79250  0.40550  Biso   1.000  C
  C59      1.0000 0.98030  0.29250  0.09450  Biso   1.000  C
  C60      1.0000 0.48030  0.79250  0.09450  Biso   1.000  C
  C61      1.0000 0.98030  0.70750  0.59450  Biso   1.000  C
  C62      1.0000 0.48030  0.20750  0.59450  Biso   1.000  C
  C63      1.0000 0.01970  0.70750  0.90550  Biso   1.000  C
  C64      1.0000 0.51970  0.20750  0.90550  Biso   1.000  C
  C65      1.0000 0.97360  0.25350  0.33700  Biso   1.000  C
  C66      1.0000 0.47360  0.75350  0.33700  Biso   1.000  C
  C67      1.0000 0.02640  0.25350  0.16300  Biso   1.000  C
  C68      1.0000 0.52640  0.75350  0.16300  Biso   1.000  C
  C69      1.0000 0.02640  0.74650  0.66300  Biso   1.000  C
  C70      1.0000 0.52640  0.24650  0.66300  Biso   1.000  C
  C71      1.0000 0.97360  0.74650  0.83700  Biso   1.000  C
  C72      1.0000 0.47360  0.24650  0.83700  Biso   1.000  C
  H33      1.0000 0.97070  0.17930  0.32510  Biso   1.000  H
  H34      1.0000 0.47070  0.67930  0.32510  Biso   1.000  H
  H35      1.0000 0.02930  0.17930  0.17490  Biso   1.000  H
  H36      1.0000 0.52930  0.67930  0.17490  Biso   1.000  H
  H37      1.0000 0.02930  0.82070  0.67490  Biso   1.000  H
  H38      1.0000 0.52930  0.32070  0.67490  Biso   1.000  H
  H39      1.0000 0.97070  0.82070  0.82510  Biso   1.000  H
  H40      1.0000 0.47070  0.32070  0.82510  Biso   1.000  H
  C73      1.0000 0.93240  0.32630  0.28680  Biso   1.000  C
  C74      1.0000 0.43240  0.82630  0.28680  Biso   1.000  C
  C75      1.0000 0.06760  0.32630  0.21320  Biso   1.000  C
  C76      1.0000 0.56760  0.82630  0.21320  Biso   1.000  C
  C77      1.0000 0.06760  0.67370  0.71320  Biso   1.000  C
  C78      1.0000 0.56760  0.17370  0.71320  Biso   1.000  C
  C79      1.0000 0.93240  0.67370  0.78680  Biso   1.000  C
  C80      1.0000 0.43240  0.17370  0.78680  Biso   1.000  C
  H41      1.0000 0.90180  0.30130  0.24010  Biso   1.000  H
  H42      1.0000 0.40180  0.80130  0.24010  Biso   1.000  H
  H43      1.0000 0.09820  0.30130  0.25990  Biso   1.000  H
  H44      1.0000 0.59820  0.80130  0.25990  Biso   1.000  H
  H45      1.0000 0.09820  0.69870  0.75990  Biso   1.000  H
  H46      1.0000 0.59820  0.19870  0.75990  Biso   1.000  H
  H47      1.0000 0.90180  0.69870  0.74010  Biso   1.000  H
  H48      1.0000 0.40180  0.19870  0.74010  Biso   1.000  H
  C81      1.0000 0.93600  0.43680  0.30530  Biso   1.000  C
  C82      1.0000 0.43600  0.93680  0.30530  Biso   1.000  C
  C83      1.0000 0.06400  0.43680  0.19470  Biso   1.000  C
  C84      1.0000 0.56400  0.93680  0.19470  Biso   1.000  C
  C85      1.0000 0.06400  0.56320  0.69470  Biso   1.000  C
  C86      1.0000 0.56400  0.06320  0.69470  Biso   1.000  C
  C87      1.0000 0.93600  0.56320  0.80530  Biso   1.000  C
  C88      1.0000 0.43600  0.06320  0.80530  Biso   1.000  C
  C89      1.0000 0.98050  0.47200  0.37560  Biso   1.000  C
  C90      1.0000 0.48050  0.97200  0.37560  Biso   1.000  C
  C91      1.0000 0.01950  0.47200  0.12440  Biso   1.000  C
  C92      1.0000 0.51950  0.97200  0.12440  Biso   1.000  C
  C93      1.0000 0.01950  0.52800  0.62440  Biso   1.000  C
  C94      1.0000 0.51950  0.02800  0.62440  Biso   1.000  C
  C95      1.0000 0.98050  0.52800  0.87560  Biso   1.000  C
  C96      1.0000 0.48050  0.02800  0.87560  Biso   1.000  C
  H49      1.0000 0.98160  0.54520  0.38990  Biso   1.000  H
  H50      1.0000 0.48160  0.04520  0.38990  Biso   1.000  H
  H51      1.0000 0.01840  0.54520  0.11010  Biso   1.000  H
  H52      1.0000 0.51840  0.04520  0.11010  Biso   1.000  H
  H53      1.0000 0.01840  0.45480  0.61010  Biso   1.000  H
  H54      1.0000 0.51840  0.95480  0.61010  Biso   1.000  H
  H55      1.0000 0.98160  0.45480  0.88990  Biso   1.000  H
  H56      1.0000 0.48160  0.95480  0.88990  Biso   1.000  H
  C97      1.0000 0.02340  0.40080  0.42520  Biso   1.000  C
  C98      1.0000 0.52340  0.90080  0.42520  Biso   1.000  C
  C99      1.0000 0.97660  0.40080  0.07480  Biso   1.000  C
  C100     1.0000 0.47660  0.90080  0.07480  Biso   1.000  C
  C101     1.0000 0.97660  0.59920  0.57480  Biso   1.000  C
  C102     1.0000 0.47660  0.09920  0.57480  Biso   1.000  C
  C103     1.0000 0.02340  0.59920  0.92520  Biso   1.000  C
  C104     1.0000 0.52340  0.09920  0.92520  Biso   1.000  C
  H57      1.0000 0.05450  0.42600  0.47130  Biso   1.000  H
  H58      1.0000 0.55450  0.92600  0.47130  Biso   1.000  H
  H59      1.0000 0.94550  0.42600  0.02870  Biso   1.000  H
  H60      1.0000 0.44550  0.92600  0.02870  Biso   1.000  H
  H61      1.0000 0.94550  0.57400  0.52870  Biso   1.000  H
  H62      1.0000 0.44550  0.07400  0.52870  Biso   1.000  H
  H63      1.0000 0.05450  0.57400  0.97130  Biso   1.000  H
  H64      1.0000 0.55450  0.07400  0.97130  Biso   1.000  H
  C105     1.0000 0.89020  0.51430  0.24770  Biso   1.000  C
  C106     1.0000 0.39020  0.01430  0.24770  Biso   1.000  C
  C107     1.0000 0.10980  0.51430  0.25230  Biso   1.000  C
  C108     1.0000 0.60980  0.01430  0.25230  Biso   1.000  C
  C109     1.0000 0.10980  0.48570  0.75230  Biso   1.000  C
  C110     1.0000 0.60980  0.98570  0.75230  Biso   1.000  C
  C111     1.0000 0.89020  0.48570  0.74770  Biso   1.000  C
  C112     1.0000 0.39020  0.98570  0.74770  Biso   1.000  C
  C113     1.0000 0.20620  0.34040  0.13160  Biso   1.000  C
  C114     1.0000 0.70620  0.84040  0.13160  Biso   1.000  C
  C115     1.0000 0.79380  0.34040  0.36840  Biso   1.000  C
  C116     1.0000 0.29380  0.84040  0.36840  Biso   1.000  C
  C117     1.0000 0.79380  0.65960  0.86840  Biso   1.000  C
  C118     1.0000 0.29380  0.15960  0.86840  Biso   1.000  C
  C119     1.0000 0.20620  0.65960  0.63160  Biso   1.000  C
  C120     1.0000 0.70620  0.15960  0.63160  Biso   1.000  C
  H65      1.0000 0.19250  0.31590  0.17170  Biso   1.000  H
  H66      1.0000 0.69250  0.81590  0.17170  Biso   1.000  H
  H67      1.0000 0.80750  0.31590  0.32830  Biso   1.000  H
  H68      1.0000 0.30750  0.81590  0.32830  Biso   1.000  H
  H69      1.0000 0.80750  0.68410  0.82830  Biso   1.000  H
  H70      1.0000 0.30750  0.18410  0.82830  Biso   1.000  H
  H71      1.0000 0.19250  0.68410  0.67170  Biso   1.000  H
  H72      1.0000 0.69250  0.18410  0.67170  Biso   1.000  H
  C121     1.0000 0.16790  0.41070  0.07260  Biso   1.000  C
  C122     1.0000 0.66790  0.91070  0.07260  Biso   1.000  C
  C123     1.0000 0.83210  0.41070  0.42740  Biso   1.000  C
  C124     1.0000 0.33210  0.91070  0.42740  Biso   1.000  C
  C125     1.0000 0.83210  0.58930  0.92740  Biso   1.000  C
  C126     1.0000 0.33210  0.08930  0.92740  Biso   1.000  C
  C127     1.0000 0.16790  0.58930  0.57260  Biso   1.000  C
  C128     1.0000 0.66790  0.08930  0.57260  Biso   1.000  C
  H73      1.0000 0.12920  0.43130  0.07370  Biso   1.000  H
  H74      1.0000 0.62920  0.93130  0.07370  Biso   1.000  H
  H75      1.0000 0.87080  0.43130  0.42630  Biso   1.000  H
  H76      1.0000 0.37080  0.93130  0.42630  Biso   1.000  H
  H77      1.0000 0.87080  0.56870  0.92630  Biso   1.000  H
  H78      1.0000 0.37080  0.06870  0.92630  Biso   1.000  H
  H79      1.0000 0.12920  0.56870  0.57370  Biso   1.000  H
  H80      1.0000 0.62920  0.06870  0.57370  Biso   1.000  H
  C129     1.0000 0.18730  0.44890  0.01410  Biso   1.000  C
  C130     1.0000 0.68730  0.94890  0.01410  Biso   1.000  C
  C131     1.0000 0.81270  0.44890  0.48590  Biso   1.000  C
  C132     1.0000 0.31270  0.94890  0.48590  Biso   1.000  C
  C133     1.0000 0.81270  0.55110  0.98590  Biso   1.000  C
  C134     1.0000 0.31270  0.05110  0.98590  Biso   1.000  C
  C135     1.0000 0.18730  0.55110  0.51410  Biso   1.000  C
  C136     1.0000 0.68730  0.05110  0.51410  Biso   1.000  C
  H81      1.0000 0.16180  0.49530  0.97480  Biso   1.000  H
  H82      1.0000 0.66180  0.99530  0.97480  Biso   1.000  H
  H83      1.0000 0.83820  0.49530  0.52520  Biso   1.000  H
  H84      1.0000 0.33820  0.99530  0.52520  Biso   1.000  H
  H85      1.0000 0.83820  0.50470  0.02520  Biso   1.000  H
  H86      1.0000 0.33820  0.00470  0.02520  Biso   1.000  H
  H87      1.0000 0.16180  0.50470  0.47480  Biso   1.000  H
  H88      1.0000 0.66180  0.00470  0.47480  Biso   1.000  H
  C137     1.0000 0.24540  0.41830  0.01300  Biso   1.000  C
  C138     1.0000 0.74540  0.91830  0.01300  Biso   1.000  C
  C139     1.0000 0.75460  0.41830  0.48700  Biso   1.000  C
  C140     1.0000 0.25460  0.91830  0.48700  Biso   1.000  C
  C141     1.0000 0.75460  0.58170  0.98700  Biso   1.000  C
  C142     1.0000 0.25460  0.08170  0.98700  Biso   1.000  C
  C143     1.0000 0.24540  0.58170  0.51300  Biso   1.000  C
  C144     1.0000 0.74540  0.08170  0.51300  Biso   1.000  C
  C145     1.0000 0.28090  0.34820  0.07390  Biso   1.000  C
  C146     1.0000 0.78090  0.84820  0.07390  Biso   1.000  C
  C147     1.0000 0.71910  0.34820  0.42610  Biso   1.000  C
  C148     1.0000 0.21910  0.84820  0.42610  Biso   1.000  C
  C149     1.0000 0.71910  0.65180  0.92610  Biso   1.000  C
  C150     1.0000 0.21910  0.15180  0.92610  Biso   1.000  C
  C151     1.0000 0.28090  0.65180  0.57390  Biso   1.000  C
  C152     1.0000 0.78090  0.15180  0.57390  Biso   1.000  C
  C153     1.0000 0.34210  0.31640  0.07930  Biso   1.000  C
  C154     1.0000 0.84210  0.81640  0.07930  Biso   1.000  C
  C155     1.0000 0.65790  0.31640  0.42070  Biso   1.000  C
  C156     1.0000 0.15790  0.81640  0.42070  Biso   1.000  C
  C157     1.0000 0.65790  0.68360  0.92070  Biso   1.000  C
  C158     1.0000 0.15790  0.18360  0.92070  Biso   1.000  C
  C159     1.0000 0.34210  0.68360  0.57930  Biso   1.000  C
  C160     1.0000 0.84210  0.18360  0.57930  Biso   1.000  C
  C161     1.0000 0.36730  0.35720  0.02420  Biso   1.000  C
  C162     1.0000 0.86730  0.85720  0.02420  Biso   1.000  C
  C163     1.0000 0.63270  0.35720  0.47580  Biso   1.000  C
  C164     1.0000 0.13270  0.85720  0.47580  Biso   1.000  C
  C165     1.0000 0.63270  0.64280  0.97580  Biso   1.000  C
  C166     1.0000 0.13270  0.14280  0.97580  Biso   1.000  C
  C167     1.0000 0.36730  0.64280  0.52420  Biso   1.000  C
  C168     1.0000 0.86730  0.14280  0.52420  Biso   1.000  C
  C169     1.0000 0.32960  0.42640  0.96150  Biso   1.000  C
  C170     1.0000 0.82960  0.92640  0.96150  Biso   1.000  C
  C171     1.0000 0.67040  0.42640  0.53850  Biso   1.000  C
  C172     1.0000 0.17040  0.92640  0.53850  Biso   1.000  C
  C173     1.0000 0.67040  0.57360  0.03850  Biso   1.000  C
  C174     1.0000 0.17040  0.07360  0.03850  Biso   1.000  C
  C175     1.0000 0.32960  0.57360  0.46150  Biso   1.000  C
  C176     1.0000 0.82960  0.07360  0.46150  Biso   1.000  C
  H89      1.0000 0.34550  0.45240  0.92370  Biso   1.000  H
  H90      1.0000 0.84550  0.95240  0.92370  Biso   1.000  H
  H91      1.0000 0.65450  0.45240  0.57630  Biso   1.000  H
  H92      1.0000 0.15450  0.95240  0.57630  Biso   1.000  H
  H93      1.0000 0.65450  0.54760  0.07630  Biso   1.000  H
  H94      1.0000 0.15450  0.04760  0.07630  Biso   1.000  H
  H95      1.0000 0.34550  0.54760  0.42370  Biso   1.000  H
  H96      1.0000 0.84550  0.04760  0.42370  Biso   1.000  H
  C177     1.0000 0.27150  0.45500  0.95580  Biso   1.000  C
  C178     1.0000 0.77150  0.95500  0.95580  Biso   1.000  C
  C179     1.0000 0.72850  0.45500  0.54420  Biso   1.000  C
  C180     1.0000 0.22850  0.95500  0.54420  Biso   1.000  C
  C181     1.0000 0.72850  0.54500  0.04420  Biso   1.000  C
  C182     1.0000 0.22850  0.04500  0.04420  Biso   1.000  C
  C183     1.0000 0.27150  0.54500  0.45580  Biso   1.000  C
  C184     1.0000 0.77150  0.04500  0.45580  Biso   1.000  C
  H97      1.0000 0.24790  0.49950  0.91380  Biso   1.000  H
  H98      1.0000 0.74790  0.99950  0.91380  Biso   1.000  H
  H99      1.0000 0.75210  0.49950  0.58620  Biso   1.000  H
  H100     1.0000 0.25210  0.99950  0.58620  Biso   1.000  H
  H101     1.0000 0.75210  0.50050  0.08620  Biso   1.000  H
  H102     1.0000 0.25210  0.00050  0.08620  Biso   1.000  H
  H103     1.0000 0.24790  0.50050  0.41380  Biso   1.000  H
  H104     1.0000 0.74790  0.00050  0.41380  Biso   1.000  H
  C185     1.0000 0.42890  0.32950  0.03710  Biso   1.000  C
  C186     1.0000 0.92890  0.82950  0.03710  Biso   1.000  C
  C187     1.0000 0.57110  0.32950  0.46290  Biso   1.000  C
  C188     1.0000 0.07110  0.82950  0.46290  Biso   1.000  C
  C189     1.0000 0.57110  0.67050  0.96290  Biso   1.000  C
  C190     1.0000 0.07110  0.17050  0.96290  Biso   1.000  C
  C191     1.0000 0.42890  0.67050  0.53710  Biso   1.000  C
  C192     1.0000 0.92890  0.17050  0.53710  Biso   1.000  C
  H105     1.0000 0.44820  0.35650  0.00310  Biso   1.000  H
  H106     1.0000 0.94820  0.85650  0.00310  Biso   1.000  H
  H107     1.0000 0.55180  0.35650  0.49690  Biso   1.000  H
  H108     1.0000 0.05180  0.85650  0.49690  Biso   1.000  H
  H109     1.0000 0.55180  0.64350  0.99690  Biso   1.000  H
  H110     1.0000 0.05180  0.14350  0.99690  Biso   1.000  H
  H111     1.0000 0.44820  0.64350  0.50310  Biso   1.000  H
  H112     1.0000 0.94820  0.14350  0.50310  Biso   1.000  H
  C193     1.0000 0.46120  0.26320  0.09930  Biso   1.000  C
  C194     1.0000 0.96120  0.76320  0.09930  Biso   1.000  C
  C195     1.0000 0.53880  0.26320  0.40070  Biso   1.000  C
  C196     1.0000 0.03880  0.76320  0.40070  Biso   1.000  C
  C197     1.0000 0.53880  0.73680  0.90070  Biso   1.000  C
  C198     1.0000 0.03880  0.23680  0.90070  Biso   1.000  C
  C199     1.0000 0.46120  0.73680  0.59930  Biso   1.000  C
  C200     1.0000 0.96120  0.23680  0.59930  Biso   1.000  C
  H113     1.0000 0.50250  0.24500  0.10830  Biso   1.000  H
  H114     1.0000 0.00250  0.74500  0.10830  Biso   1.000  H
  H115     1.0000 0.49750  0.24500  0.39170  Biso   1.000  H
  H116     1.0000 0.99750  0.74500  0.39170  Biso   1.000  H
  H117     1.0000 0.49750  0.75500  0.89170  Biso   1.000  H
  H118     1.0000 0.99750  0.25500  0.89170  Biso   1.000  H
  H119     1.0000 0.50250  0.75500  0.60830  Biso   1.000  H
  H120     1.0000 0.00250  0.25500  0.60830  Biso   1.000  H
  C201     1.0000 0.43140  0.22290  0.14920  Biso   1.000  C
  C202     1.0000 0.93140  0.72290  0.14920  Biso   1.000  C
  C203     1.0000 0.56860  0.22290  0.35080  Biso   1.000  C
  C204     1.0000 0.06860  0.72290  0.35080  Biso   1.000  C
  C205     1.0000 0.56860  0.77710  0.85080  Biso   1.000  C
  C206     1.0000 0.06860  0.27710  0.85080  Biso   1.000  C
  C207     1.0000 0.43140  0.77710  0.64920  Biso   1.000  C
  C208     1.0000 0.93140  0.27710  0.64920  Biso   1.000  C
  H121     1.0000 0.45340  0.17580  0.19040  Biso   1.000  H
  H122     1.0000 0.95340  0.67580  0.19040  Biso   1.000  H
  H123     1.0000 0.54660  0.17580  0.30960  Biso   1.000  H
  H124     1.0000 0.04660  0.67580  0.30960  Biso   1.000  H
  H125     1.0000 0.54660  0.82420  0.80960  Biso   1.000  H
  H126     1.0000 0.04660  0.32420  0.80960  Biso   1.000  H
  H127     1.0000 0.45340  0.82420  0.69040  Biso   1.000  H
  H128     1.0000 0.95340  0.32420  0.69040  Biso   1.000  H
  H129     1.0000 0.32240  0.39490  0.28960  Biso   1.000  H
  H130     1.0000 0.82240  0.89490  0.28960  Biso   1.000  H
  H131     1.0000 0.67760  0.39490  0.21040  Biso   1.000  H
  H132     1.0000 0.17760  0.89490  0.21040  Biso   1.000  H
  H133     1.0000 0.67760  0.60510  0.71040  Biso   1.000  H
  H134     1.0000 0.17760  0.10510  0.71040  Biso   1.000  H
  H135     1.0000 0.32240  0.60510  0.78960  Biso   1.000  H
  H136     1.0000 0.82240  0.10510  0.78960  Biso   1.000  H
  H137     1.0000 0.37490  0.30980  0.35380  Biso   1.000  H
  H138     1.0000 0.87490  0.80980  0.35380  Biso   1.000  H
  H139     1.0000 0.62510  0.30980  0.14620  Biso   1.000  H
  H140     1.0000 0.12510  0.80980  0.14620  Biso   1.000  H
  H141     1.0000 0.62510  0.69020  0.64620  Biso   1.000  H
  H142     1.0000 0.12510  0.19020  0.64620  Biso   1.000  H
  H143     1.0000 0.37490  0.69020  0.85380  Biso   1.000  H
  H144     1.0000 0.87490  0.19020  0.85380  Biso   1.000  H
