data_image0
_cell_length_a       11.587
_cell_length_b       11.587
_cell_length_c       20.037
_cell_angle_alpha    90
_cell_angle_beta     90
_cell_angle_gamma    120

_symmetry_space_group_name_H-M    "P 1"
_symmetry_int_tables_number       1

loop_
  _symmetry_equiv_pos_as_xyz
  'x, y, z'

loop_
  _atom_site_label
  _atom_site_occupancy
  _atom_site_fract_x
  _atom_site_fract_y
  _atom_site_fract_z
  _atom_site_thermal_displace_type
  _atom_site_B_iso_or_equiv
  _atom_site_type_symbol
  Br1      1.0000 0.24640  0.02950  0.93090  Biso   1.000  Br
  Br2      1.0000 0.97050  0.21690  0.93090  Biso   1.000  Br
  Br3      1.0000 0.78310  0.75360  0.93090  Biso   1.000  Br
  Br4      1.0000 0.02950  0.24640  0.06910  Biso   1.000  Br
  Br5      1.0000 0.21690  0.97050  0.06910  Biso   1.000  Br
  Br6      1.0000 0.75360  0.78310  0.06910  Biso   1.000  Br
  Br7      1.0000 0.57973  0.36283  0.26423  Biso   1.000  Br
  Br8      1.0000 0.30383  0.55023  0.26423  Biso   1.000  Br
  Br9      1.0000 0.11643  0.08693  0.26423  Biso   1.000  Br
  Br10     1.0000 0.36283  0.57973  0.40243  Biso   1.000  Br
  Br11     1.0000 0.55023  0.30383  0.40243  Biso   1.000  Br
  Br12     1.0000 0.08693  0.11643  0.40243  Biso   1.000  Br
  Br13     1.0000 0.59590  0.26260  0.83330  Biso   1.000  Br
  Br14     1.0000 0.73740  0.33330  0.83330  Biso   1.000  Br
  Br15     1.0000 0.66670  0.40410  0.83330  Biso   1.000  Br
  Br16     1.0000 0.26260  0.59590  0.16670  Biso   1.000  Br
  Br17     1.0000 0.33330  0.73740  0.16670  Biso   1.000  Br
  Br18     1.0000 0.40410  0.66670  0.16670  Biso   1.000  Br
  Br19     1.0000 0.92923  0.59593  0.16663  Biso   1.000  Br
  Br20     1.0000 0.07073  0.66663  0.16663  Biso   1.000  Br
  Br21     1.0000 0.00003  0.73743  0.16663  Biso   1.000  Br
  Br22     1.0000 0.59593  0.92923  0.50003  Biso   1.000  Br
  Br23     1.0000 0.66663  0.07073  0.50003  Biso   1.000  Br
  Br24     1.0000 0.73743  0.00003  0.50003  Biso   1.000  Br
  Cu1      1.0000 0.66670  0.33330  0.05730  Biso   1.000  Cu
  Cu2      1.0000 0.33330  0.66670  0.94270  Biso   1.000  Cu
  Cu3      1.0000 0.00003  0.66663  0.39063  Biso   1.000  Cu
  Cu4      1.0000 0.66663  0.00003  0.27603  Biso   1.000  Cu
  N1       1.0000 0.49800  0.29400  0.11610  Biso   1.000  N
  N2       1.0000 0.70600  0.20400  0.11610  Biso   1.000  N
  N3       1.0000 0.79600  0.50200  0.11610  Biso   1.000  N
  N4       1.0000 0.29400  0.49800  0.88390  Biso   1.000  N
  N5       1.0000 0.20400  0.70600  0.88390  Biso   1.000  N
  N6       1.0000 0.50200  0.79600  0.88390  Biso   1.000  N
  N7       1.0000 0.83133  0.62733  0.44943  Biso   1.000  N
  N8       1.0000 0.03933  0.53733  0.44943  Biso   1.000  N
  N9       1.0000 0.12933  0.83533  0.44943  Biso   1.000  N
  N10      1.0000 0.62733  0.83133  0.21723  Biso   1.000  N
  N11      1.0000 0.53733  0.03933  0.21723  Biso   1.000  N
  N12      1.0000 0.83533  0.12933  0.21723  Biso   1.000  N
  H1       1.0000 0.43730  0.20660  0.11400  Biso   1.000  H
  H2       1.0000 0.79340  0.23070  0.11400  Biso   1.000  H
  H3       1.0000 0.76930  0.56270  0.11400  Biso   1.000  H
  H4       1.0000 0.20660  0.43730  0.88600  Biso   1.000  H
  H5       1.0000 0.23070  0.79340  0.88600  Biso   1.000  H
  H6       1.0000 0.56270  0.76930  0.88600  Biso   1.000  H
  H7       1.0000 0.77063  0.53993  0.44733  Biso   1.000  H
  H8       1.0000 0.12673  0.56403  0.44733  Biso   1.000  H
  H9       1.0000 0.10263  0.89603  0.44733  Biso   1.000  H
  H10      1.0000 0.53993  0.77063  0.21933  Biso   1.000  H
  H11      1.0000 0.56403  0.12673  0.21933  Biso   1.000  H
  H12      1.0000 0.89603  0.10263  0.21933  Biso   1.000  H
  H13      1.0000 0.52290  0.31480  0.15890  Biso   1.000  H
  H14      1.0000 0.68520  0.20810  0.15890  Biso   1.000  H
  H15      1.0000 0.79190  0.47710  0.15890  Biso   1.000  H
  H16      1.0000 0.31480  0.52290  0.84110  Biso   1.000  H
  H17      1.0000 0.20810  0.68520  0.84110  Biso   1.000  H
  H18      1.0000 0.47710  0.79190  0.84110  Biso   1.000  H
  H19      1.0000 0.85623  0.64813  0.49223  Biso   1.000  H
  H20      1.0000 0.01853  0.54143  0.49223  Biso   1.000  H
  H21      1.0000 0.12523  0.81043  0.49223  Biso   1.000  H
  H22      1.0000 0.64813  0.85623  0.17443  Biso   1.000  H
  H23      1.0000 0.54143  0.01853  0.17443  Biso   1.000  H
  H24      1.0000 0.81043  0.12523  0.17443  Biso   1.000  H
  N13      1.0000 0.58460  0.43040  0.99600  Biso   1.000  N
  N14      1.0000 0.56960  0.15420  0.99600  Biso   1.000  N
  N15      1.0000 0.84580  0.41540  0.99600  Biso   1.000  N
  N16      1.0000 0.43040  0.58460  0.00400  Biso   1.000  N
  N17      1.0000 0.15420  0.56960  0.00400  Biso   1.000  N
  N18      1.0000 0.41540  0.84580  0.00400  Biso   1.000  N
  N19      1.0000 0.91793  0.76373  0.32933  Biso   1.000  N
  N20      1.0000 0.90293  0.48753  0.32933  Biso   1.000  N
  N21      1.0000 0.17913  0.74873  0.32933  Biso   1.000  N
  N22      1.0000 0.76373  0.91793  0.33733  Biso   1.000  N
  N23      1.0000 0.48753  0.90293  0.33733  Biso   1.000  N
  N24      1.0000 0.74873  0.17913  0.33733  Biso   1.000  N
  H25      1.0000 0.62850  0.51880  0.00370  Biso   1.000  H
  H26      1.0000 0.48120  0.10970  0.00370  Biso   1.000  H
  H27      1.0000 0.89030  0.37150  0.00370  Biso   1.000  H
  H28      1.0000 0.51880  0.62850  0.99630  Biso   1.000  H
  H29      1.0000 0.10970  0.48120  0.99630  Biso   1.000  H
  H30      1.0000 0.37150  0.89030  0.99630  Biso   1.000  H
  H31      1.0000 0.96183  0.85213  0.33703  Biso   1.000  H
  H32      1.0000 0.81453  0.44303  0.33703  Biso   1.000  H
  H33      1.0000 0.22363  0.70483  0.33703  Biso   1.000  H
  H34      1.0000 0.85213  0.96183  0.32963  Biso   1.000  H
  H35      1.0000 0.44303  0.81453  0.32963  Biso   1.000  H
  H36      1.0000 0.70483  0.22363  0.32963  Biso   1.000  H
  H37      1.0000 0.59270  0.41680  0.95240  Biso   1.000  H
  H38      1.0000 0.58320  0.17590  0.95240  Biso   1.000  H
  H39      1.0000 0.82410  0.40730  0.95240  Biso   1.000  H
  H40      1.0000 0.41680  0.59270  0.04760  Biso   1.000  H
  H41      1.0000 0.17590  0.58320  0.04760  Biso   1.000  H
  H42      1.0000 0.40730  0.82410  0.04760  Biso   1.000  H
  H43      1.0000 0.92603  0.75013  0.28573  Biso   1.000  H
  H44      1.0000 0.91653  0.50923  0.28573  Biso   1.000  H
  H45      1.0000 0.15743  0.74063  0.28573  Biso   1.000  H
  H46      1.0000 0.75013  0.92603  0.38093  Biso   1.000  H
  H47      1.0000 0.50923  0.91653  0.38093  Biso   1.000  H
  H48      1.0000 0.74063  0.15743  0.38093  Biso   1.000  H
  C1       1.0000 0.43650  0.37400  0.09150  Biso   1.000  C
  C2       1.0000 0.62600  0.06250  0.09150  Biso   1.000  C
  C3       1.0000 0.93750  0.56350  0.09150  Biso   1.000  C
  C4       1.0000 0.37400  0.43650  0.90850  Biso   1.000  C
  C5       1.0000 0.06250  0.62600  0.90850  Biso   1.000  C
  C6       1.0000 0.56350  0.93750  0.90850  Biso   1.000  C
  C7       1.0000 0.76983  0.70733  0.42483  Biso   1.000  C
  C8       1.0000 0.95933  0.39583  0.42483  Biso   1.000  C
  C9       1.0000 0.27083  0.89683  0.42483  Biso   1.000  C
  C10      1.0000 0.70733  0.76983  0.24183  Biso   1.000  C
  C11      1.0000 0.39583  0.95933  0.24183  Biso   1.000  C
  C12      1.0000 0.89683  0.27083  0.24183  Biso   1.000  C
  H49      1.0000 0.48580  0.46470  0.10810  Biso   1.000  H
  H50      1.0000 0.53530  0.02110  0.10810  Biso   1.000  H
  H51      1.0000 0.97890  0.51420  0.10810  Biso   1.000  H
  H52      1.0000 0.46470  0.48580  0.89190  Biso   1.000  H
  H53      1.0000 0.02110  0.53530  0.89190  Biso   1.000  H
  H54      1.0000 0.51420  0.97890  0.89190  Biso   1.000  H
  H55      1.0000 0.81913  0.79803  0.44143  Biso   1.000  H
  H56      1.0000 0.86863  0.35443  0.44143  Biso   1.000  H
  H57      1.0000 0.31223  0.84753  0.44143  Biso   1.000  H
  H58      1.0000 0.79803  0.81913  0.22523  Biso   1.000  H
  H59      1.0000 0.35443  0.86863  0.22523  Biso   1.000  H
  H60      1.0000 0.84753  0.31223  0.22523  Biso   1.000  H
  H61      1.0000 0.34470  0.33430  0.10640  Biso   1.000  H
  H62      1.0000 0.66570  0.01040  0.10640  Biso   1.000  H
  H63      1.0000 0.98960  0.65530  0.10640  Biso   1.000  H
  H64      1.0000 0.33430  0.34470  0.89360  Biso   1.000  H
  H65      1.0000 0.01040  0.66570  0.89360  Biso   1.000  H
  H66      1.0000 0.65530  0.98960  0.89360  Biso   1.000  H
  H67      1.0000 0.67803  0.66763  0.43973  Biso   1.000  H
  H68      1.0000 0.99903  0.34373  0.43973  Biso   1.000  H
  H69      1.0000 0.32293  0.98863  0.43973  Biso   1.000  H
  H70      1.0000 0.66763  0.67803  0.22693  Biso   1.000  H
  H71      1.0000 0.34373  0.99903  0.22693  Biso   1.000  H
  H72      1.0000 0.98863  0.32293  0.22693  Biso   1.000  H
  C13      1.0000 0.44320  0.37200  0.01400  Biso   1.000  C
  C14      1.0000 0.62800  0.07120  0.01400  Biso   1.000  C
  C15      1.0000 0.92880  0.55680  0.01400  Biso   1.000  C
  C16      1.0000 0.37200  0.44320  0.98600  Biso   1.000  C
  C17      1.0000 0.07120  0.62800  0.98600  Biso   1.000  C
  C18      1.0000 0.55680  0.92880  0.98600  Biso   1.000  C
  C19      1.0000 0.77653  0.70533  0.34733  Biso   1.000  C
  C20      1.0000 0.96133  0.40453  0.34733  Biso   1.000  C
  C21      1.0000 0.26213  0.89013  0.34733  Biso   1.000  C
  C22      1.0000 0.70533  0.77653  0.31933  Biso   1.000  C
  C23      1.0000 0.40453  0.96133  0.31933  Biso   1.000  C
  C24      1.0000 0.89013  0.26213  0.31933  Biso   1.000  C
  H73      1.0000 0.39540  0.27910  0.99890  Biso   1.000  H
  H74      1.0000 0.72090  0.11630  0.99890  Biso   1.000  H
  H75      1.0000 0.88370  0.60460  0.99890  Biso   1.000  H
  H76      1.0000 0.27910  0.39540  0.00110  Biso   1.000  H
  H77      1.0000 0.11630  0.72090  0.00110  Biso   1.000  H
  H78      1.0000 0.60460  0.88370  0.00110  Biso   1.000  H
  H79      1.0000 0.72873  0.61243  0.33223  Biso   1.000  H
  H80      1.0000 0.05423  0.44963  0.33223  Biso   1.000  H
  H81      1.0000 0.21703  0.93793  0.33223  Biso   1.000  H
  H82      1.0000 0.61243  0.72873  0.33443  Biso   1.000  H
  H83      1.0000 0.44963  0.05423  0.33443  Biso   1.000  H
  H84      1.0000 0.93793  0.21703  0.33443  Biso   1.000  H
