data_image0
_cell_length_a       6.8042
_cell_length_b       6.8042
_cell_length_c       29.612
_cell_angle_alpha    90
_cell_angle_beta     90
_cell_angle_gamma    90

_symmetry_space_group_name_H-M    "P 1"
_symmetry_int_tables_number       1

loop_
  _symmetry_equiv_pos_as_xyz
  'x, y, z'

loop_
  _atom_site_label
  _atom_site_occupancy
  _atom_site_fract_x
  _atom_site_fract_y
  _atom_site_fract_z
  _atom_site_thermal_displace_type
  _atom_site_B_iso_or_equiv
  _atom_site_type_symbol
  Cu1      1.0000 0.43097  0.30524  0.11351  Biso   1.000  Cu
  Cu2      1.0000 0.56903  0.69476  0.61351  Biso   1.000  Cu
  Cu3      1.0000 0.19476  0.93097  0.36351  Biso   1.000  Cu
  Cu4      1.0000 0.80524  0.06903  0.86351  Biso   1.000  Cu
  Cu5      1.0000 0.06903  0.80524  0.13649  Biso   1.000  Cu
  Cu6      1.0000 0.93097  0.19476  0.63649  Biso   1.000  Cu
  Cu7      1.0000 0.30524  0.43097  0.88649  Biso   1.000  Cu
  Cu8      1.0000 0.69476  0.56903  0.38649  Biso   1.000  Cu
  Br1      1.0000 0.12230  0.38030  0.14981  Biso   1.000  Br
  Br2      1.0000 0.87770  0.61970  0.64981  Biso   1.000  Br
  Br3      1.0000 0.11970  0.62230  0.39981  Biso   1.000  Br
  Br4      1.0000 0.88030  0.37770  0.89981  Biso   1.000  Br
  Br5      1.0000 0.37770  0.88030  0.10019  Biso   1.000  Br
  Br6      1.0000 0.62230  0.11970  0.60019  Biso   1.000  Br
  Br7      1.0000 0.38030  0.12230  0.85019  Biso   1.000  Br
  Br8      1.0000 0.61970  0.87770  0.35019  Biso   1.000  Br
  Br9      1.0000 0.59522  0.25945  0.18494  Biso   1.000  Br
  Br10     1.0000 0.40478  0.74055  0.68494  Biso   1.000  Br
  Br11     1.0000 0.24055  0.09522  0.43494  Biso   1.000  Br
  Br12     1.0000 0.75945  0.90478  0.93494  Biso   1.000  Br
  Br13     1.0000 0.90478  0.75945  0.06506  Biso   1.000  Br
  Br14     1.0000 0.09522  0.24055  0.56506  Biso   1.000  Br
  Br15     1.0000 0.25945  0.59522  0.81506  Biso   1.000  Br
  Br16     1.0000 0.74055  0.40478  0.31506  Biso   1.000  Br
  N1       1.0000 0.68760  0.27120  0.07990  Biso   1.000  N
  N2       1.0000 0.31240  0.72880  0.57990  Biso   1.000  N
  N3       1.0000 0.22880  0.18760  0.32990  Biso   1.000  N
  N4       1.0000 0.77120  0.81240  0.82990  Biso   1.000  N
  N5       1.0000 0.81240  0.77120  0.17010  Biso   1.000  N
  N6       1.0000 0.18760  0.22880  0.67010  Biso   1.000  N
  N7       1.0000 0.27120  0.68760  0.92010  Biso   1.000  N
  N8       1.0000 0.72880  0.31240  0.42010  Biso   1.000  N
  H1       1.0000 0.77670  0.36400  0.08940  Biso   1.000  H
  H2       1.0000 0.22330  0.63600  0.58940  Biso   1.000  H
  H3       1.0000 0.13600  0.27670  0.33940  Biso   1.000  H
  H4       1.0000 0.86400  0.72330  0.83940  Biso   1.000  H
  H5       1.0000 0.72330  0.86400  0.16060  Biso   1.000  H
  H6       1.0000 0.27670  0.13600  0.66060  Biso   1.000  H
  H7       1.0000 0.36400  0.77670  0.91060  Biso   1.000  H
  H8       1.0000 0.63600  0.22330  0.41060  Biso   1.000  H
  H9       1.0000 0.73900  0.14870  0.08580  Biso   1.000  H
  H10      1.0000 0.26100  0.85130  0.58580  Biso   1.000  H
  H11      1.0000 0.35130  0.23900  0.33580  Biso   1.000  H
  H12      1.0000 0.64870  0.76100  0.83580  Biso   1.000  H
  H13      1.0000 0.76100  0.64870  0.16420  Biso   1.000  H
  H14      1.0000 0.23900  0.35130  0.66420  Biso   1.000  H
  H15      1.0000 0.14870  0.73900  0.91420  Biso   1.000  H
  H16      1.0000 0.85130  0.26100  0.41420  Biso   1.000  H
  N9       1.0000 0.32820  0.40120  0.05370  Biso   1.000  N
  N10      1.0000 0.67180  0.59880  0.55370  Biso   1.000  N
  N11      1.0000 0.09880  0.82820  0.30370  Biso   1.000  N
  N12      1.0000 0.90120  0.17180  0.80370  Biso   1.000  N
  N13      1.0000 0.17180  0.90120  0.19630  Biso   1.000  N
  N14      1.0000 0.82820  0.09880  0.69630  Biso   1.000  N
  N15      1.0000 0.40120  0.32820  0.94630  Biso   1.000  N
  N16      1.0000 0.59880  0.67180  0.44630  Biso   1.000  N
  H17      1.0000 0.25590  0.30390  0.03990  Biso   1.000  H
  H18      1.0000 0.74410  0.69610  0.53990  Biso   1.000  H
  H19      1.0000 0.19610  0.75590  0.28990  Biso   1.000  H
  H20      1.0000 0.80390  0.24410  0.78990  Biso   1.000  H
  H21      1.0000 0.24410  0.80390  0.21010  Biso   1.000  H
  H22      1.0000 0.75590  0.19610  0.71010  Biso   1.000  H
  H23      1.0000 0.30390  0.25590  0.96010  Biso   1.000  H
  H24      1.0000 0.69610  0.74410  0.46010  Biso   1.000  H
  H25      1.0000 0.24810  0.50850  0.05800  Biso   1.000  H
  H26      1.0000 0.75190  0.49150  0.55800  Biso   1.000  H
  H27      1.0000 0.99150  0.74810  0.30800  Biso   1.000  H
  H28      1.0000 0.00850  0.25190  0.80800  Biso   1.000  H
  H29      1.0000 0.25190  0.00850  0.19200  Biso   1.000  H
  H30      1.0000 0.74810  0.99150  0.69200  Biso   1.000  H
  H31      1.0000 0.50850  0.24810  0.94200  Biso   1.000  H
  H32      1.0000 0.49150  0.75190  0.44200  Biso   1.000  H
  C1       1.0000 0.65170  0.29320  0.03090  Biso   1.000  C
  C2       1.0000 0.34830  0.70680  0.53090  Biso   1.000  C
  C3       1.0000 0.20680  0.15170  0.28090  Biso   1.000  C
  C4       1.0000 0.79320  0.84830  0.78090  Biso   1.000  C
  C5       1.0000 0.84830  0.79320  0.21910  Biso   1.000  C
  C6       1.0000 0.15170  0.20680  0.71910  Biso   1.000  C
  C7       1.0000 0.29320  0.65170  0.96910  Biso   1.000  C
  C8       1.0000 0.70680  0.34830  0.46910  Biso   1.000  C
  H33      1.0000 0.60260  0.16820  0.01810  Biso   1.000  H
  H34      1.0000 0.39740  0.83180  0.51810  Biso   1.000  H
  H35      1.0000 0.33180  0.10260  0.26810  Biso   1.000  H
  H36      1.0000 0.66820  0.89740  0.76810  Biso   1.000  H
  H37      1.0000 0.89740  0.66820  0.23190  Biso   1.000  H
  H38      1.0000 0.10260  0.33180  0.73190  Biso   1.000  H
  H39      1.0000 0.16820  0.60260  0.98190  Biso   1.000  H
  H40      1.0000 0.83180  0.39740  0.48190  Biso   1.000  H
  H41      1.0000 0.77520  0.32880  0.01520  Biso   1.000  H
  H42      1.0000 0.22480  0.67120  0.51520  Biso   1.000  H
  H43      1.0000 0.17120  0.27520  0.26520  Biso   1.000  H
  H44      1.0000 0.82880  0.72480  0.76520  Biso   1.000  H
  H45      1.0000 0.72480  0.82880  0.23480  Biso   1.000  H
  H46      1.0000 0.27520  0.17120  0.73480  Biso   1.000  H
  H47      1.0000 0.32880  0.77520  0.98480  Biso   1.000  H
  H48      1.0000 0.67120  0.22480  0.48480  Biso   1.000  H
  C9       1.0000 0.49830  0.45600  0.02470  Biso   1.000  C
  C10      1.0000 0.50170  0.54400  0.52470  Biso   1.000  C
  C11      1.0000 0.04400  0.99830  0.27470  Biso   1.000  C
  C12      1.0000 0.95600  0.00170  0.77470  Biso   1.000  C
  C13      1.0000 0.00170  0.95600  0.22530  Biso   1.000  C
  C14      1.0000 0.99830  0.04400  0.72530  Biso   1.000  C
  C15      1.0000 0.45600  0.49830  0.97530  Biso   1.000  C
  C16      1.0000 0.54400  0.50170  0.47530  Biso   1.000  C
  H49      1.0000 0.55580  0.57870  0.03780  Biso   1.000  H
  H50      1.0000 0.44420  0.42130  0.53780  Biso   1.000  H
  H51      1.0000 0.92130  0.05580  0.28780  Biso   1.000  H
  H52      1.0000 0.07870  0.94420  0.78780  Biso   1.000  H
  H53      1.0000 0.94420  0.07870  0.21220  Biso   1.000  H
  H54      1.0000 0.05580  0.92130  0.71220  Biso   1.000  H
  H55      1.0000 0.57870  0.55580  0.96220  Biso   1.000  H
  H56      1.0000 0.42130  0.44420  0.46220  Biso   1.000  H
  O1       1.0000 0.39500  0.60500  0.25000  Biso   1.000  O
  O2       1.0000 0.60500  0.39500  0.75000  Biso   1.000  O
  O3       1.0000 0.89500  0.89500  0.50000  Biso   1.000  O
  O4       1.0000 0.10500  0.10500  0.00000  Biso   1.000  O
  H57      1.0000 0.38300  0.49900  0.23150  Biso   1.000  H
  H58      1.0000 0.61700  0.50100  0.73150  Biso   1.000  H
  H59      1.0000 0.00100  0.88300  0.48150  Biso   1.000  H
  H60      1.0000 0.99900  0.11700  0.98150  Biso   1.000  H
  H61      1.0000 0.11700  0.99900  0.01850  Biso   1.000  H
  H62      1.0000 0.88300  0.00100  0.51850  Biso   1.000  H
  H63      1.0000 0.49900  0.38300  0.76850  Biso   1.000  H
  H64      1.0000 0.50100  0.61700  0.26850  Biso   1.000  H
