data_image0
_cell_length_a       9.1588
_cell_length_b       6.6238
_cell_length_c       14.602
_cell_angle_alpha    90
_cell_angle_beta     102.56
_cell_angle_gamma    90

_symmetry_space_group_name_H-M    "P 1"
_symmetry_int_tables_number       1

loop_
  _symmetry_equiv_pos_as_xyz
  'x, y, z'

loop_
  _atom_site_label
  _atom_site_occupancy
  _atom_site_fract_x
  _atom_site_fract_y
  _atom_site_fract_z
  _atom_site_thermal_displace_type
  _atom_site_B_iso_or_equiv
  _atom_site_type_symbol
  Cu1      1.0000 0.07457  0.58511  0.18151  Biso   1.000  Cu
  Cu2      1.0000 0.92543  0.08511  0.31849  Biso   1.000  Cu
  Cu3      1.0000 0.92543  0.41489  0.81849  Biso   1.000  Cu
  Cu4      1.0000 0.07457  0.91489  0.68151  Biso   1.000  Cu
  O1       1.0000 0.88514  0.56880  0.07839  Biso   1.000  O
  O2       1.0000 0.11486  0.06880  0.42161  Biso   1.000  O
  O3       1.0000 0.11486  0.43120  0.92161  Biso   1.000  O
  O4       1.0000 0.88514  0.93120  0.57839  Biso   1.000  O
  O5       1.0000 0.64480  0.68140  0.57949  Biso   1.000  O
  O6       1.0000 0.35520  0.18140  0.92051  Biso   1.000  O
  O7       1.0000 0.35520  0.31860  0.42051  Biso   1.000  O
  O8       1.0000 0.64480  0.81860  0.07949  Biso   1.000  O
  H1       1.0000 0.71690  0.78260  0.57940  Biso   1.000  H
  H2       1.0000 0.28310  0.28260  0.92060  Biso   1.000  H
  H3       1.0000 0.28310  0.21740  0.42060  Biso   1.000  H
  H4       1.0000 0.71690  0.71740  0.07940  Biso   1.000  H
  C1       1.0000 0.91780  0.51490  0.00102  Biso   1.000  C
  C2       1.0000 0.08220  0.01490  0.49898  Biso   1.000  C
  C3       1.0000 0.08220  0.48510  0.99898  Biso   1.000  C
  C4       1.0000 0.91780  0.98510  0.50102  Biso   1.000  C
  C5       1.0000 0.66880  0.49900  0.90081  Biso   1.000  C
  C6       1.0000 0.33120  0.99900  0.59919  Biso   1.000  C
  C7       1.0000 0.33120  0.50100  0.09919  Biso   1.000  C
  C8       1.0000 0.66880  0.00100  0.40081  Biso   1.000  C
  H5       1.0000 0.62850  0.43570  0.94990  Biso   1.000  H
  H6       1.0000 0.37150  0.93570  0.55010  Biso   1.000  H
  H7       1.0000 0.37150  0.56430  0.05010  Biso   1.000  H
  H8       1.0000 0.62850  0.06430  0.44990  Biso   1.000  H
  H9       1.0000 0.64000  0.64020  0.89670  Biso   1.000  H
  H10      1.0000 0.36000  0.14020  0.60330  Biso   1.000  H
  H11      1.0000 0.36000  0.35980  0.10330  Biso   1.000  H
  H12      1.0000 0.64000  0.85980  0.39670  Biso   1.000  H
  C9       1.0000 0.61090  0.39380  0.80737  Biso   1.000  C
  C10      1.0000 0.38910  0.89380  0.69263  Biso   1.000  C
  C11      1.0000 0.38910  0.60620  0.19263  Biso   1.000  C
  C12      1.0000 0.61090  0.10620  0.30737  Biso   1.000  C
  H13      1.0000 0.50940  0.43710  0.78070  Biso   1.000  H
  H14      1.0000 0.49060  0.93710  0.71930  Biso   1.000  H
  H15      1.0000 0.49060  0.56290  0.21930  Biso   1.000  H
  H16      1.0000 0.50940  0.06290  0.28070  Biso   1.000  H
  H17      1.0000 0.61040  0.24880  0.81660  Biso   1.000  H
  H18      1.0000 0.38960  0.74880  0.68340  Biso   1.000  H
  H19      1.0000 0.38960  0.75120  0.18340  Biso   1.000  H
  H20      1.0000 0.61040  0.25120  0.31660  Biso   1.000  H
  C13      1.0000 0.66220  0.35430  0.64764  Biso   1.000  C
  C14      1.0000 0.33780  0.85430  0.85236  Biso   1.000  C
  C15      1.0000 0.33780  0.64570  0.35236  Biso   1.000  C
  C16      1.0000 0.66220  0.14570  0.14764  Biso   1.000  C
  H21      1.0000 0.70760  0.22210  0.64700  Biso   1.000  H
  H22      1.0000 0.29240  0.72210  0.85300  Biso   1.000  H
  H23      1.0000 0.29240  0.77790  0.35300  Biso   1.000  H
  H24      1.0000 0.70760  0.27790  0.14700  Biso   1.000  H
  H25      1.0000 0.55440  0.33770  0.63260  Biso   1.000  H
  H26      1.0000 0.44560  0.83770  0.86740  Biso   1.000  H
  H27      1.0000 0.44560  0.66230  0.36740  Biso   1.000  H
  H28      1.0000 0.55440  0.16230  0.13260  Biso   1.000  H
  C17      1.0000 0.70860  0.48750  0.57554  Biso   1.000  C
  C18      1.0000 0.29140  0.98750  0.92446  Biso   1.000  C
  C19      1.0000 0.29140  0.51250  0.42446  Biso   1.000  C
  C20      1.0000 0.70860  0.01250  0.07554  Biso   1.000  C
  H29      1.0000 0.67430  0.43010  0.51350  Biso   1.000  H
  H30      1.0000 0.32570  0.93010  0.98650  Biso   1.000  H
  H31      1.0000 0.32570  0.56990  0.48650  Biso   1.000  H
  H32      1.0000 0.67430  0.06990  0.01350  Biso   1.000  H
  H33      1.0000 0.81680  0.49790  0.58810  Biso   1.000  H
  H34      1.0000 0.18320  0.99790  0.91190  Biso   1.000  H
  H35      1.0000 0.18320  0.50210  0.41190  Biso   1.000  H
  H36      1.0000 0.81680  0.00210  0.08810  Biso   1.000  H
  N1       1.0000 0.83080  0.47980  0.92077  Biso   1.000  N
  N2       1.0000 0.16920  0.97980  0.57923  Biso   1.000  N
  N3       1.0000 0.16920  0.52020  0.07923  Biso   1.000  N
  N4       1.0000 0.83080  0.02020  0.42077  Biso   1.000  N
  N5       1.0000 0.71030  0.44620  0.74250  Biso   1.000  N
  N6       1.0000 0.28970  0.94620  0.75750  Biso   1.000  N
  N7       1.0000 0.28970  0.55380  0.25750  Biso   1.000  N
  N8       1.0000 0.71030  0.05380  0.24250  Biso   1.000  N
  H37      1.0000 0.69800  0.58150  0.73280  Biso   1.000  H
  H38      1.0000 0.30200  0.08150  0.76720  Biso   1.000  H
  H39      1.0000 0.30200  0.41850  0.26720  Biso   1.000  H
  H40      1.0000 0.69800  0.91850  0.23280  Biso   1.000  H
  N9       1.0000 0.97520  0.71360  0.27275  Biso   1.000  N
  N10      1.0000 0.02480  0.21360  0.22725  Biso   1.000  N
  N11      1.0000 0.02480  0.28640  0.72725  Biso   1.000  N
  N12      1.0000 0.97520  0.78640  0.77275  Biso   1.000  N
  N13      1.0000 0.89590  0.61250  0.30804  Biso   1.000  N
  N14      1.0000 0.10410  0.11250  0.19196  Biso   1.000  N
  N15      1.0000 0.10410  0.38750  0.69196  Biso   1.000  N
  N16      1.0000 0.89590  0.88750  0.80804  Biso   1.000  N
  N17      1.0000 0.79450  0.53400  0.32780  Biso   1.000  N
  N18      1.0000 0.20550  0.03400  0.17220  Biso   1.000  N
  N19      1.0000 0.20550  0.46600  0.67220  Biso   1.000  N
  N20      1.0000 0.79450  0.96600  0.82780  Biso   1.000  N
  N21      1.0000 0.84400  0.51100  0.36000  Biso   1.000  N
  N22      1.0000 0.15600  0.01100  0.14000  Biso   1.000  N
  N23      1.0000 0.15600  0.48900  0.64000  Biso   1.000  N
  N24      1.0000 0.84400  0.98900  0.86000  Biso   1.000  N
