data_image0
_cell_length_a       5.727
_cell_length_b       7.455
_cell_length_c       12.648
_cell_angle_alpha    97.7
_cell_angle_beta     104.16
_cell_angle_gamma    106.43

_symmetry_space_group_name_H-M    "P 1"
_symmetry_int_tables_number       1

loop_
  _symmetry_equiv_pos_as_xyz
  'x, y, z'

loop_
  _atom_site_label
  _atom_site_occupancy
  _atom_site_fract_x
  _atom_site_fract_y
  _atom_site_fract_z
  _atom_site_thermal_displace_type
  _atom_site_B_iso_or_equiv
  _atom_site_type_symbol
  Cu1      1.0000 1.00000  0.50000  0.50000  Biso   1.000  Cu
  Cu2      1.0000 0.42239  0.35227  0.39455  Biso   1.000  Cu
  Cu3      1.0000 0.57761  0.64773  0.60545  Biso   1.000  Cu
  O1       1.0000 0.30170  0.40620  0.52450  Biso   1.000  O
  O2       1.0000 0.69830  0.59380  0.47550  Biso   1.000  O
  O3       1.0000 0.16080  0.10510  0.32210  Biso   1.000  O
  O4       1.0000 0.83920  0.89490  0.67790  Biso   1.000  O
  O5       1.0000 0.29580  0.78930  0.50030  Biso   1.000  O
  O6       1.0000 0.70420  0.21070  0.49970  Biso   1.000  O
  O7       1.0000 0.04040  0.56870  0.65790  Biso   1.000  O
  O8       1.0000 0.95960  0.43130  0.34210  Biso   1.000  O
  O9       1.0000 0.46080  0.66380  0.73750  Biso   1.000  O
  O10      1.0000 0.53920  0.33620  0.26250  Biso   1.000  O
  C1       1.0000 0.23350  0.62350  0.74060  Biso   1.000  C
  C2       1.0000 0.76650  0.37650  0.25940  Biso   1.000  C
  C3       1.0000 0.18730  0.64240  0.85380  Biso   1.000  C
  C4       1.0000 0.81270  0.35760  0.14620  Biso   1.000  C
  C5       1.0000 0.42350  0.72220  0.95470  Biso   1.000  C
  C6       1.0000 0.57650  0.27780  0.04530  Biso   1.000  C
  C7       1.0000 0.35760  0.73510  0.06420  Biso   1.000  C
  C8       1.0000 0.64240  0.26490  0.93580  Biso   1.000  C
  C9       1.0000 0.59430  0.81450  0.16540  Biso   1.000  C
  C10      1.0000 0.40570  0.18550  0.83460  Biso   1.000  C
  C11      1.0000 0.54860  0.84080  0.27760  Biso   1.000  C
  C12      1.0000 0.45140  0.15920  0.72240  Biso   1.000  C
  O11      1.0000 0.32510  0.80170  0.28380  Biso   1.000  O
  O12      1.0000 0.67490  0.19830  0.71620  Biso   1.000  O
  O13      1.0000 0.74410  0.90150  0.36440  Biso   1.000  O
  O14      1.0000 0.25590  0.09850  0.63560  Biso   1.000  O
  H1       1.0000 0.27920  0.33130  0.55610  Biso   1.000  H
  H2       1.0000 0.72080  0.66870  0.44390  Biso   1.000  H
  H3       1.0000 0.06000  0.06510  0.35360  Biso   1.000  H
  H4       1.0000 0.94000  0.93490  0.64640  Biso   1.000  H
  H5       1.0000 0.20900  0.03060  0.29780  Biso   1.000  H
  H6       1.0000 0.79100  0.96940  0.70220  Biso   1.000  H
  H7       1.0000 0.28420  0.88940  0.53120  Biso   1.000  H
  H8       1.0000 0.71580  0.11060  0.46880  Biso   1.000  H
  H9       1.0000 0.32100  0.78840  0.44830  Biso   1.000  H
  H10      1.0000 0.67900  0.21160  0.55170  Biso   1.000  H
  H11      1.0000 0.09110  0.71060  0.85140  Biso   1.000  H
  H12      1.0000 0.90890  0.28940  0.14860  Biso   1.000  H
  H13      1.0000 0.08200  0.51600  0.85320  Biso   1.000  H
  H14      1.0000 0.91800  0.48400  0.14680  Biso   1.000  H
  H15      1.0000 0.52680  0.64800  0.95690  Biso   1.000  H
  H16      1.0000 0.47320  0.35200  0.04310  Biso   1.000  H
  H17      1.0000 0.52800  0.83780  0.95150  Biso   1.000  H
  H18      1.0000 0.47200  0.16220  0.04850  Biso   1.000  H
  H19      1.0000 0.25100  0.82570  0.06500  Biso   1.000  H
  H20      1.0000 0.74900  0.17430  0.93500  Biso   1.000  H
  H21      1.0000 0.27700  0.62150  0.07390  Biso   1.000  H
  H22      1.0000 0.72300  0.37850  0.92610  Biso   1.000  H
  H23      1.0000 0.68500  0.92520  0.15960  Biso   1.000  H
  H24      1.0000 0.31500  0.07480  0.84040  Biso   1.000  H
  H25      1.0000 0.69400  0.73770  0.16500  Biso   1.000  H
  H26      1.0000 0.30600  0.26230  0.83500  Biso   1.000  H
