data_image0
_cell_length_a       3.861
_cell_length_b       4.928
_cell_length_c       11.326
_cell_angle_alpha    84.34
_cell_angle_beta     87.08
_cell_angle_gamma    83.45

_symmetry_space_group_name_H-M    "P 1"
_symmetry_int_tables_number       1

loop_
  _symmetry_equiv_pos_as_xyz
  'x, y, z'

loop_
  _atom_site_label
  _atom_site_occupancy
  _atom_site_fract_x
  _atom_site_fract_y
  _atom_site_fract_z
  _atom_site_thermal_displace_type
  _atom_site_B_iso_or_equiv
  _atom_site_type_symbol
  Cu1      1.0000 0.50000  0.00000  0.50000  Biso   1.000  Cu
  C1       1.0000 0.40470  0.74160  0.73000  Biso   1.000  C
  C2       1.0000 0.59530  0.25840  0.27000  Biso   1.000  C
  C3       1.0000 0.51690  0.52340  0.82790  Biso   1.000  C
  C4       1.0000 0.48310  0.47660  0.17210  Biso   1.000  C
  C5       1.0000 0.44770  0.61530  0.95230  Biso   1.000  C
  C6       1.0000 0.55230  0.38470  0.04770  Biso   1.000  C
  O1       1.0000 0.54810  0.70580  0.62577  Biso   1.000  O
  O2       1.0000 0.45190  0.29420  0.37423  Biso   1.000  O
  O3       1.0000 0.19040  0.93920  0.75017  Biso   1.000  O
  O4       1.0000 0.80960  0.06080  0.24983  Biso   1.000  O
  O5       1.0000 0.17520  0.79780  0.42384  Biso   1.000  O
  O6       1.0000 0.82480  0.20220  0.57616  Biso   1.000  O
  H1       1.0000 0.39250  0.36950  0.81000  Biso   1.000  H
  H2       1.0000 0.60750  0.63050  0.19000  Biso   1.000  H
  H3       1.0000 0.75040  0.47040  0.81000  Biso   1.000  H
  H4       1.0000 0.24960  0.52960  0.19000  Biso   1.000  H
  H5       1.0000 0.57040  0.78150  0.96320  Biso   1.000  H
  H6       1.0000 0.42960  0.21850  0.03680  Biso   1.000  H
  H7       1.0000 0.19800  0.67660  0.96890  Biso   1.000  H
  H8       1.0000 0.80200  0.32340  0.03110  Biso   1.000  H
  H9       1.0000 0.23870  0.63740  0.41560  Biso   1.000  H
  H10      1.0000 0.76130  0.36260  0.58440  Biso   1.000  H
  H11      1.0000 0.12170  0.86180  0.35970  Biso   1.000  H
  H12      1.0000 0.87830  0.13820  0.64030  Biso   1.000  H
