data_image0
_cell_length_a       3.719
_cell_length_b       12.62
_cell_length_c       8.8
_cell_angle_alpha    90
_cell_angle_beta     97.63
_cell_angle_gamma    90

_symmetry_space_group_name_H-M    "P 1"
_symmetry_int_tables_number       1

loop_
  _symmetry_equiv_pos_as_xyz
  'x, y, z'

loop_
  _atom_site_label
  _atom_site_occupancy
  _atom_site_fract_x
  _atom_site_fract_y
  _atom_site_fract_z
  _atom_site_thermal_displace_type
  _atom_site_B_iso_or_equiv
  _atom_site_type_symbol
  Cu1      1.0000 0.50000  0.00000  0.50000  Biso   1.000  Cu
  Cu2      1.0000 0.50000  0.50000  0.50000  Biso   1.000  Cu
  Cl1      1.0000 0.04670  0.05780  0.32050  Biso   1.000  Cl
  Cl2      1.0000 0.95330  0.55780  0.67950  Biso   1.000  Cl
  Cl3      1.0000 0.95330  0.94220  0.67950  Biso   1.000  Cl
  Cl4      1.0000 0.04670  0.44220  0.32050  Biso   1.000  Cl
  N1       1.0000 0.54880  0.15310  0.59050  Biso   1.000  N
  N2       1.0000 0.45120  0.65310  0.40950  Biso   1.000  N
  N3       1.0000 0.45120  0.84690  0.40950  Biso   1.000  N
  N4       1.0000 0.54880  0.34690  0.59050  Biso   1.000  N
  S1       1.0000 0.57350  0.25000  0.47030  Biso   1.000  S
  S2       1.0000 0.42650  0.75000  0.52970  Biso   1.000  S
  C1       1.0000 0.46040  0.19300  0.99490  Biso   1.000  C
  C2       1.0000 0.53960  0.69300  0.00510  Biso   1.000  C
  C3       1.0000 0.53960  0.80700  0.00510  Biso   1.000  C
  C4       1.0000 0.46040  0.30700  0.99490  Biso   1.000  C
  C5       1.0000 0.49350  0.13580  0.86780  Biso   1.000  C
  C6       1.0000 0.50650  0.63580  0.13220  Biso   1.000  C
  C7       1.0000 0.50650  0.86420  0.13220  Biso   1.000  C
  C8       1.0000 0.49350  0.36420  0.86780  Biso   1.000  C
  C9       1.0000 0.52410  0.19310  0.72960  Biso   1.000  C
  C10      1.0000 0.47590  0.69310  0.27040  Biso   1.000  C
  C11      1.0000 0.47590  0.80690  0.27040  Biso   1.000  C
  C12      1.0000 0.52410  0.30690  0.72960  Biso   1.000  C
  H1       1.0000 0.42600  0.15820  0.08170  Biso   1.000  H
  H2       1.0000 0.57400  0.65820  0.91830  Biso   1.000  H
  H3       1.0000 0.57400  0.84180  0.91830  Biso   1.000  H
  H4       1.0000 0.42600  0.34180  0.08170  Biso   1.000  H
  H5       1.0000 0.50000  0.05330  0.85470  Biso   1.000  H
  H6       1.0000 0.50000  0.55330  0.14530  Biso   1.000  H
  H7       1.0000 0.50000  0.94670  0.14530  Biso   1.000  H
  H8       1.0000 0.50000  0.44670  0.85470  Biso   1.000  H
