data_image0
_cell_length_a       7.7155
_cell_length_b       13.459
_cell_length_c       16.671
_cell_angle_alpha    90
_cell_angle_beta     100.797
_cell_angle_gamma    90

_symmetry_space_group_name_H-M    "P 1"
_symmetry_int_tables_number       1

loop_
  _symmetry_equiv_pos_as_xyz
  'x, y, z'

loop_
  _atom_site_label
  _atom_site_occupancy
  _atom_site_fract_x
  _atom_site_fract_y
  _atom_site_fract_z
  _atom_site_thermal_displace_type
  _atom_site_B_iso_or_equiv
  _atom_site_type_symbol
  Cu1      1.0000 0.15445  0.74785  0.86187  Biso   1.000  Cu
  Cu2      1.0000 0.65445  0.75215  0.36187  Biso   1.000  Cu
  Cu3      1.0000 0.84555  0.25215  0.13813  Biso   1.000  Cu
  Cu4      1.0000 0.34555  0.24785  0.63813  Biso   1.000  Cu
  Cl1      1.0000 0.65000  0.78728  0.85699  Biso   1.000  Cl
  Cl2      1.0000 0.15000  0.71272  0.35699  Biso   1.000  Cl
  Cl3      1.0000 0.35000  0.21272  0.14301  Biso   1.000  Cl
  Cl4      1.0000 0.85000  0.28728  0.64301  Biso   1.000  Cl
  N1       1.0000 0.16200  0.60170  0.90420  Biso   1.000  N
  N2       1.0000 0.66200  0.89830  0.40420  Biso   1.000  N
  N3       1.0000 0.83800  0.39830  0.09580  Biso   1.000  N
  N4       1.0000 0.33800  0.10170  0.59580  Biso   1.000  N
  N5       1.0000 0.18070  0.79560  0.97570  Biso   1.000  N
  N6       1.0000 0.68070  0.70440  0.47570  Biso   1.000  N
  N7       1.0000 0.81930  0.20440  0.02430  Biso   1.000  N
  N8       1.0000 0.31930  0.29560  0.52430  Biso   1.000  N
  N9       1.0000 0.25810  0.74090  0.04000  Biso   1.000  N
  N10      1.0000 0.75810  0.75910  0.54000  Biso   1.000  N
  N11      1.0000 0.74190  0.25910  0.96000  Biso   1.000  N
  N12      1.0000 0.24190  0.24090  0.46000  Biso   1.000  N
  N13      1.0000 0.13180  0.69660  0.74990  Biso   1.000  N
  N14      1.0000 0.63180  0.80340  0.24990  Biso   1.000  N
  N15      1.0000 0.86820  0.30340  0.25010  Biso   1.000  N
  N16      1.0000 0.36820  0.19660  0.75010  Biso   1.000  N
  N17      1.0000 0.05910  0.60780  0.72660  Biso   1.000  N
  N18      1.0000 0.55910  0.89220  0.22660  Biso   1.000  N
  N19      1.0000 0.94090  0.39220  0.27340  Biso   1.000  N
  N20      1.0000 0.44090  0.10780  0.77340  Biso   1.000  N
  N21      1.0000 0.13800  0.88670  0.82710  Biso   1.000  N
  N22      1.0000 0.63800  0.61330  0.32710  Biso   1.000  N
  N23      1.0000 0.86200  0.11330  0.17290  Biso   1.000  N
  N24      1.0000 0.36200  0.38670  0.67290  Biso   1.000  N
  N25      1.0000 0.05410  0.91860  0.76680  Biso   1.000  N
  N26      1.0000 0.55410  0.58140  0.26680  Biso   1.000  N
  N27      1.0000 0.94590  0.08140  0.23320  Biso   1.000  N
  N28      1.0000 0.44590  0.41860  0.73320  Biso   1.000  N
  N29      1.0000 0.97310  0.95350  0.71000  Biso   1.000  N
  N30      1.0000 0.47310  0.54650  0.21000  Biso   1.000  N
  N31      1.0000 0.02690  0.04650  0.29000  Biso   1.000  N
  N32      1.0000 0.52690  0.45350  0.79000  Biso   1.000  N
  C1       1.0000 0.25840  0.57610  0.97760  Biso   1.000  C
  C2       1.0000 0.75840  0.92390  0.47760  Biso   1.000  C
  C3       1.0000 0.74160  0.42390  0.02240  Biso   1.000  C
  C4       1.0000 0.24160  0.07610  0.52240  Biso   1.000  C
  C5       1.0000 0.25820  0.48070  0.00800  Biso   1.000  C
  C6       1.0000 0.75820  0.01930  0.50800  Biso   1.000  C
  C7       1.0000 0.74180  0.51930  0.99200  Biso   1.000  C
  C8       1.0000 0.24180  0.98070  0.49200  Biso   1.000  C
  C9       1.0000 0.15880  0.40840  0.96300  Biso   1.000  C
  C10      1.0000 0.65880  0.09160  0.46300  Biso   1.000  C
  C11      1.0000 0.84120  0.59160  0.03700  Biso   1.000  C
  C12      1.0000 0.34120  0.90840  0.53700  Biso   1.000  C
  C13      1.0000 0.06130  0.43340  0.88770  Biso   1.000  C
  C14      1.0000 0.56130  0.06660  0.38770  Biso   1.000  C
  C15      1.0000 0.93870  0.56660  0.11230  Biso   1.000  C
  C16      1.0000 0.43870  0.93340  0.61230  Biso   1.000  C
  C17      1.0000 0.06540  0.53030  0.86000  Biso   1.000  C
  C18      1.0000 0.56540  0.96970  0.36000  Biso   1.000  C
  C19      1.0000 0.93460  0.46970  0.14000  Biso   1.000  C
  C20      1.0000 0.43460  0.03030  0.64000  Biso   1.000  C
  C21      1.0000 0.36540  0.65620  0.02710  Biso   1.000  C
  C22      1.0000 0.86540  0.84380  0.52710  Biso   1.000  C
  C23      1.0000 0.63460  0.34380  0.97290  Biso   1.000  C
  C24      1.0000 0.13460  0.15620  0.47290  Biso   1.000  C
  C25      1.0000 0.22750  0.77940  0.11020  Biso   1.000  C
  C26      1.0000 0.72750  0.72060  0.61020  Biso   1.000  C
  C27      1.0000 0.77250  0.22060  0.88980  Biso   1.000  C
  C28      1.0000 0.27250  0.27940  0.38980  Biso   1.000  C
  C29      1.0000 0.12550  0.86150  0.09060  Biso   1.000  C
  C30      1.0000 0.62550  0.63850  0.59060  Biso   1.000  C
  C31      1.0000 0.87450  0.13850  0.90940  Biso   1.000  C
  C32      1.0000 0.37450  0.36150  0.40940  Biso   1.000  C
  C33      1.0000 0.09980  0.86880  0.00710  Biso   1.000  C
  C34      1.0000 0.59980  0.63120  0.50710  Biso   1.000  C
  C35      1.0000 0.90020  0.13120  0.99290  Biso   1.000  C
  C36      1.0000 0.40020  0.36880  0.49290  Biso   1.000  C
  C37      1.0000 0.95470  0.55820  0.77860  Biso   1.000  C
  C38      1.0000 0.45470  0.94180  0.27860  Biso   1.000  C
  C39      1.0000 0.04530  0.44180  0.22140  Biso   1.000  C
  C40      1.0000 0.54530  0.05820  0.72140  Biso   1.000  C
  C41      1.0000 0.08740  0.58200  0.65260  Biso   1.000  C
  C42      1.0000 0.58740  0.91800  0.15260  Biso   1.000  C
  C43      1.0000 0.91260  0.41800  0.34740  Biso   1.000  C
  C44      1.0000 0.41260  0.08200  0.84740  Biso   1.000  C
  C45      1.0000 0.18380  0.65650  0.62690  Biso   1.000  C
  C46      1.0000 0.68380  0.84350  0.12690  Biso   1.000  C
  C47      1.0000 0.81620  0.34350  0.37310  Biso   1.000  C
  C48      1.0000 0.31620  0.15650  0.87310  Biso   1.000  C
  C49      1.0000 0.20930  0.72570  0.68850  Biso   1.000  C
  C50      1.0000 0.70930  0.77430  0.18850  Biso   1.000  C
  C51      1.0000 0.79070  0.27430  0.31150  Biso   1.000  C
  C52      1.0000 0.29070  0.22570  0.81150  Biso   1.000  C
  O1       1.0000 0.80940  0.73350  0.87670  Biso   1.000  O
  O2       1.0000 0.30940  0.76650  0.37670  Biso   1.000  O
  O3       1.0000 0.19060  0.26650  0.12330  Biso   1.000  O
  O4       1.0000 0.69060  0.23350  0.62330  Biso   1.000  O
  O5       1.0000 0.51010  0.72630  0.87290  Biso   1.000  O
  O6       1.0000 0.01010  0.77370  0.37290  Biso   1.000  O
  O7       1.0000 0.48990  0.27370  0.12710  Biso   1.000  O
  O8       1.0000 0.98990  0.22630  0.62710  Biso   1.000  O
  O9       1.0000 0.61690  0.81420  0.77580  Biso   1.000  O
  O10      1.0000 0.11690  0.68580  0.27580  Biso   1.000  O
  O11      1.0000 0.38310  0.18580  0.22420  Biso   1.000  O
  O12      1.0000 0.88310  0.31420  0.72420  Biso   1.000  O
  O13      1.0000 0.66560  0.87270  0.90630  Biso   1.000  O
  O14      1.0000 0.16560  0.62730  0.40630  Biso   1.000  O
  O15      1.0000 0.33440  0.12730  0.09370  Biso   1.000  O
  O16      1.0000 0.83440  0.37270  0.59370  Biso   1.000  O
  H1       1.0000 0.32230  0.46870  0.05850  Biso   1.000  H
  H2       1.0000 0.82230  0.03130  0.55850  Biso   1.000  H
  H3       1.0000 0.67770  0.53130  0.94150  Biso   1.000  H
  H4       1.0000 0.17770  0.96870  0.44150  Biso   1.000  H
  H5       1.0000 0.15310  0.34780  0.98380  Biso   1.000  H
  H6       1.0000 0.65310  0.15220  0.48380  Biso   1.000  H
  H7       1.0000 0.84690  0.65220  0.01620  Biso   1.000  H
  H8       1.0000 0.34690  0.84780  0.51620  Biso   1.000  H
  H9       1.0000 0.98840  0.38320  0.85710  Biso   1.000  H
  H10      1.0000 0.48840  0.11680  0.35710  Biso   1.000  H
  H11      1.0000 0.01160  0.61680  0.14290  Biso   1.000  H
  H12      1.0000 0.51160  0.88320  0.64290  Biso   1.000  H
  H13      1.0000 0.44790  0.67420  0.99450  Biso   1.000  H
  H14      1.0000 0.94790  0.82580  0.49450  Biso   1.000  H
  H15      1.0000 0.55210  0.32580  0.00550  Biso   1.000  H
  H16      1.0000 0.05210  0.17420  0.50550  Biso   1.000  H
  H17      1.0000 0.41050  0.63340  0.08140  Biso   1.000  H
  H18      1.0000 0.91050  0.86660  0.58140  Biso   1.000  H
  H19      1.0000 0.58950  0.36660  0.91860  Biso   1.000  H
  H20      1.0000 0.08950  0.13340  0.41860  Biso   1.000  H
  H21      1.0000 0.27350  0.74920  0.16300  Biso   1.000  H
  H22      1.0000 0.77350  0.75080  0.66300  Biso   1.000  H
  H23      1.0000 0.72650  0.25080  0.83700  Biso   1.000  H
  H24      1.0000 0.22650  0.24920  0.33700  Biso   1.000  H
  H25      1.0000 0.08830  0.90490  0.12640  Biso   1.000  H
  H26      1.0000 0.58830  0.59510  0.62640  Biso   1.000  H
  H27      1.0000 0.91170  0.09510  0.87360  Biso   1.000  H
  H28      1.0000 0.41170  0.40490  0.37360  Biso   1.000  H
  H29      1.0000 0.04210  0.91280  0.97190  Biso   1.000  H
  H30      1.0000 0.54210  0.58720  0.47190  Biso   1.000  H
  H31      1.0000 0.95790  0.08720  0.02810  Biso   1.000  H
  H32      1.0000 0.45790  0.41280  0.52810  Biso   1.000  H
  H33      1.0000 0.86950  0.59910  0.78690  Biso   1.000  H
  H34      1.0000 0.36950  0.90090  0.28690  Biso   1.000  H
  H35      1.0000 0.13050  0.40090  0.21310  Biso   1.000  H
  H36      1.0000 0.63050  0.09910  0.71310  Biso   1.000  H
  H37      1.0000 0.91000  0.49870  0.75030  Biso   1.000  H
  H38      1.0000 0.41000  0.00130  0.25030  Biso   1.000  H
  H39      1.0000 0.09000  0.50130  0.24970  Biso   1.000  H
  H40      1.0000 0.59000  0.99870  0.74970  Biso   1.000  H
  H41      1.0000 0.04620  0.52760  0.63170  Biso   1.000  H
  H42      1.0000 0.54620  0.97240  0.13170  Biso   1.000  H
  H43      1.0000 0.95380  0.47240  0.36830  Biso   1.000  H
  H44      1.0000 0.45380  0.02760  0.86830  Biso   1.000  H
  H45      1.0000 0.21730  0.65500  0.57320  Biso   1.000  H
  H46      1.0000 0.71730  0.84500  0.07320  Biso   1.000  H
  H47      1.0000 0.78270  0.34500  0.42680  Biso   1.000  H
  H48      1.0000 0.28270  0.15500  0.92680  Biso   1.000  H
  H49      1.0000 0.27300  0.79220  0.69620  Biso   1.000  H
  H50      1.0000 0.77300  0.70780  0.19620  Biso   1.000  H
  H51      1.0000 0.72700  0.20780  0.30380  Biso   1.000  H
  H52      1.0000 0.22700  0.29220  0.80380  Biso   1.000  H
