data_image0
_cell_length_a       8.8942
_cell_length_b       12.9013
_cell_length_c       13.8801
_cell_angle_alpha    90
_cell_angle_beta     90
_cell_angle_gamma    90

_symmetry_space_group_name_H-M    "P 1"
_symmetry_int_tables_number       1

loop_
  _symmetry_equiv_pos_as_xyz
  'x, y, z'

loop_
  _atom_site_label
  _atom_site_occupancy
  _atom_site_fract_x
  _atom_site_fract_y
  _atom_site_fract_z
  _atom_site_thermal_displace_type
  _atom_site_B_iso_or_equiv
  _atom_site_type_symbol
  C1       1.0000 0.93050  0.34695  0.27099  Biso   1.000  C
  C2       1.0000 0.56950  0.65305  0.77099  Biso   1.000  C
  C3       1.0000 0.43050  0.15305  0.72901  Biso   1.000  C
  C4       1.0000 0.06950  0.84695  0.22901  Biso   1.000  C
  C5       1.0000 0.02930  0.39726  0.33243  Biso   1.000  C
  C6       1.0000 0.47070  0.60274  0.83243  Biso   1.000  C
  C7       1.0000 0.52930  0.10274  0.66757  Biso   1.000  C
  C8       1.0000 0.97070  0.89726  0.16757  Biso   1.000  C
  C9       1.0000 0.08380  0.24394  0.40500  Biso   1.000  C
  C10      1.0000 0.41620  0.75606  0.90500  Biso   1.000  C
  C11      1.0000 0.58380  0.25606  0.59500  Biso   1.000  C
  C12      1.0000 0.91620  0.74394  0.09500  Biso   1.000  C
  H1       1.0000 0.13730  0.20590  0.45040  Biso   1.000  H
  H2       1.0000 0.36270  0.79410  0.95040  Biso   1.000  H
  H3       1.0000 0.63730  0.29410  0.54960  Biso   1.000  H
  H4       1.0000 0.86270  0.70590  0.04960  Biso   1.000  H
  C13      1.0000 0.98410  0.19298  0.34682  Biso   1.000  C
  C14      1.0000 0.51590  0.80702  0.84682  Biso   1.000  C
  C15      1.0000 0.48410  0.30702  0.65318  Biso   1.000  C
  C16      1.0000 0.01590  0.69298  0.15318  Biso   1.000  C
  H5       1.0000 0.96850  0.12220  0.35480  Biso   1.000  H
  H6       1.0000 0.53150  0.87780  0.85480  Biso   1.000  H
  H7       1.0000 0.46850  0.37780  0.64520  Biso   1.000  H
  H8       1.0000 0.03150  0.62220  0.14520  Biso   1.000  H
  C17      1.0000 0.84320  0.39576  0.18976  Biso   1.000  C
  C18      1.0000 0.65680  0.60424  0.68976  Biso   1.000  C
  C19      1.0000 0.34320  0.10424  0.81024  Biso   1.000  C
  C20      1.0000 0.15680  0.89576  0.31024  Biso   1.000  C
  C21      1.0000 0.05700  0.51344  0.33415  Biso   1.000  C
  C22      1.0000 0.44300  0.48656  0.83415  Biso   1.000  C
  C23      1.0000 0.55700  0.98656  0.66585  Biso   1.000  C
  C24      1.0000 0.94300  0.01344  0.16585  Biso   1.000  C
  C25      1.0000 0.31110  0.56580  0.49240  Biso   1.000  C
  C26      1.0000 0.18890  0.43420  0.99240  Biso   1.000  C
  C27      1.0000 0.81110  0.93420  0.50760  Biso   1.000  C
  C28      1.0000 0.68890  0.06580  0.00760  Biso   1.000  C
  H9       1.0000 0.22810  0.59570  0.52680  Biso   1.000  H
  H10      1.0000 0.27190  0.40430  0.02680  Biso   1.000  H
  H11      1.0000 0.72810  0.90430  0.47320  Biso   1.000  H
  H12      1.0000 0.77190  0.09570  0.97320  Biso   1.000  H
  H13      1.0000 0.38620  0.54310  0.53730  Biso   1.000  H
  H14      1.0000 0.11380  0.45690  0.03730  Biso   1.000  H
  H15      1.0000 0.88620  0.95690  0.46270  Biso   1.000  H
  H16      1.0000 0.61380  0.04310  0.96270  Biso   1.000  H
  H17      1.0000 0.27640  0.50770  0.45540  Biso   1.000  H
  H18      1.0000 0.22360  0.49230  0.95540  Biso   1.000  H
  H19      1.0000 0.77640  0.99230  0.54460  Biso   1.000  H
  H20      1.0000 0.72360  0.00770  0.04460  Biso   1.000  H
  C29      1.0000 0.42460  0.73240  0.48760  Biso   1.000  C
  C30      1.0000 0.07540  0.26760  0.98760  Biso   1.000  C
  C31      1.0000 0.92460  0.76760  0.51240  Biso   1.000  C
  C32      1.0000 0.57540  0.23240  0.01240  Biso   1.000  C
  H21      1.0000 0.46840  0.78440  0.44700  Biso   1.000  H
  H22      1.0000 0.03160  0.21560  0.94700  Biso   1.000  H
  H23      1.0000 0.96840  0.71560  0.55300  Biso   1.000  H
  H24      1.0000 0.53160  0.28440  0.05300  Biso   1.000  H
  H25      1.0000 0.49770  0.70950  0.53390  Biso   1.000  H
  H26      1.0000 0.00230  0.29050  0.03390  Biso   1.000  H
  H27      1.0000 0.99770  0.79050  0.46610  Biso   1.000  H
  H28      1.0000 0.50230  0.20950  0.96610  Biso   1.000  H
  H29      1.0000 0.33930  0.76100  0.52070  Biso   1.000  H
  H30      1.0000 0.16070  0.23900  0.02070  Biso   1.000  H
  H31      1.0000 0.83930  0.73900  0.47930  Biso   1.000  H
  H32      1.0000 0.66070  0.26100  0.97930  Biso   1.000  H
  C33      1.0000 0.50510  0.59890  0.37380  Biso   1.000  C
  C34      1.0000 0.99490  0.40110  0.87380  Biso   1.000  C
  C35      1.0000 0.00510  0.90110  0.62620  Biso   1.000  C
  C36      1.0000 0.49490  0.09890  0.12620  Biso   1.000  C
  H33      1.0000 0.58620  0.58660  0.41910  Biso   1.000  H
  H34      1.0000 0.91380  0.41340  0.91910  Biso   1.000  H
  H35      1.0000 0.08620  0.91340  0.58090  Biso   1.000  H
  H36      1.0000 0.41380  0.08660  0.08090  Biso   1.000  H
  H37      1.0000 0.47470  0.53200  0.34840  Biso   1.000  H
  H38      1.0000 0.02530  0.46800  0.84840  Biso   1.000  H
  H39      1.0000 0.97470  0.96800  0.65160  Biso   1.000  H
  H40      1.0000 0.52530  0.03200  0.15160  Biso   1.000  H
  C37      1.0000 0.56140  0.65740  0.29830  Biso   1.000  C
  C38      1.0000 0.93860  0.34260  0.79830  Biso   1.000  C
  C39      1.0000 0.06140  0.84260  0.70170  Biso   1.000  C
  C40      1.0000 0.43860  0.15740  0.20170  Biso   1.000  C
  H41      1.0000 0.65260  0.69540  0.28340  Biso   1.000  H
  H42      1.0000 0.84740  0.30460  0.78340  Biso   1.000  H
  H43      1.0000 0.15260  0.80460  0.71660  Biso   1.000  H
  H44      1.0000 0.34740  0.19540  0.21660  Biso   1.000  H
  H45      1.0000 0.58330  0.58430  0.29030  Biso   1.000  H
  H46      1.0000 0.91670  0.41570  0.79030  Biso   1.000  H
  H47      1.0000 0.08330  0.91570  0.70970  Biso   1.000  H
  H48      1.0000 0.41670  0.08430  0.20970  Biso   1.000  H
  C41      1.0000 0.43380  0.61030  0.14920  Biso   1.000  C
  C42      1.0000 0.06620  0.38970  0.64920  Biso   1.000  C
  C43      1.0000 0.93380  0.88970  0.85080  Biso   1.000  C
  C44      1.0000 0.56620  0.11030  0.35080  Biso   1.000  C
  H49      1.0000 0.41190  0.54330  0.17570  Biso   1.000  H
  H50      1.0000 0.08810  0.45670  0.67570  Biso   1.000  H
  H51      1.0000 0.91190  0.95670  0.82430  Biso   1.000  H
  H52      1.0000 0.58810  0.04330  0.32430  Biso   1.000  H
  H53      1.0000 0.52700  0.60740  0.11440  Biso   1.000  H
  H54      1.0000 0.97300  0.39260  0.61440  Biso   1.000  H
  H55      1.0000 0.02700  0.89260  0.88560  Biso   1.000  H
  H56      1.0000 0.47300  0.10740  0.38560  Biso   1.000  H
  H57      1.0000 0.35440  0.63050  0.10620  Biso   1.000  H
  H58      1.0000 0.14560  0.36950  0.60620  Biso   1.000  H
  H59      1.0000 0.85440  0.86950  0.89380  Biso   1.000  H
  H60      1.0000 0.64560  0.13050  0.39380  Biso   1.000  H
  C45      1.0000 0.48040  0.78890  0.18830  Biso   1.000  C
  C46      1.0000 0.01960  0.21110  0.68830  Biso   1.000  C
  C47      1.0000 0.98040  0.71110  0.81170  Biso   1.000  C
  C48      1.0000 0.51960  0.28890  0.31170  Biso   1.000  C
  H61      1.0000 0.40340  0.80870  0.14350  Biso   1.000  H
  H62      1.0000 0.09660  0.19130  0.64350  Biso   1.000  H
  H63      1.0000 0.90340  0.69130  0.85650  Biso   1.000  H
  H64      1.0000 0.59660  0.30870  0.35650  Biso   1.000  H
  H65      1.0000 0.57570  0.78670  0.15580  Biso   1.000  H
  H66      1.0000 0.92430  0.21330  0.65580  Biso   1.000  H
  H67      1.0000 0.07570  0.71330  0.84420  Biso   1.000  H
  H68      1.0000 0.42430  0.28670  0.34420  Biso   1.000  H
  H69      1.0000 0.48480  0.83850  0.23970  Biso   1.000  H
  H70      1.0000 0.01520  0.16150  0.73970  Biso   1.000  H
  H71      1.0000 0.98480  0.66150  0.76030  Biso   1.000  H
  H72      1.0000 0.51520  0.33850  0.26030  Biso   1.000  H
  N1       1.0000 0.90970  0.24397  0.27925  Biso   1.000  N
  N2       1.0000 0.59030  0.75603  0.77925  Biso   1.000  N
  N3       1.0000 0.40970  0.25603  0.72075  Biso   1.000  N
  N4       1.0000 0.09030  0.74397  0.22075  Biso   1.000  N
  N5       1.0000 0.10750  0.34563  0.39938  Biso   1.000  N
  N6       1.0000 0.39250  0.65437  0.89938  Biso   1.000  N
  N7       1.0000 0.60750  0.15437  0.60062  Biso   1.000  N
  N8       1.0000 0.89250  0.84563  0.10062  Biso   1.000  N
  N9       1.0000 0.37570  0.64319  0.42797  Biso   1.000  N
  N10      1.0000 0.12430  0.35681  0.92797  Biso   1.000  N
  N11      1.0000 0.87570  0.85681  0.57203  Biso   1.000  N
  N12      1.0000 0.62430  0.14319  0.07203  Biso   1.000  N
  N13      1.0000 0.44620  0.68650  0.22758  Biso   1.000  N
  N14      1.0000 0.05380  0.31350  0.72758  Biso   1.000  N
  N15      1.0000 0.94620  0.81350  0.77242  Biso   1.000  N
  N16      1.0000 0.55380  0.18650  0.27242  Biso   1.000  N
  O1       1.0000 0.76250  0.33304  0.14113  Biso   1.000  O
  O2       1.0000 0.73750  0.66696  0.64113  Biso   1.000  O
  O3       1.0000 0.26250  0.16696  0.85887  Biso   1.000  O
  O4       1.0000 0.23750  0.83304  0.35887  Biso   1.000  O
  O5       1.0000 0.85480  0.48833  0.17451  Biso   1.000  O
  O6       1.0000 0.64520  0.51167  0.67451  Biso   1.000  O
  O7       1.0000 0.35480  0.01167  0.82549  Biso   1.000  O
  O8       1.0000 0.14520  0.98833  0.32549  Biso   1.000  O
  O9       1.0000 0.17354  0.54239  0.29027  Biso   1.000  O
  O10      1.0000 0.32646  0.45761  0.79027  Biso   1.000  O
  O11      1.0000 0.67354  0.95761  0.70973  Biso   1.000  O
  O12      1.0000 0.82646  0.04239  0.20973  Biso   1.000  O
  O13      1.0000 0.97410  0.56802  0.38306  Biso   1.000  O
  O14      1.0000 0.52590  0.43198  0.88306  Biso   1.000  O
  O15      1.0000 0.47410  0.93198  0.61694  Biso   1.000  O
  O16      1.0000 0.02590  0.06802  0.11694  Biso   1.000  O
  Cu1      1.0000 0.23514  0.68622  0.31819  Biso   1.000  Cu
  Cu2      1.0000 0.26486  0.31378  0.81819  Biso   1.000  Cu
  Cu3      1.0000 0.73514  0.81378  0.68181  Biso   1.000  Cu
  Cu4      1.0000 0.76486  0.18622  0.18181  Biso   1.000  Cu
  O17      1.0000 0.74410  0.55206  0.98717  Biso   1.000  O
  O18      1.0000 0.75590  0.44794  0.48717  Biso   1.000  O
  O19      1.0000 0.24410  0.94794  0.01283  Biso   1.000  O
  O20      1.0000 0.25590  0.05206  0.51283  Biso   1.000  O
  H73      1.0000 0.68800  0.50900  0.95800  Biso   1.000  H
  H74      1.0000 0.81200  0.49100  0.45800  Biso   1.000  H
  H75      1.0000 0.18800  0.99100  0.04200  Biso   1.000  H
  H76      1.0000 0.31200  0.00900  0.54200  Biso   1.000  H
  H77      1.0000 0.78000  0.52500  0.03700  Biso   1.000  H
  H78      1.0000 0.72000  0.47500  0.53700  Biso   1.000  H
  H79      1.0000 0.28000  0.97500  0.96300  Biso   1.000  H
  H80      1.0000 0.22000  0.02500  0.46300  Biso   1.000  H
  C49      1.0000 0.37810  0.53090  0.45420  Biso   1.000  C
  C50      1.0000 0.12190  0.46910  0.95420  Biso   1.000  C
  C51      1.0000 0.87810  0.96910  0.54580  Biso   1.000  C
  C52      1.0000 0.62190  0.03090  0.04580  Biso   1.000  C
  C53      1.0000 0.33390  0.69570  0.52270  Biso   1.000  C
  C54      1.0000 0.16610  0.30430  0.02270  Biso   1.000  C
  C55      1.0000 0.83390  0.80430  0.47730  Biso   1.000  C
  C56      1.0000 0.66610  0.19570  0.97730  Biso   1.000  C
  C57      1.0000 0.52370  0.67590  0.40050  Biso   1.000  C
  C58      1.0000 0.97630  0.32410  0.90050  Biso   1.000  C
  C59      1.0000 0.02370  0.82410  0.59950  Biso   1.000  C
  C60      1.0000 0.47630  0.17590  0.09950  Biso   1.000  C
  H81      1.0000 0.27870  0.50920  0.47200  Biso   1.000  H
  H82      1.0000 0.22130  0.49080  0.97200  Biso   1.000  H
  H83      1.0000 0.77870  0.99080  0.52800  Biso   1.000  H
  H84      1.0000 0.72130  0.00920  0.02800  Biso   1.000  H
  H85      1.0000 0.44530  0.52040  0.50740  Biso   1.000  H
  H86      1.0000 0.05470  0.47960  0.00740  Biso   1.000  H
  H87      1.0000 0.94530  0.97960  0.49260  Biso   1.000  H
  H88      1.0000 0.55470  0.02040  0.99260  Biso   1.000  H
  H89      1.0000 0.41170  0.49100  0.39990  Biso   1.000  H
  H90      1.0000 0.08830  0.50900  0.89990  Biso   1.000  H
  H91      1.0000 0.91170  0.00900  0.60010  Biso   1.000  H
  H92      1.0000 0.58830  0.99100  0.10010  Biso   1.000  H
  H93      1.0000 0.23500  0.67430  0.54180  Biso   1.000  H
  H94      1.0000 0.26500  0.32570  0.04180  Biso   1.000  H
  H95      1.0000 0.73500  0.82570  0.45820  Biso   1.000  H
  H96      1.0000 0.76500  0.17430  0.95820  Biso   1.000  H
  H97      1.0000 0.33560  0.76960  0.51440  Biso   1.000  H
  H98      1.0000 0.16440  0.23040  0.01440  Biso   1.000  H
  H99      1.0000 0.83560  0.73040  0.48560  Biso   1.000  H
  H100     1.0000 0.66440  0.26960  0.98560  Biso   1.000  H
  H101     1.0000 0.40500  0.67640  0.57160  Biso   1.000  H
  H102     1.0000 0.09500  0.32360  0.07160  Biso   1.000  H
  H103     1.0000 0.90500  0.82360  0.42840  Biso   1.000  H
  H104     1.0000 0.59500  0.17640  0.92840  Biso   1.000  H
  H105     1.0000 0.59650  0.63990  0.44030  Biso   1.000  H
  H106     1.0000 0.90350  0.36010  0.94030  Biso   1.000  H
  H107     1.0000 0.09650  0.86010  0.55970  Biso   1.000  H
  H108     1.0000 0.40350  0.13990  0.05970  Biso   1.000  H
  H109     1.0000 0.53340  0.74950  0.41360  Biso   1.000  H
  H110     1.0000 0.96660  0.25050  0.91360  Biso   1.000  H
  H111     1.0000 0.03340  0.75050  0.58640  Biso   1.000  H
  H112     1.0000 0.46660  0.24950  0.08640  Biso   1.000  H
