data_image0
_cell_length_a       11.2781
_cell_length_b       11.5931
_cell_length_c       12.4737
_cell_angle_alpha    90
_cell_angle_beta     110.387
_cell_angle_gamma    90

_symmetry_space_group_name_H-M    "P 1"
_symmetry_int_tables_number       1

loop_
  _symmetry_equiv_pos_as_xyz
  'x, y, z'

loop_
  _atom_site_label
  _atom_site_occupancy
  _atom_site_fract_x
  _atom_site_fract_y
  _atom_site_fract_z
  _atom_site_thermal_displace_type
  _atom_site_B_iso_or_equiv
  _atom_site_type_symbol
  C1       1.0000 0.82270  0.50280  0.20910  Biso   1.000  C
  C2       1.0000 0.17730  0.00280  0.29090  Biso   1.000  C
  C3       1.0000 0.17730  0.49720  0.79090  Biso   1.000  C
  C4       1.0000 0.82270  0.99720  0.70910  Biso   1.000  C
  H1       1.0000 0.74110  0.50750  0.15600  Biso   1.000  H
  H2       1.0000 0.25890  0.00750  0.34400  Biso   1.000  H
  H3       1.0000 0.25890  0.49250  0.84400  Biso   1.000  H
  H4       1.0000 0.74110  0.99250  0.65600  Biso   1.000  H
  C5       1.0000 0.89850  0.41340  0.20020  Biso   1.000  C
  C6       1.0000 0.10150  0.91340  0.29980  Biso   1.000  C
  C7       1.0000 0.10150  0.58660  0.79980  Biso   1.000  C
  C8       1.0000 0.89850  0.08660  0.70020  Biso   1.000  C
  H5       1.0000 0.86830  0.35840  0.14290  Biso   1.000  H
  H6       1.0000 0.13170  0.85840  0.35710  Biso   1.000  H
  H7       1.0000 0.13170  0.64160  0.85710  Biso   1.000  H
  H8       1.0000 0.86830  0.14160  0.64290  Biso   1.000  H
  C9       1.0000 0.02020  0.40640  0.27780  Biso   1.000  C
  C10      1.0000 0.97980  0.90640  0.22220  Biso   1.000  C
  C11      1.0000 0.97980  0.59360  0.72220  Biso   1.000  C
  C12      1.0000 0.02020  0.09360  0.77780  Biso   1.000  C
  H9       1.0000 0.07320  0.34660  0.27340  Biso   1.000  H
  H10      1.0000 0.92680  0.84660  0.22660  Biso   1.000  H
  H11      1.0000 0.92680  0.65340  0.72660  Biso   1.000  H
  H12      1.0000 0.07320  0.15340  0.77340  Biso   1.000  H
  C13      1.0000 0.06260  0.48950  0.36230  Biso   1.000  C
  C14      1.0000 0.93740  0.98950  0.13770  Biso   1.000  C
  C15      1.0000 0.93740  0.51050  0.63770  Biso   1.000  C
  C16      1.0000 0.06260  0.01050  0.86230  Biso   1.000  C
  H13      1.0000 0.14440  0.48660  0.41530  Biso   1.000  H
  H14      1.0000 0.85560  0.98660  0.08470  Biso   1.000  H
  H15      1.0000 0.85560  0.51340  0.58470  Biso   1.000  H
  H16      1.0000 0.14440  0.01340  0.91530  Biso   1.000  H
  C17      1.0000 0.98070  0.57720  0.36670  Biso   1.000  C
  C18      1.0000 0.01930  0.07720  0.13330  Biso   1.000  C
  C19      1.0000 0.01930  0.42280  0.63330  Biso   1.000  C
  C20      1.0000 0.98070  0.92280  0.86670  Biso   1.000  C
  C21      1.0000 0.01510  0.67060  0.45230  Biso   1.000  C
  C22      1.0000 0.98490  0.17060  0.04770  Biso   1.000  C
  C23      1.0000 0.98490  0.32940  0.54770  Biso   1.000  C
  C24      1.0000 0.01510  0.82940  0.95230  Biso   1.000  C
  C25      1.0000 0.13610  0.68530  0.53140  Biso   1.000  C
  C26      1.0000 0.86390  0.18530  0.96860  Biso   1.000  C
  C27      1.0000 0.86390  0.31470  0.46860  Biso   1.000  C
  C28      1.0000 0.13610  0.81470  0.03140  Biso   1.000  C
  H17      1.0000 0.20080  0.63470  0.53340  Biso   1.000  H
  H18      1.0000 0.79920  0.13470  0.96660  Biso   1.000  H
  H19      1.0000 0.79920  0.36530  0.46660  Biso   1.000  H
  H20      1.0000 0.20080  0.86530  0.03340  Biso   1.000  H
  C29      1.0000 0.15860  0.77660  0.60690  Biso   1.000  C
  C30      1.0000 0.84140  0.27660  0.89310  Biso   1.000  C
  C31      1.0000 0.84140  0.22340  0.39310  Biso   1.000  C
  C32      1.0000 0.15860  0.72340  0.10690  Biso   1.000  C
  H21      1.0000 0.23870  0.78760  0.66110  Biso   1.000  H
  H22      1.0000 0.76130  0.28760  0.83890  Biso   1.000  H
  H23      1.0000 0.76130  0.21240  0.33890  Biso   1.000  H
  H24      1.0000 0.23870  0.71240  0.16110  Biso   1.000  H
  C33      1.0000 0.06200  0.85100  0.60160  Biso   1.000  C
  C34      1.0000 0.93800  0.35100  0.89840  Biso   1.000  C
  C35      1.0000 0.93800  0.14900  0.39840  Biso   1.000  C
  C36      1.0000 0.06200  0.64900  0.10160  Biso   1.000  C
  H25      1.0000 0.07650  0.91360  0.65110  Biso   1.000  H
  H26      1.0000 0.92350  0.41360  0.84890  Biso   1.000  H
  H27      1.0000 0.92350  0.08640  0.34890  Biso   1.000  H
  H28      1.0000 0.07650  0.58640  0.15110  Biso   1.000  H
  C37      1.0000 0.94230  0.83180  0.52140  Biso   1.000  C
  C38      1.0000 0.05770  0.33180  0.97860  Biso   1.000  C
  C39      1.0000 0.05770  0.16820  0.47860  Biso   1.000  C
  C40      1.0000 0.94230  0.66820  0.02140  Biso   1.000  C
  H29      1.0000 0.87680  0.88200  0.51800  Biso   1.000  H
  H30      1.0000 0.12320  0.38200  0.98200  Biso   1.000  H
  H31      1.0000 0.12320  0.11800  0.48200  Biso   1.000  H
  H32      1.0000 0.87680  0.61800  0.01800  Biso   1.000  H
  C41      1.0000 0.54680  0.69140  0.10390  Biso   1.000  C
  C42      1.0000 0.45320  0.19140  0.39610  Biso   1.000  C
  C43      1.0000 0.45320  0.30860  0.89610  Biso   1.000  C
  C44      1.0000 0.54680  0.80860  0.60390  Biso   1.000  C
  H33      1.0000 0.58750  0.75360  0.08460  Biso   1.000  H
  H34      1.0000 0.41250  0.25360  0.41540  Biso   1.000  H
  H35      1.0000 0.41250  0.24640  0.91540  Biso   1.000  H
  H36      1.0000 0.58750  0.74640  0.58460  Biso   1.000  H
  C45      1.0000 0.44020  0.64510  0.02350  Biso   1.000  C
  C46      1.0000 0.55980  0.14510  0.47650  Biso   1.000  C
  C47      1.0000 0.55980  0.35490  0.97650  Biso   1.000  C
  C48      1.0000 0.44020  0.85490  0.52350  Biso   1.000  C
  H37      1.0000 0.41130  0.67600  0.95010  Biso   1.000  H
  H38      1.0000 0.58870  0.17600  0.54990  Biso   1.000  H
  H39      1.0000 0.58870  0.32400  0.04990  Biso   1.000  H
  H40      1.0000 0.41130  0.82400  0.45010  Biso   1.000  H
  C49      1.0000 0.42210  0.51390  0.15440  Biso   1.000  C
  C50      1.0000 0.57790  0.01390  0.34560  Biso   1.000  C
  C51      1.0000 0.57790  0.48610  0.84560  Biso   1.000  C
  C52      1.0000 0.42210  0.98610  0.65440  Biso   1.000  C
  C53      1.0000 0.53130  0.55780  0.23600  Biso   1.000  C
  C54      1.0000 0.46870  0.05780  0.26400  Biso   1.000  C
  C55      1.0000 0.46870  0.44220  0.76400  Biso   1.000  C
  C56      1.0000 0.53130  0.94220  0.73600  Biso   1.000  C
  C57      1.0000 0.59330  0.50790  0.35570  Biso   1.000  C
  C58      1.0000 0.40670  0.00790  0.14430  Biso   1.000  C
  C59      1.0000 0.40670  0.49210  0.64430  Biso   1.000  C
  C60      1.0000 0.59330  0.99210  0.85570  Biso   1.000  C
  C61      1.0000 0.34260  0.41770  0.17690  Biso   1.000  C
  C62      1.0000 0.65740  0.91770  0.32310  Biso   1.000  C
  C63      1.0000 0.65740  0.58230  0.82310  Biso   1.000  C
  C64      1.0000 0.34260  0.08230  0.67690  Biso   1.000  C
  N1       1.0000 0.86110  0.58340  0.29070  Biso   1.000  N
  N2       1.0000 0.13890  0.08340  0.20930  Biso   1.000  N
  N3       1.0000 0.13890  0.41660  0.70930  Biso   1.000  N
  N4       1.0000 0.86110  0.91660  0.79070  Biso   1.000  N
  N5       1.0000 0.91940  0.74210  0.44880  Biso   1.000  N
  N6       1.0000 0.08060  0.24210  0.05120  Biso   1.000  N
  N7       1.0000 0.08060  0.25790  0.55120  Biso   1.000  N
  N8       1.0000 0.91940  0.75790  0.94880  Biso   1.000  N
  N9       1.0000 0.59190  0.64770  0.20880  Biso   1.000  N
  N10      1.0000 0.40810  0.14770  0.29120  Biso   1.000  N
  N11      1.0000 0.40810  0.35230  0.79120  Biso   1.000  N
  N12      1.0000 0.59190  0.85230  0.70880  Biso   1.000  N
  N13      1.0000 0.37700  0.55730  0.04760  Biso   1.000  N
  N14      1.0000 0.62300  0.05730  0.45240  Biso   1.000  N
  N15      1.0000 0.62300  0.44270  0.95240  Biso   1.000  N
  N16      1.0000 0.37700  0.94270  0.54760  Biso   1.000  N
  O1       1.0000 0.68390  0.56470  0.42230  Biso   1.000  O
  O2       1.0000 0.31610  0.06470  0.07770  Biso   1.000  O
  O3       1.0000 0.31610  0.43530  0.57770  Biso   1.000  O
  O4       1.0000 0.68390  0.93530  0.92230  Biso   1.000  O
  O5       1.0000 0.55290  0.41470  0.37610  Biso   1.000  O
  O6       1.0000 0.44710  0.91470  0.12390  Biso   1.000  O
  O7       1.0000 0.44710  0.58530  0.62390  Biso   1.000  O
  O8       1.0000 0.55290  0.08530  0.87610  Biso   1.000  O
  O9       1.0000 0.27670  0.43640  0.23510  Biso   1.000  O
  O10      1.0000 0.72330  0.93640  0.26490  Biso   1.000  O
  O11      1.0000 0.72330  0.56360  0.76490  Biso   1.000  O
  O12      1.0000 0.27670  0.06360  0.73510  Biso   1.000  O
  O13      1.0000 0.34540  0.32400  0.12460  Biso   1.000  O
  O14      1.0000 0.65460  0.82400  0.37540  Biso   1.000  O
  O15      1.0000 0.65460  0.67600  0.87540  Biso   1.000  O
  O16      1.0000 0.34540  0.17600  0.62460  Biso   1.000  O
  O17      1.0000 0.33170  0.86720  0.87940  Biso   1.000  O
  O18      1.0000 0.66830  0.36720  0.62060  Biso   1.000  O
  O19      1.0000 0.66830  0.13280  0.12060  Biso   1.000  O
  O20      1.0000 0.33170  0.63280  0.37940  Biso   1.000  O
  Cu1      1.0000 0.74957  0.69830  0.33705  Biso   1.000  Cu
  Cu2      1.0000 0.25043  0.19830  0.16295  Biso   1.000  Cu
  Cu3      1.0000 0.25043  0.30170  0.66295  Biso   1.000  Cu
  Cu4      1.0000 0.74957  0.80170  0.83705  Biso   1.000  Cu
  H41      1.0000 0.37100  0.88000  0.94880  Biso   1.000  H
  H42      1.0000 0.62900  0.38000  0.55120  Biso   1.000  H
  H43      1.0000 0.62900  0.12000  0.05120  Biso   1.000  H
  H44      1.0000 0.37100  0.62000  0.44880  Biso   1.000  H
  H45      1.0000 0.31500  0.92600  0.83900  Biso   1.000  H
  H46      1.0000 0.68500  0.42600  0.66100  Biso   1.000  H
  H47      1.0000 0.68500  0.07400  0.16100  Biso   1.000  H
  H48      1.0000 0.31500  0.57400  0.33900  Biso   1.000  H
