data_image0
_cell_length_a       7.4592
_cell_length_b       7.4487
_cell_length_c       21.5
_cell_angle_alpha    90
_cell_angle_beta     90.777
_cell_angle_gamma    90

_symmetry_space_group_name_H-M    "P 1"
_symmetry_int_tables_number       1

loop_
  _symmetry_equiv_pos_as_xyz
  'x, y, z'

loop_
  _atom_site_label
  _atom_site_occupancy
  _atom_site_fract_x
  _atom_site_fract_y
  _atom_site_fract_z
  _atom_site_thermal_displace_type
  _atom_site_B_iso_or_equiv
  _atom_site_type_symbol
  C1       1.0000 0.71870  0.54160  0.53467  Biso   1.000  C
  C2       1.0000 0.28130  0.04160  0.96533  Biso   1.000  C
  C3       1.0000 0.28130  0.45840  0.46533  Biso   1.000  C
  C4       1.0000 0.71870  0.95840  0.03467  Biso   1.000  C
  C5       1.0000 0.65400  0.51050  0.59413  Biso   1.000  C
  C6       1.0000 0.34600  0.01050  0.90587  Biso   1.000  C
  C7       1.0000 0.34600  0.48950  0.40587  Biso   1.000  C
  C8       1.0000 0.65400  0.98950  0.09413  Biso   1.000  C
  C9       1.0000 0.62400  0.81260  0.60852  Biso   1.000  C
  C10      1.0000 0.37600  0.31260  0.89148  Biso   1.000  C
  C11      1.0000 0.37600  0.18740  0.39148  Biso   1.000  C
  C12      1.0000 0.62400  0.68740  0.10852  Biso   1.000  C
  H1       1.0000 0.59580  0.90950  0.63380  Biso   1.000  H
  H2       1.0000 0.40420  0.40950  0.86620  Biso   1.000  H
  H3       1.0000 0.40420  0.09050  0.36620  Biso   1.000  H
  H4       1.0000 0.59580  0.59050  0.13380  Biso   1.000  H
  C13      1.0000 0.67790  0.84530  0.54895  Biso   1.000  C
  C14      1.0000 0.32210  0.34530  0.95105  Biso   1.000  C
  C15      1.0000 0.32210  0.15470  0.45105  Biso   1.000  C
  C16      1.0000 0.67790  0.65470  0.04895  Biso   1.000  C
  H5       1.0000 0.67990  0.96250  0.53410  Biso   1.000  H
  H6       1.0000 0.32010  0.46250  0.96590  Biso   1.000  H
  H7       1.0000 0.32010  0.03750  0.46590  Biso   1.000  H
  H8       1.0000 0.67990  0.53750  0.03410  Biso   1.000  H
  C17      1.0000 0.78560  0.39840  0.49167  Biso   1.000  C
  C18      1.0000 0.21440  0.89840  0.00833  Biso   1.000  C
  C19      1.0000 0.21440  0.60160  0.50833  Biso   1.000  C
  C20      1.0000 0.78560  0.10160  0.99167  Biso   1.000  C
  C21      1.0000 0.62550  0.32370  0.62096  Biso   1.000  C
  C22      1.0000 0.37450  0.82370  0.87904  Biso   1.000  C
  C23      1.0000 0.37450  0.67630  0.37904  Biso   1.000  C
  C24      1.0000 0.62550  0.17630  0.12096  Biso   1.000  C
  C25      1.0000 0.14810  0.92820  0.63990  Biso   1.000  C
  C26      1.0000 0.85190  0.42820  0.86010  Biso   1.000  C
  C27      1.0000 0.85190  0.07180  0.36010  Biso   1.000  C
  C28      1.0000 0.14810  0.57180  0.13990  Biso   1.000  C
  H9       1.0000 0.27630  0.90620  0.64070  Biso   1.000  H
  H10      1.0000 0.72370  0.40620  0.85930  Biso   1.000  H
  H11      1.0000 0.72370  0.09380  0.35930  Biso   1.000  H
  H12      1.0000 0.27630  0.59380  0.14070  Biso   1.000  H
  H13      1.0000 0.08800  0.81300  0.63660  Biso   1.000  H
  H14      1.0000 0.91200  0.31300  0.86340  Biso   1.000  H
  H15      1.0000 0.91200  0.18700  0.36340  Biso   1.000  H
  H16      1.0000 0.08800  0.68700  0.13660  Biso   1.000  H
  C29      1.0000 0.09600  0.01650  0.69950  Biso   1.000  C
  C30      1.0000 0.90400  0.51650  0.80050  Biso   1.000  C
  C31      1.0000 0.90400  0.98350  0.30050  Biso   1.000  C
  C32      1.0000 0.09600  0.48350  0.19950  Biso   1.000  C
  H17      1.0000 0.12490  0.93560  0.73360  Biso   1.000  H
  H18      1.0000 0.87510  0.43560  0.76640  Biso   1.000  H
  H19      1.0000 0.87510  0.06440  0.26640  Biso   1.000  H
  H20      1.0000 0.12490  0.56440  0.23360  Biso   1.000  H
  H21      1.0000 0.96710  0.03350  0.69900  Biso   1.000  H
  H22      1.0000 0.03290  0.53350  0.80100  Biso   1.000  H
  H23      1.0000 0.03290  0.96650  0.30100  Biso   1.000  H
  H24      1.0000 0.96710  0.46650  0.19900  Biso   1.000  H
  C33      1.0000 0.18380  0.19460  0.71253  Biso   1.000  C
  C34      1.0000 0.81620  0.69460  0.78747  Biso   1.000  C
  C35      1.0000 0.81620  0.80540  0.28747  Biso   1.000  C
  C36      1.0000 0.18380  0.30540  0.21253  Biso   1.000  C
  H25      1.0000 0.15100  0.23490  0.75370  Biso   1.000  H
  H26      1.0000 0.84900  0.73490  0.74630  Biso   1.000  H
  H27      1.0000 0.84900  0.76510  0.24630  Biso   1.000  H
  H28      1.0000 0.15100  0.26510  0.25370  Biso   1.000  H
  H29      1.0000 0.31290  0.17990  0.71210  Biso   1.000  H
  H30      1.0000 0.68710  0.67990  0.78790  Biso   1.000  H
  H31      1.0000 0.68710  0.82010  0.28790  Biso   1.000  H
  H32      1.0000 0.31290  0.32010  0.21210  Biso   1.000  H
  N1       1.0000 0.72770  0.71040  0.51193  Biso   1.000  N
  N2       1.0000 0.27230  0.21040  0.98807  Biso   1.000  N
  N3       1.0000 0.27230  0.28960  0.48807  Biso   1.000  N
  N4       1.0000 0.72770  0.78960  0.01193  Biso   1.000  N
  N5       1.0000 0.61030  0.64660  0.63167  Biso   1.000  N
  N6       1.0000 0.38970  0.14660  0.86833  Biso   1.000  N
  N7       1.0000 0.38970  0.35340  0.36833  Biso   1.000  N
  N8       1.0000 0.61030  0.85340  0.13167  Biso   1.000  N
  N9       1.0000 0.10170  0.03810  0.58453  Biso   1.000  N
  N10      1.0000 0.89830  0.53810  0.91547  Biso   1.000  N
  N11      1.0000 0.89830  0.96190  0.41547  Biso   1.000  N
  N12      1.0000 0.10170  0.46190  0.08453  Biso   1.000  N
  H33      1.0000 0.98140  0.04640  0.58210  Biso   1.000  H
  H34      1.0000 0.01860  0.54640  0.91790  Biso   1.000  H
  H35      1.0000 0.01860  0.95360  0.41790  Biso   1.000  H
  H36      1.0000 0.98140  0.45360  0.08210  Biso   1.000  H
  H37      1.0000 0.13760  0.97770  0.55070  Biso   1.000  H
  H38      1.0000 0.86240  0.47770  0.94930  Biso   1.000  H
  H39      1.0000 0.86240  0.02230  0.44930  Biso   1.000  H
  H40      1.0000 0.13760  0.52230  0.05070  Biso   1.000  H
  N13      1.0000 0.13060  0.33300  0.66630  Biso   1.000  N
  N14      1.0000 0.86940  0.83300  0.83370  Biso   1.000  N
  N15      1.0000 0.86940  0.66700  0.33370  Biso   1.000  N
  N16      1.0000 0.13060  0.16700  0.16630  Biso   1.000  N
  H41      1.0000 0.17790  0.43860  0.67850  Biso   1.000  H
  H42      1.0000 0.82210  0.93860  0.82150  Biso   1.000  H
  H43      1.0000 0.82210  0.56140  0.32150  Biso   1.000  H
  H44      1.0000 0.17790  0.06140  0.17850  Biso   1.000  H
  H45      1.0000 0.01050  0.34450  0.66700  Biso   1.000  H
  H46      1.0000 0.98950  0.84450  0.83300  Biso   1.000  H
  H47      1.0000 0.98950  0.65550  0.33300  Biso   1.000  H
  H48      1.0000 0.01050  0.15550  0.16700  Biso   1.000  H
  O1       1.0000 0.82140  0.45000  0.43723  Biso   1.000  O
  O2       1.0000 0.17860  0.95000  0.06277  Biso   1.000  O
  O3       1.0000 0.17860  0.55000  0.56277  Biso   1.000  O
  O4       1.0000 0.82140  0.05000  0.93723  Biso   1.000  O
  O5       1.0000 0.80610  0.24360  0.51157  Biso   1.000  O
  O6       1.0000 0.19390  0.74360  0.98843  Biso   1.000  O
  O7       1.0000 0.19390  0.75640  0.48843  Biso   1.000  O
  O8       1.0000 0.80610  0.25640  0.01157  Biso   1.000  O
  O9       1.0000 0.48660  0.24180  0.60509  Biso   1.000  O
  O10      1.0000 0.51340  0.74180  0.89491  Biso   1.000  O
  O11      1.0000 0.51340  0.75820  0.39491  Biso   1.000  O
  O12      1.0000 0.48660  0.25820  0.10509  Biso   1.000  O
  O13      1.0000 0.74180  0.27030  0.65897  Biso   1.000  O
  O14      1.0000 0.25820  0.77030  0.84103  Biso   1.000  O
  O15      1.0000 0.25820  0.72970  0.34103  Biso   1.000  O
  O16      1.0000 0.74180  0.22970  0.15897  Biso   1.000  O
  O17      1.0000 0.35940  0.92360  0.23580  Biso   1.000  O
  O18      1.0000 0.64060  0.42360  0.26420  Biso   1.000  O
  O19      1.0000 0.64060  0.07640  0.76420  Biso   1.000  O
  O20      1.0000 0.35940  0.57640  0.73580  Biso   1.000  O
  Cu1      1.0000 0.20211  0.28822  0.57960  Biso   1.000  Cu
  Cu2      1.0000 0.79789  0.78822  0.92040  Biso   1.000  Cu
  Cu3      1.0000 0.79789  0.71178  0.42040  Biso   1.000  Cu
  Cu4      1.0000 0.20211  0.21178  0.07960  Biso   1.000  Cu
  H49      1.0000 0.34000  0.85600  0.26000  Biso   1.000  H
  H50      1.0000 0.66000  0.35600  0.24000  Biso   1.000  H
  H51      1.0000 0.66000  0.14400  0.74000  Biso   1.000  H
  H52      1.0000 0.34000  0.64400  0.76000  Biso   1.000  H
  H53      1.0000 0.43300  0.88700  0.21600  Biso   1.000  H
  H54      1.0000 0.56700  0.38700  0.28400  Biso   1.000  H
  H55      1.0000 0.56700  0.11300  0.78400  Biso   1.000  H
  H56      1.0000 0.43300  0.61300  0.71600  Biso   1.000  H
