data_image0
_cell_length_a       11.2909
_cell_length_b       25.677
_cell_length_c       9.9063
_cell_angle_alpha    90
_cell_angle_beta     100.982
_cell_angle_gamma    90

_symmetry_space_group_name_H-M    "P 1"
_symmetry_int_tables_number       1

loop_
  _symmetry_equiv_pos_as_xyz
  'x, y, z'

loop_
  _atom_site_label
  _atom_site_occupancy
  _atom_site_fract_x
  _atom_site_fract_y
  _atom_site_fract_z
  _atom_site_thermal_displace_type
  _atom_site_B_iso_or_equiv
  _atom_site_type_symbol
  C1       1.0000 0.52770  0.21065  0.69040  Biso   1.000  C
  C2       1.0000 0.47230  0.71065  0.80960  Biso   1.000  C
  C3       1.0000 0.47230  0.78935  0.30960  Biso   1.000  C
  C4       1.0000 0.52770  0.28935  0.19040  Biso   1.000  C
  C5       1.0000 0.61350  0.16756  0.66980  Biso   1.000  C
  C6       1.0000 0.38650  0.66756  0.83020  Biso   1.000  C
  C7       1.0000 0.38650  0.83244  0.33020  Biso   1.000  C
  C8       1.0000 0.61350  0.33244  0.16980  Biso   1.000  C
  H1       1.0000 0.69480  0.17540  0.72360  Biso   1.000  H
  H2       1.0000 0.30520  0.67540  0.77640  Biso   1.000  H
  H3       1.0000 0.30520  0.82460  0.27640  Biso   1.000  H
  H4       1.0000 0.69480  0.32460  0.22360  Biso   1.000  H
  H5       1.0000 0.61960  0.16590  0.57150  Biso   1.000  H
  H6       1.0000 0.38040  0.66590  0.92850  Biso   1.000  H
  H7       1.0000 0.38040  0.83410  0.42850  Biso   1.000  H
  H8       1.0000 0.61960  0.33410  0.07150  Biso   1.000  H
  C9       1.0000 0.57190  0.11480  0.71450  Biso   1.000  C
  C10      1.0000 0.42810  0.61480  0.78550  Biso   1.000  C
  C11      1.0000 0.42810  0.88520  0.28550  Biso   1.000  C
  C12      1.0000 0.57190  0.38520  0.21450  Biso   1.000  C
  H9       1.0000 0.63570  0.08860  0.71160  Biso   1.000  H
  H10      1.0000 0.36430  0.58860  0.78840  Biso   1.000  H
  H11      1.0000 0.36430  0.91140  0.28840  Biso   1.000  H
  H12      1.0000 0.63570  0.41140  0.21160  Biso   1.000  H
  H13      1.0000 0.55980  0.11740  0.81070  Biso   1.000  H
  H14      1.0000 0.44020  0.61740  0.68930  Biso   1.000  H
  H15      1.0000 0.44020  0.88260  0.18930  Biso   1.000  H
  H16      1.0000 0.55980  0.38260  0.31070  Biso   1.000  H
  C13      1.0000 0.45870  0.09730  0.62620  Biso   1.000  C
  C14      1.0000 0.54130  0.59730  0.87380  Biso   1.000  C
  C15      1.0000 0.54130  0.90270  0.37380  Biso   1.000  C
  C16      1.0000 0.45870  0.40270  0.12620  Biso   1.000  C
  H17      1.0000 0.47250  0.09380  0.53080  Biso   1.000  H
  H18      1.0000 0.52750  0.59380  0.96920  Biso   1.000  H
  H19      1.0000 0.52750  0.90620  0.46920  Biso   1.000  H
  H20      1.0000 0.47250  0.40620  0.03080  Biso   1.000  H
  H21      1.0000 0.39670  0.12460  0.62590  Biso   1.000  H
  H22      1.0000 0.60330  0.62460  0.87410  Biso   1.000  H
  H23      1.0000 0.60330  0.87540  0.37410  Biso   1.000  H
  H24      1.0000 0.39670  0.37540  0.12590  Biso   1.000  H
  C17      1.0000 0.41010  0.04650  0.66830  Biso   1.000  C
  C18      1.0000 0.58990  0.54650  0.83170  Biso   1.000  C
  C19      1.0000 0.58990  0.95350  0.33170  Biso   1.000  C
  C20      1.0000 0.41010  0.45350  0.16830  Biso   1.000  C
  C21      1.0000 0.52940  0.35039  0.70090  Biso   1.000  C
  C22      1.0000 0.47060  0.85039  0.79910  Biso   1.000  C
  C23      1.0000 0.47060  0.64961  0.29910  Biso   1.000  C
  C24      1.0000 0.52940  0.14961  0.20090  Biso   1.000  C
  C25      1.0000 0.62730  0.38780  0.67860  Biso   1.000  C
  C26      1.0000 0.37270  0.88780  0.82140  Biso   1.000  C
  C27      1.0000 0.37270  0.61220  0.32140  Biso   1.000  C
  C28      1.0000 0.62730  0.11220  0.17860  Biso   1.000  C
  H25      1.0000 0.64010  0.41430  0.75260  Biso   1.000  H
  H26      1.0000 0.35990  0.91430  0.74740  Biso   1.000  H
  H27      1.0000 0.35990  0.58570  0.24740  Biso   1.000  H
  H28      1.0000 0.64010  0.08570  0.25260  Biso   1.000  H
  H29      1.0000 0.60210  0.40600  0.58960  Biso   1.000  H
  H30      1.0000 0.39790  0.90600  0.91040  Biso   1.000  H
  H31      1.0000 0.39790  0.59400  0.41040  Biso   1.000  H
  H32      1.0000 0.60210  0.09400  0.08960  Biso   1.000  H
  C29      1.0000 0.74880  0.35740  0.67860  Biso   1.000  C
  C30      1.0000 0.25120  0.85740  0.82140  Biso   1.000  C
  C31      1.0000 0.25120  0.64260  0.32140  Biso   1.000  C
  C32      1.0000 0.74880  0.14260  0.17860  Biso   1.000  C
  H33      1.0000 0.81180  0.38230  0.66320  Biso   1.000  H
  H34      1.0000 0.18820  0.88230  0.83680  Biso   1.000  H
  H35      1.0000 0.18820  0.61770  0.33680  Biso   1.000  H
  H36      1.0000 0.81180  0.11770  0.16320  Biso   1.000  H
  H37      1.0000 0.77600  0.34100  0.76960  Biso   1.000  H
  H38      1.0000 0.22400  0.84100  0.73040  Biso   1.000  H
  H39      1.0000 0.22400  0.65900  0.23040  Biso   1.000  H
  H40      1.0000 0.77600  0.15900  0.26960  Biso   1.000  H
  C33      1.0000 0.73510  0.32020  0.57960  Biso   1.000  C
  C34      1.0000 0.26490  0.82020  0.92040  Biso   1.000  C
  C35      1.0000 0.26490  0.67980  0.42040  Biso   1.000  C
  C36      1.0000 0.73510  0.17980  0.07960  Biso   1.000  C
  H41      1.0000 0.70230  0.33670  0.48990  Biso   1.000  H
  H42      1.0000 0.29770  0.83670  0.01010  Biso   1.000  H
  H43      1.0000 0.29770  0.66330  0.51010  Biso   1.000  H
  H44      1.0000 0.70230  0.16330  0.98990  Biso   1.000  H
  H45      1.0000 0.67460  0.29460  0.59850  Biso   1.000  H
  H46      1.0000 0.32540  0.79460  0.90150  Biso   1.000  H
  H47      1.0000 0.32540  0.70540  0.40150  Biso   1.000  H
  H48      1.0000 0.67460  0.20540  0.09850  Biso   1.000  H
  C37      1.0000 0.85260  0.29030  0.56700  Biso   1.000  C
  C38      1.0000 0.14740  0.79030  0.93300  Biso   1.000  C
  C39      1.0000 0.14740  0.70970  0.43300  Biso   1.000  C
  C40      1.0000 0.85260  0.20970  0.06700  Biso   1.000  C
  C41      1.0000 0.22530  0.35021  0.76200  Biso   1.000  C
  C42      1.0000 0.77470  0.85021  0.73800  Biso   1.000  C
  C43      1.0000 0.77470  0.64979  0.23800  Biso   1.000  C
  C44      1.0000 0.22530  0.14979  0.26200  Biso   1.000  C
  C45      1.0000 0.13760  0.39260  0.78300  Biso   1.000  C
  C46      1.0000 0.86240  0.89260  0.71700  Biso   1.000  C
  C47      1.0000 0.86240  0.60740  0.21700  Biso   1.000  C
  C48      1.0000 0.13760  0.10740  0.28300  Biso   1.000  C
  H49      1.0000 0.16900  0.41080  0.87070  Biso   1.000  H
  H50      1.0000 0.83100  0.91080  0.62930  Biso   1.000  H
  H51      1.0000 0.83100  0.58920  0.12930  Biso   1.000  H
  H52      1.0000 0.16900  0.08920  0.37070  Biso   1.000  H
  H53      1.0000 0.05950  0.37650  0.79070  Biso   1.000  H
  H54      1.0000 0.94050  0.87650  0.70930  Biso   1.000  H
  H55      1.0000 0.94050  0.62350  0.20930  Biso   1.000  H
  H56      1.0000 0.05950  0.12350  0.29070  Biso   1.000  H
  C49      1.0000 0.11650  0.43250  0.66650  Biso   1.000  C
  C50      1.0000 0.88350  0.93250  0.83350  Biso   1.000  C
  C51      1.0000 0.88350  0.56750  0.33350  Biso   1.000  C
  C52      1.0000 0.11650  0.06750  0.16650  Biso   1.000  C
  H57      1.0000 0.08040  0.41490  0.57940  Biso   1.000  H
  H58      1.0000 0.91960  0.91490  0.92060  Biso   1.000  H
  H59      1.0000 0.91960  0.58510  0.42060  Biso   1.000  H
  H60      1.0000 0.08040  0.08510  0.07940  Biso   1.000  H
  H61      1.0000 0.05900  0.45930  0.68600  Biso   1.000  H
  H62      1.0000 0.94100  0.95930  0.81400  Biso   1.000  H
  H63      1.0000 0.94100  0.54070  0.31400  Biso   1.000  H
  H64      1.0000 0.05900  0.04070  0.18600  Biso   1.000  H
  C53      1.0000 0.23450  0.45860  0.65070  Biso   1.000  C
  C54      1.0000 0.76550  0.95860  0.84930  Biso   1.000  C
  C55      1.0000 0.76550  0.54140  0.34930  Biso   1.000  C
  C56      1.0000 0.23450  0.04140  0.15070  Biso   1.000  C
  H65      1.0000 0.27330  0.47350  0.74040  Biso   1.000  H
  H66      1.0000 0.72670  0.97350  0.75960  Biso   1.000  H
  H67      1.0000 0.72670  0.52650  0.25960  Biso   1.000  H
  H68      1.0000 0.27330  0.02650  0.24040  Biso   1.000  H
  H69      1.0000 0.28950  0.43180  0.62540  Biso   1.000  H
  H70      1.0000 0.71050  0.93180  0.87460  Biso   1.000  H
  H71      1.0000 0.71050  0.56820  0.37460  Biso   1.000  H
  H72      1.0000 0.28950  0.06820  0.12540  Biso   1.000  H
  C57      1.0000 0.21870  0.50030  0.54590  Biso   1.000  C
  C58      1.0000 0.78130  0.00030  0.95410  Biso   1.000  C
  C59      1.0000 0.78130  0.49970  0.45410  Biso   1.000  C
  C60      1.0000 0.21870  0.99970  0.04590  Biso   1.000  C
  C61      1.0000 0.23000  0.20909  0.76920  Biso   1.000  C
  C62      1.0000 0.77000  0.70909  0.73080  Biso   1.000  C
  C63      1.0000 0.77000  0.79091  0.23080  Biso   1.000  C
  C64      1.0000 0.23000  0.29091  0.26920  Biso   1.000  C
  C65      1.0000 0.14770  0.16530  0.79260  Biso   1.000  C
  C66      1.0000 0.85230  0.66530  0.70740  Biso   1.000  C
  C67      1.0000 0.85230  0.83470  0.20740  Biso   1.000  C
  C68      1.0000 0.14770  0.33470  0.29260  Biso   1.000  C
  H73      1.0000 0.09410  0.17790  0.85390  Biso   1.000  H
  H74      1.0000 0.90590  0.67790  0.64610  Biso   1.000  H
  H75      1.0000 0.90590  0.82210  0.14610  Biso   1.000  H
  H76      1.0000 0.09410  0.32210  0.35390  Biso   1.000  H
  H77      1.0000 0.19750  0.13680  0.84130  Biso   1.000  H
  H78      1.0000 0.80250  0.63680  0.65870  Biso   1.000  H
  H79      1.0000 0.80250  0.86320  0.15870  Biso   1.000  H
  H80      1.0000 0.19750  0.36320  0.34130  Biso   1.000  H
  C69      1.0000 0.06990  0.14300  0.66390  Biso   1.000  C
  C70      1.0000 0.93010  0.64300  0.83610  Biso   1.000  C
  C71      1.0000 0.93010  0.85700  0.33610  Biso   1.000  C
  C72      1.0000 0.06990  0.35700  0.16390  Biso   1.000  C
  H81      1.0000 0.01760  0.17090  0.61600  Biso   1.000  H
  H82      1.0000 0.98240  0.67090  0.88400  Biso   1.000  H
  H83      1.0000 0.98240  0.82910  0.38400  Biso   1.000  H
  H84      1.0000 0.01760  0.32910  0.11600  Biso   1.000  H
  H85      1.0000 0.12260  0.13060  0.60130  Biso   1.000  H
  H86      1.0000 0.87740  0.63060  0.89870  Biso   1.000  H
  H87      1.0000 0.87740  0.86940  0.39870  Biso   1.000  H
  H88      1.0000 0.12260  0.36940  0.10130  Biso   1.000  H
  C73      1.0000 0.99230  0.09880  0.69410  Biso   1.000  C
  C74      1.0000 0.00770  0.59880  0.80590  Biso   1.000  C
  C75      1.0000 0.00770  0.90120  0.30590  Biso   1.000  C
  C76      1.0000 0.99230  0.40120  0.19410  Biso   1.000  C
  H89      1.0000 0.04560  0.07020  0.73660  Biso   1.000  H
  H90      1.0000 0.95440  0.57020  0.76340  Biso   1.000  H
  H91      1.0000 0.95440  0.92980  0.26340  Biso   1.000  H
  H92      1.0000 0.04560  0.42980  0.23660  Biso   1.000  H
  H93      1.0000 0.94520  0.11070  0.76290  Biso   1.000  H
  H94      1.0000 0.05480  0.61070  0.73710  Biso   1.000  H
  H95      1.0000 0.05480  0.88930  0.23710  Biso   1.000  H
  H96      1.0000 0.94520  0.38930  0.26290  Biso   1.000  H
  C77      1.0000 0.90800  0.07760  0.57510  Biso   1.000  C
  C78      1.0000 0.09200  0.57760  0.92490  Biso   1.000  C
  C79      1.0000 0.09200  0.92240  0.42490  Biso   1.000  C
  C80      1.0000 0.90800  0.42240  0.07510  Biso   1.000  C
  Cu1      1.0000 0.33068  0.28208  0.60044  Biso   1.000  Cu
  Cu2      1.0000 0.66932  0.78208  0.89956  Biso   1.000  Cu
  Cu3      1.0000 0.66932  0.71792  0.39956  Biso   1.000  Cu
  Cu4      1.0000 0.33068  0.21792  0.10044  Biso   1.000  Cu
  Cu5      1.0000 0.42184  0.28112  0.85988  Biso   1.000  Cu
  Cu6      1.0000 0.57816  0.78112  0.64012  Biso   1.000  Cu
  Cu7      1.0000 0.57816  0.71888  0.14012  Biso   1.000  Cu
  Cu8      1.0000 0.42184  0.21888  0.35988  Biso   1.000  Cu
  F1       1.0000 0.31080  0.03270  0.58590  Biso   1.000  F
  F2       1.0000 0.68920  0.53270  0.91410  Biso   1.000  F
  F3       1.0000 0.68920  0.96730  0.41410  Biso   1.000  F
  F4       1.0000 0.31080  0.46730  0.08590  Biso   1.000  F
  F5       1.0000 0.48610  0.00725  0.67450  Biso   1.000  F
  F6       1.0000 0.51390  0.50725  0.82550  Biso   1.000  F
  F7       1.0000 0.51390  0.99275  0.32550  Biso   1.000  F
  F8       1.0000 0.48610  0.49275  0.17450  Biso   1.000  F
  F9       1.0000 0.38470  0.04880  0.79330  Biso   1.000  F
  F10      1.0000 0.61530  0.54880  0.70670  Biso   1.000  F
  F11      1.0000 0.61530  0.95120  0.20670  Biso   1.000  F
  F12      1.0000 0.38470  0.45120  0.29330  Biso   1.000  F
  F13      1.0000 0.92810  0.32260  0.52650  Biso   1.000  F
  F14      1.0000 0.07190  0.82260  0.97350  Biso   1.000  F
  F15      1.0000 0.07190  0.67740  0.47350  Biso   1.000  F
  F16      1.0000 0.92810  0.17740  0.02650  Biso   1.000  F
  F17      1.0000 0.92010  0.27100  0.67610  Biso   1.000  F
  F18      1.0000 0.07990  0.77100  0.82390  Biso   1.000  F
  F19      1.0000 0.07990  0.72900  0.32390  Biso   1.000  F
  F20      1.0000 0.92010  0.22900  0.17610  Biso   1.000  F
  F21      1.0000 0.83010  0.25420  0.48150  Biso   1.000  F
  F22      1.0000 0.16990  0.75420  0.01850  Biso   1.000  F
  F23      1.0000 0.16990  0.74580  0.51850  Biso   1.000  F
  F24      1.0000 0.83010  0.24580  0.98150  Biso   1.000  F
  F25      1.0000 0.15160  0.54031  0.57630  Biso   1.000  F
  F26      1.0000 0.84840  0.04031  0.92370  Biso   1.000  F
  F27      1.0000 0.84840  0.45969  0.42370  Biso   1.000  F
  F28      1.0000 0.15160  0.95969  0.07630  Biso   1.000  F
  F29      1.0000 0.32530  0.52103  0.53130  Biso   1.000  F
  F30      1.0000 0.67470  0.02103  0.96870  Biso   1.000  F
  F31      1.0000 0.67470  0.47897  0.46870  Biso   1.000  F
  F32      1.0000 0.32530  0.97897  0.03130  Biso   1.000  F
  F33      1.0000 0.16470  0.48398  0.42050  Biso   1.000  F
  F34      1.0000 0.83530  0.98398  0.07950  Biso   1.000  F
  F35      1.0000 0.83530  0.51602  0.57950  Biso   1.000  F
  F36      1.0000 0.16470  0.01602  0.92050  Biso   1.000  F
  F37      1.0000 0.84050  0.03818  0.60450  Biso   1.000  F
  F38      1.0000 0.15950  0.53818  0.89550  Biso   1.000  F
  F39      1.0000 0.15950  0.96182  0.39550  Biso   1.000  F
  F40      1.0000 0.84050  0.46182  0.10450  Biso   1.000  F
  F41      1.0000 0.95560  0.06344  0.47190  Biso   1.000  F
  F42      1.0000 0.04440  0.56344  0.02810  Biso   1.000  F
  F43      1.0000 0.04440  0.93656  0.52810  Biso   1.000  F
  F44      1.0000 0.95560  0.43656  0.97190  Biso   1.000  F
  F45      1.0000 0.82600  0.11355  0.52090  Biso   1.000  F
  F46      1.0000 0.17400  0.61355  0.97910  Biso   1.000  F
  F47      1.0000 0.17400  0.88645  0.47910  Biso   1.000  F
  F48      1.0000 0.82600  0.38645  0.02090  Biso   1.000  F
  O1       1.0000 0.46210  0.23170  0.58400  Biso   1.000  O
  O2       1.0000 0.53790  0.73170  0.91600  Biso   1.000  O
  O3       1.0000 0.53790  0.76830  0.41600  Biso   1.000  O
  O4       1.0000 0.46210  0.26830  0.08400  Biso   1.000  O
  O5       1.0000 0.52230  0.22320  0.81130  Biso   1.000  O
  O6       1.0000 0.47770  0.72320  0.68870  Biso   1.000  O
  O7       1.0000 0.47770  0.77680  0.18870  Biso   1.000  O
  O8       1.0000 0.52230  0.27680  0.31130  Biso   1.000  O
  O9       1.0000 0.44690  0.33951  0.60020  Biso   1.000  O
  O10      1.0000 0.55310  0.83951  0.89980  Biso   1.000  O
  O11      1.0000 0.55310  0.66049  0.39980  Biso   1.000  O
  O12      1.0000 0.44690  0.16049  0.10020  Biso   1.000  O
  O13      1.0000 0.53990  0.33065  0.82010  Biso   1.000  O
  O14      1.0000 0.46010  0.83065  0.67990  Biso   1.000  O
  O15      1.0000 0.46010  0.66935  0.17990  Biso   1.000  O
  O16      1.0000 0.53990  0.16935  0.32010  Biso   1.000  O
  O17      1.0000 0.21280  0.33089  0.64270  Biso   1.000  O
  O18      1.0000 0.78720  0.83089  0.85730  Biso   1.000  O
  O19      1.0000 0.78720  0.66911  0.35730  Biso   1.000  O
  O20      1.0000 0.21280  0.16911  0.14270  Biso   1.000  O
  O21      1.0000 0.30510  0.33736  0.86390  Biso   1.000  O
  O22      1.0000 0.69490  0.83736  0.63610  Biso   1.000  O
  O23      1.0000 0.69490  0.66264  0.13610  Biso   1.000  O
  O24      1.0000 0.30510  0.16264  0.36390  Biso   1.000  O
  O25      1.0000 0.23460  0.22290  0.64920  Biso   1.000  O
  O26      1.0000 0.76540  0.72290  0.85080  Biso   1.000  O
  O27      1.0000 0.76540  0.77710  0.35080  Biso   1.000  O
  O28      1.0000 0.23460  0.27710  0.14920  Biso   1.000  O
  O29      1.0000 0.29430  0.22978  0.87630  Biso   1.000  O
  O30      1.0000 0.70570  0.72978  0.62370  Biso   1.000  O
  O31      1.0000 0.70570  0.77022  0.12370  Biso   1.000  O
  O32      1.0000 0.29430  0.27022  0.37630  Biso   1.000  O
