data_image0
_cell_length_a       9.722
_cell_length_b       23.218
_cell_length_c       15.305
_cell_angle_alpha    90
_cell_angle_beta     93.62
_cell_angle_gamma    90

_symmetry_space_group_name_H-M    "P 1"
_symmetry_int_tables_number       1

loop_
  _symmetry_equiv_pos_as_xyz
  'x, y, z'

loop_
  _atom_site_label
  _atom_site_occupancy
  _atom_site_fract_x
  _atom_site_fract_y
  _atom_site_fract_z
  _atom_site_thermal_displace_type
  _atom_site_B_iso_or_equiv
  _atom_site_type_symbol
  Cu1      1.0000 0.70145  0.00818  0.21627  Biso   1.000  Cu
  Cu2      1.0000 0.20145  0.49182  0.71627  Biso   1.000  Cu
  Cu3      1.0000 0.29855  0.99182  0.78373  Biso   1.000  Cu
  Cu4      1.0000 0.79855  0.50818  0.28373  Biso   1.000  Cu
  Cu5      1.0000 0.56223  0.20886  0.25161  Biso   1.000  Cu
  Cu6      1.0000 0.06223  0.29114  0.75161  Biso   1.000  Cu
  Cu7      1.0000 0.43777  0.79114  0.74839  Biso   1.000  Cu
  Cu8      1.0000 0.93777  0.70886  0.24839  Biso   1.000  Cu
  Cu9      1.0000 0.53443  0.42116  0.21783  Biso   1.000  Cu
  Cu10     1.0000 0.03443  0.07884  0.71783  Biso   1.000  Cu
  Cu11     1.0000 0.46557  0.57884  0.78217  Biso   1.000  Cu
  Cu12     1.0000 0.96557  0.92116  0.28217  Biso   1.000  Cu
  O1       1.0000 0.79170  0.07370  0.16060  Biso   1.000  O
  O2       1.0000 0.29170  0.42630  0.66060  Biso   1.000  O
  O3       1.0000 0.20830  0.92630  0.83940  Biso   1.000  O
  O4       1.0000 0.70830  0.57370  0.33940  Biso   1.000  O
  O5       1.0000 0.64690  0.37020  0.14790  Biso   1.000  O
  O6       1.0000 0.14690  0.12980  0.64790  Biso   1.000  O
  O7       1.0000 0.35310  0.62980  0.85210  Biso   1.000  O
  O8       1.0000 0.85310  0.87020  0.35210  Biso   1.000  O
  O9       1.0000 0.80260  0.94580  0.16970  Biso   1.000  O
  O10      1.0000 0.30260  0.55420  0.66970  Biso   1.000  O
  O11      1.0000 0.19740  0.05420  0.83030  Biso   1.000  O
  O12      1.0000 0.69740  0.44580  0.33030  Biso   1.000  O
  O13      1.0000 0.63570  0.94050  0.06660  Biso   1.000  O
  O14      1.0000 0.13570  0.55950  0.56660  Biso   1.000  O
  O15      1.0000 0.36430  0.05950  0.93340  Biso   1.000  O
  O16      1.0000 0.86430  0.44050  0.43340  Biso   1.000  O
  O17      1.0000 0.37380  0.19200  0.28150  Biso   1.000  O
  O18      1.0000 0.87380  0.30800  0.78150  Biso   1.000  O
  O19      1.0000 0.62620  0.80800  0.71850  Biso   1.000  O
  O20      1.0000 0.12620  0.69200  0.21850  Biso   1.000  O
  O21      1.0000 0.29820  0.15230  0.15570  Biso   1.000  O
  O22      1.0000 0.79820  0.34770  0.65570  Biso   1.000  O
  O23      1.0000 0.70180  0.84770  0.84430  Biso   1.000  O
  O24      1.0000 0.20180  0.65230  0.34430  Biso   1.000  O
  O25      1.0000 0.60930  0.21500  0.38900  Biso   1.000  O
  O26      1.0000 0.10930  0.28500  0.88900  Biso   1.000  O
  O27      1.0000 0.39070  0.78500  0.61100  Biso   1.000  O
  O28      1.0000 0.89070  0.71500  0.11100  Biso   1.000  O
  O29      1.0000 0.82090  0.23810  0.35660  Biso   1.000  O
  O30      1.0000 0.32090  0.26190  0.85660  Biso   1.000  O
  O31      1.0000 0.17910  0.76190  0.64340  Biso   1.000  O
  O32      1.0000 0.67910  0.73810  0.14340  Biso   1.000  O
  O33      1.0000 0.89020  0.99170  0.32560  Biso   1.000  O
  O34      1.0000 0.39020  0.50830  0.82560  Biso   1.000  O
  O35      1.0000 0.10980  0.00830  0.67440  Biso   1.000  O
  O36      1.0000 0.60980  0.49170  0.17440  Biso   1.000  O
  O37      1.0000 0.08250  0.00820  0.40460  Biso   1.000  O
  O38      1.0000 0.58250  0.49180  0.90460  Biso   1.000  O
  O39      1.0000 0.91750  0.99180  0.59540  Biso   1.000  O
  O40      1.0000 0.41750  0.50820  0.09540  Biso   1.000  O
  O41      1.0000 0.50820  0.13430  0.04430  Biso   1.000  O
  O42      1.0000 0.00820  0.36570  0.54430  Biso   1.000  O
  O43      1.0000 0.49180  0.86570  0.95570  Biso   1.000  O
  O44      1.0000 0.99180  0.63430  0.45570  Biso   1.000  O
  O45      1.0000 0.26430  0.07360  0.50420  Biso   1.000  O
  O46      1.0000 0.76430  0.42640  0.00420  Biso   1.000  O
  O47      1.0000 0.73570  0.92640  0.49580  Biso   1.000  O
  O48      1.0000 0.23570  0.57360  0.99580  Biso   1.000  O
  O49      1.0000 0.55630  0.21140  0.91520  Biso   1.000  O
  O50      1.0000 0.05630  0.28860  0.41520  Biso   1.000  O
  O51      1.0000 0.44370  0.78860  0.08480  Biso   1.000  O
  O52      1.0000 0.94370  0.71140  0.58480  Biso   1.000  O
  N1       1.0000 0.56810  0.96240  0.28320  Biso   1.000  N
  N2       1.0000 0.06810  0.53760  0.78320  Biso   1.000  N
  N3       1.0000 0.43190  0.03760  0.71680  Biso   1.000  N
  N4       1.0000 0.93190  0.46240  0.21680  Biso   1.000  N
  N5       1.0000 0.48320  0.09520  0.38940  Biso   1.000  N
  N6       1.0000 0.98320  0.40480  0.88940  Biso   1.000  N
  N7       1.0000 0.51680  0.90480  0.61060  Biso   1.000  N
  N8       1.0000 0.01680  0.59520  0.11060  Biso   1.000  N
  N9       1.0000 0.60130  0.07030  0.26530  Biso   1.000  N
  N10      1.0000 0.10130  0.42970  0.76530  Biso   1.000  N
  N11      1.0000 0.39870  0.92970  0.73470  Biso   1.000  N
  N12      1.0000 0.89870  0.57030  0.23470  Biso   1.000  N
  N13      1.0000 0.63870  0.12560  0.24150  Biso   1.000  N
  N14      1.0000 0.13870  0.37440  0.74150  Biso   1.000  N
  N15      1.0000 0.36130  0.87440  0.75850  Biso   1.000  N
  N16      1.0000 0.86130  0.62560  0.25850  Biso   1.000  N
  N17      1.0000 0.69850  0.22000  0.16650  Biso   1.000  N
  N18      1.0000 0.19850  0.28000  0.66650  Biso   1.000  N
  N19      1.0000 0.30150  0.78000  0.83350  Biso   1.000  N
  N20      1.0000 0.80150  0.72000  0.33350  Biso   1.000  N
  N21      1.0000 0.53560  0.29850  0.22220  Biso   1.000  N
  N22      1.0000 0.03560  0.20150  0.72220  Biso   1.000  N
  N23      1.0000 0.46440  0.70150  0.77780  Biso   1.000  N
  N24      1.0000 0.96440  0.79850  0.27780  Biso   1.000  N
  N25      1.0000 0.46790  0.34730  0.25310  Biso   1.000  N
  N26      1.0000 0.96790  0.15270  0.75310  Biso   1.000  N
  N27      1.0000 0.53210  0.65270  0.74690  Biso   1.000  N
  N28      1.0000 0.03210  0.84730  0.24690  Biso   1.000  N
  N29      1.0000 0.30440  0.29900  0.33270  Biso   1.000  N
  N30      1.0000 0.80440  0.20100  0.83270  Biso   1.000  N
  N31      1.0000 0.69560  0.70100  0.66730  Biso   1.000  N
  N32      1.0000 0.19560  0.79900  0.16730  Biso   1.000  N
  N33      1.0000 0.38430  0.44790  0.29150  Biso   1.000  N
  N34      1.0000 0.88430  0.05210  0.79150  Biso   1.000  N
  N35      1.0000 0.61570  0.55210  0.70850  Biso   1.000  N
  N36      1.0000 0.11570  0.94790  0.20850  Biso   1.000  N
  C1       1.0000 0.54240  0.90710  0.27990  Biso   1.000  C
  C2       1.0000 0.04240  0.59290  0.77990  Biso   1.000  C
  C3       1.0000 0.45760  0.09290  0.72010  Biso   1.000  C
  C4       1.0000 0.95760  0.40710  0.22010  Biso   1.000  C
  C5       1.0000 0.44880  0.88010  0.33190  Biso   1.000  C
  C6       1.0000 0.94880  0.61990  0.83190  Biso   1.000  C
  C7       1.0000 0.55120  0.11990  0.66810  Biso   1.000  C
  C8       1.0000 0.05120  0.38010  0.16810  Biso   1.000  C
  C9       1.0000 0.37970  0.91400  0.38810  Biso   1.000  C
  C10      1.0000 0.87970  0.58600  0.88810  Biso   1.000  C
  C11      1.0000 0.62030  0.08600  0.61190  Biso   1.000  C
  C12      1.0000 0.12030  0.41400  0.11190  Biso   1.000  C
  C13      1.0000 0.40680  0.97290  0.39110  Biso   1.000  C
  C14      1.0000 0.90680  0.52710  0.89110  Biso   1.000  C
  C15      1.0000 0.59320  0.02710  0.60890  Biso   1.000  C
  C16      1.0000 0.09320  0.47290  0.10890  Biso   1.000  C
  C17      1.0000 0.49760  0.99580  0.33920  Biso   1.000  C
  C18      1.0000 0.99760  0.50420  0.83920  Biso   1.000  C
  C19      1.0000 0.50240  0.00420  0.66080  Biso   1.000  C
  C20      1.0000 0.00240  0.49580  0.16080  Biso   1.000  C
  C21      1.0000 0.52770  0.05850  0.33180  Biso   1.000  C
  C22      1.0000 0.02770  0.44150  0.83180  Biso   1.000  C
  C23      1.0000 0.47230  0.94150  0.66820  Biso   1.000  C
  C24      1.0000 0.97230  0.55850  0.16820  Biso   1.000  C
  C25      1.0000 0.73450  0.12080  0.18270  Biso   1.000  C
  C26      1.0000 0.23450  0.37920  0.68270  Biso   1.000  C
  C27      1.0000 0.26550  0.87920  0.81730  Biso   1.000  C
  C28      1.0000 0.76550  0.62080  0.31730  Biso   1.000  C
  C29      1.0000 0.77220  0.17570  0.14190  Biso   1.000  C
  C30      1.0000 0.27220  0.32430  0.64190  Biso   1.000  C
  C31      1.0000 0.22780  0.82430  0.85810  Biso   1.000  C
  C32      1.0000 0.72780  0.67570  0.35810  Biso   1.000  C
  C33      1.0000 0.87020  0.18160  0.08180  Biso   1.000  C
  C34      1.0000 0.37020  0.31840  0.58180  Biso   1.000  C
  C35      1.0000 0.12980  0.81840  0.91820  Biso   1.000  C
  C36      1.0000 0.62980  0.68160  0.41820  Biso   1.000  C
  C37      1.0000 0.89010  0.23510  0.04480  Biso   1.000  C
  C38      1.0000 0.39010  0.26490  0.54480  Biso   1.000  C
  C39      1.0000 0.10990  0.76490  0.95520  Biso   1.000  C
  C40      1.0000 0.60990  0.73510  0.45520  Biso   1.000  C
  C41      1.0000 0.80990  0.28130  0.06930  Biso   1.000  C
  C42      1.0000 0.30990  0.21870  0.56930  Biso   1.000  C
  C43      1.0000 0.19010  0.71870  0.93070  Biso   1.000  C
  C44      1.0000 0.69010  0.78130  0.43070  Biso   1.000  C
  C45      1.0000 0.71750  0.27260  0.13220  Biso   1.000  C
  C46      1.0000 0.21750  0.22740  0.63220  Biso   1.000  C
  C47      1.0000 0.28250  0.72740  0.86780  Biso   1.000  C
  C48      1.0000 0.78250  0.77260  0.36780  Biso   1.000  C
  C49      1.0000 0.62670  0.31750  0.16820  Biso   1.000  C
  C50      1.0000 0.12670  0.18250  0.66820  Biso   1.000  C
  C51      1.0000 0.37330  0.68250  0.83180  Biso   1.000  C
  C52      1.0000 0.87330  0.81750  0.33180  Biso   1.000  C
  C53      1.0000 0.36560  0.34500  0.30320  Biso   1.000  C
  C54      1.0000 0.86560  0.15500  0.80320  Biso   1.000  C
  C55      1.0000 0.63440  0.65500  0.69680  Biso   1.000  C
  C56      1.0000 0.13440  0.84500  0.19680  Biso   1.000  C
  C57      1.0000 0.32030  0.40430  0.32950  Biso   1.000  C
  C58      1.0000 0.82030  0.09570  0.82950  Biso   1.000  C
  C59      1.0000 0.67970  0.59570  0.67050  Biso   1.000  C
  C60      1.0000 0.17970  0.90430  0.17050  Biso   1.000  C
  C61      1.0000 0.22430  0.41390  0.39060  Biso   1.000  C
  C62      1.0000 0.72430  0.08610  0.89060  Biso   1.000  C
  C63      1.0000 0.77570  0.58610  0.60940  Biso   1.000  C
  C64      1.0000 0.27570  0.91390  0.10940  Biso   1.000  C
  C65      1.0000 0.19190  0.46910  0.41180  Biso   1.000  C
  C66      1.0000 0.69190  0.03090  0.91180  Biso   1.000  C
  C67      1.0000 0.80810  0.53090  0.58820  Biso   1.000  C
  C68      1.0000 0.30810  0.96910  0.08820  Biso   1.000  C
  C69      1.0000 0.25660  0.51410  0.37070  Biso   1.000  C
  C70      1.0000 0.75660  0.98590  0.87070  Biso   1.000  C
  C71      1.0000 0.74340  0.48590  0.62930  Biso   1.000  C
  C72      1.0000 0.24340  0.01410  0.12930  Biso   1.000  C
  C73      1.0000 0.35350  0.50190  0.31190  Biso   1.000  C
  C74      1.0000 0.85350  0.99810  0.81190  Biso   1.000  C
  C75      1.0000 0.64650  0.49810  0.68810  Biso   1.000  C
  C76      1.0000 0.14650  0.00190  0.18810  Biso   1.000  C
  C77      1.0000 0.74790  0.92420  0.09810  Biso   1.000  C
  C78      1.0000 0.24790  0.57580  0.59810  Biso   1.000  C
  C79      1.0000 0.25210  0.07580  0.90190  Biso   1.000  C
  C80      1.0000 0.75210  0.42420  0.40190  Biso   1.000  C
  C81      1.0000 0.83220  0.87850  0.05660  Biso   1.000  C
  C82      1.0000 0.33220  0.62150  0.55660  Biso   1.000  C
  C83      1.0000 0.16780  0.12150  0.94340  Biso   1.000  C
  C84      1.0000 0.66780  0.37850  0.44340  Biso   1.000  C
  C85      1.0000 0.28100  0.16830  0.23000  Biso   1.000  C
  C86      1.0000 0.78100  0.33170  0.73000  Biso   1.000  C
  C87      1.0000 0.71900  0.83170  0.77000  Biso   1.000  C
  C88      1.0000 0.21900  0.66830  0.27000  Biso   1.000  C
  C89      1.0000 0.14470  0.16070  0.27020  Biso   1.000  C
  C90      1.0000 0.64470  0.33930  0.77020  Biso   1.000  C
  C91      1.0000 0.85530  0.83930  0.72980  Biso   1.000  C
  C92      1.0000 0.35530  0.66070  0.22980  Biso   1.000  C
  C93      1.0000 0.73470  0.22520  0.40890  Biso   1.000  C
  C94      1.0000 0.23470  0.27480  0.90890  Biso   1.000  C
  C95      1.0000 0.26530  0.77480  0.59110  Biso   1.000  C
  C96      1.0000 0.76530  0.72520  0.09110  Biso   1.000  C
  C97      1.0000 0.77960  0.22220  0.50510  Biso   1.000  C
  C98      1.0000 0.27960  0.27780  0.00510  Biso   1.000  C
  C99      1.0000 0.22040  0.77780  0.49490  Biso   1.000  C
  C100     1.0000 0.72040  0.72220  0.99490  Biso   1.000  C
  C101     1.0000 0.96500  0.02200  0.37970  Biso   1.000  C
  C102     1.0000 0.46500  0.47800  0.87970  Biso   1.000  C
  C103     1.0000 0.03500  0.97800  0.62030  Biso   1.000  C
  C104     1.0000 0.53500  0.52200  0.12030  Biso   1.000  C
  C105     1.0000 0.89830  0.07560  0.41410  Biso   1.000  C
  C106     1.0000 0.39830  0.42440  0.91410  Biso   1.000  C
  C107     1.0000 0.10170  0.92440  0.58590  Biso   1.000  C
  C108     1.0000 0.60170  0.57560  0.08590  Biso   1.000  C
  H1       1.0000 0.58900  0.88450  0.23930  Biso   1.000  H
  H2       1.0000 0.08900  0.61550  0.73930  Biso   1.000  H
  H3       1.0000 0.41100  0.11550  0.76070  Biso   1.000  H
  H4       1.0000 0.91100  0.38450  0.26070  Biso   1.000  H
  H5       1.0000 0.43400  0.83980  0.32830  Biso   1.000  H
  H6       1.0000 0.93400  0.66020  0.82830  Biso   1.000  H
  H7       1.0000 0.56600  0.16020  0.67170  Biso   1.000  H
  H8       1.0000 0.06600  0.33980  0.17170  Biso   1.000  H
  H9       1.0000 0.31490  0.89750  0.42460  Biso   1.000  H
  H10      1.0000 0.81490  0.60250  0.92460  Biso   1.000  H
  H11      1.0000 0.68510  0.10250  0.57540  Biso   1.000  H
  H12      1.0000 0.18510  0.39750  0.07540  Biso   1.000  H
  H13      1.0000 0.36010  0.99690  0.42950  Biso   1.000  H
  H14      1.0000 0.86010  0.50310  0.92950  Biso   1.000  H
  H15      1.0000 0.63990  0.00310  0.57050  Biso   1.000  H
  H16      1.0000 0.13990  0.49690  0.07050  Biso   1.000  H
  H17      1.0000 0.92440  0.14940  0.06640  Biso   1.000  H
  H18      1.0000 0.42440  0.35060  0.56640  Biso   1.000  H
  H19      1.0000 0.07560  0.85060  0.93360  Biso   1.000  H
  H20      1.0000 0.57560  0.64940  0.43360  Biso   1.000  H
  H21      1.0000 0.95680  0.24000  0.00270  Biso   1.000  H
  H22      1.0000 0.45680  0.26000  0.50270  Biso   1.000  H
  H23      1.0000 0.04320  0.76000  0.99730  Biso   1.000  H
  H24      1.0000 0.54320  0.74000  0.49730  Biso   1.000  H
  H25      1.0000 0.81870  0.31810  0.04310  Biso   1.000  H
  H26      1.0000 0.31870  0.18190  0.54310  Biso   1.000  H
  H27      1.0000 0.18130  0.68190  0.95690  Biso   1.000  H
  H28      1.0000 0.68130  0.81810  0.45690  Biso   1.000  H
  H29      1.0000 0.18180  0.38210  0.41780  Biso   1.000  H
  H30      1.0000 0.68180  0.11790  0.91780  Biso   1.000  H
  H31      1.0000 0.81820  0.61790  0.58220  Biso   1.000  H
  H32      1.0000 0.31820  0.88210  0.08220  Biso   1.000  H
  H33      1.0000 0.12610  0.47670  0.45370  Biso   1.000  H
  H34      1.0000 0.62610  0.02330  0.95370  Biso   1.000  H
  H35      1.0000 0.87390  0.52330  0.54630  Biso   1.000  H
  H36      1.0000 0.37390  0.97670  0.04630  Biso   1.000  H
  H37      1.0000 0.23580  0.55310  0.38360  Biso   1.000  H
  H38      1.0000 0.73580  0.94690  0.88360  Biso   1.000  H
  H39      1.0000 0.76420  0.44690  0.61640  Biso   1.000  H
  H40      1.0000 0.26420  0.05310  0.11640  Biso   1.000  H
  H41      1.0000 0.40000  0.53270  0.28510  Biso   1.000  H
  H42      1.0000 0.90000  0.96730  0.78510  Biso   1.000  H
  H43      1.0000 0.60000  0.46730  0.71490  Biso   1.000  H
  H44      1.0000 0.10000  0.03270  0.21490  Biso   1.000  H
  H45      1.0000 0.43110  0.08220  0.42100  Biso   1.000  H
  H46      1.0000 0.93110  0.41780  0.92100  Biso   1.000  H
  H47      1.0000 0.56890  0.91780  0.57900  Biso   1.000  H
  H48      1.0000 0.06890  0.58220  0.07900  Biso   1.000  H
  H49      1.0000 0.49360  0.12190  0.38800  Biso   1.000  H
  H50      1.0000 0.99360  0.37810  0.88800  Biso   1.000  H
  H51      1.0000 0.50640  0.87810  0.61200  Biso   1.000  H
  H52      1.0000 0.00640  0.62190  0.11200  Biso   1.000  H
  H53      1.0000 0.23320  0.29890  0.35550  Biso   1.000  H
  H54      1.0000 0.73320  0.20110  0.85550  Biso   1.000  H
  H55      1.0000 0.76680  0.70110  0.64450  Biso   1.000  H
  H56      1.0000 0.26680  0.79890  0.14450  Biso   1.000  H
  H57      1.0000 0.33580  0.26230  0.32110  Biso   1.000  H
  H58      1.0000 0.83580  0.23770  0.82110  Biso   1.000  H
  H59      1.0000 0.66420  0.73770  0.67890  Biso   1.000  H
  H60      1.0000 0.16420  0.76230  0.17890  Biso   1.000  H
  H61      1.0000 0.87350  0.85480  0.10050  Biso   1.000  H
  H62      1.0000 0.37350  0.64520  0.60050  Biso   1.000  H
  H63      1.0000 0.12650  0.14520  0.89950  Biso   1.000  H
  H64      1.0000 0.62650  0.35480  0.39950  Biso   1.000  H
  H65      1.0000 0.77290  0.85630  0.01770  Biso   1.000  H
  H66      1.0000 0.27290  0.64370  0.51770  Biso   1.000  H
  H67      1.0000 0.22710  0.14370  0.98230  Biso   1.000  H
  H68      1.0000 0.72710  0.35630  0.48230  Biso   1.000  H
  H69      1.0000 0.90030  0.89670  0.02440  Biso   1.000  H
  H70      1.0000 0.40030  0.60330  0.52440  Biso   1.000  H
  H71      1.0000 0.09970  0.10330  0.97560  Biso   1.000  H
  H72      1.0000 0.59970  0.39670  0.47560  Biso   1.000  H
  H73      1.0000 0.15450  0.16210  0.33320  Biso   1.000  H
  H74      1.0000 0.65450  0.33790  0.83320  Biso   1.000  H
  H75      1.0000 0.84550  0.83790  0.66680  Biso   1.000  H
  H76      1.0000 0.34550  0.66210  0.16680  Biso   1.000  H
  H77      1.0000 0.08040  0.19060  0.25150  Biso   1.000  H
  H78      1.0000 0.58040  0.30940  0.75150  Biso   1.000  H
  H79      1.0000 0.91960  0.80940  0.74850  Biso   1.000  H
  H80      1.0000 0.41960  0.69060  0.24850  Biso   1.000  H
  H81      1.0000 0.10270  0.12450  0.25400  Biso   1.000  H
  H82      1.0000 0.60270  0.37550  0.75400  Biso   1.000  H
  H83      1.0000 0.89730  0.87550  0.74600  Biso   1.000  H
  H84      1.0000 0.39730  0.62450  0.24600  Biso   1.000  H
  H85      1.0000 0.70360  0.22670  0.54140  Biso   1.000  H
  H86      1.0000 0.20360  0.27330  0.04140  Biso   1.000  H
  H87      1.0000 0.29640  0.77330  0.45860  Biso   1.000  H
  H88      1.0000 0.79640  0.72670  0.95860  Biso   1.000  H
  H89      1.0000 0.82290  0.18560  0.52030  Biso   1.000  H
  H90      1.0000 0.32290  0.31440  0.02030  Biso   1.000  H
  H91      1.0000 0.17710  0.81440  0.47970  Biso   1.000  H
  H92      1.0000 0.67710  0.68560  0.97970  Biso   1.000  H
  H93      1.0000 0.84630  0.25170  0.52180  Biso   1.000  H
  H94      1.0000 0.34630  0.24830  0.02180  Biso   1.000  H
  H95      1.0000 0.15370  0.74830  0.47820  Biso   1.000  H
  H96      1.0000 0.65370  0.75170  0.97820  Biso   1.000  H
  H97      1.0000 0.86720  0.09920  0.36680  Biso   1.000  H
  H98      1.0000 0.36720  0.40080  0.86680  Biso   1.000  H
  H99      1.0000 0.13280  0.90080  0.63320  Biso   1.000  H
  H100     1.0000 0.63280  0.59920  0.13320  Biso   1.000  H
  H101     1.0000 0.82270  0.06470  0.44710  Biso   1.000  H
  H102     1.0000 0.32270  0.43530  0.94710  Biso   1.000  H
  H103     1.0000 0.17730  0.93530  0.55290  Biso   1.000  H
  H104     1.0000 0.67730  0.56470  0.05290  Biso   1.000  H
  H105     1.0000 0.96410  0.09580  0.45110  Biso   1.000  H
  H106     1.0000 0.46410  0.40420  0.95110  Biso   1.000  H
  H107     1.0000 0.03590  0.90420  0.54890  Biso   1.000  H
  H108     1.0000 0.53590  0.59580  0.04890  Biso   1.000  H
  H109     1.0000 0.23820  0.08160  0.54940  Biso   1.000  H
  H110     1.0000 0.73820  0.41840  0.04940  Biso   1.000  H
  H111     1.0000 0.76180  0.91840  0.45060  Biso   1.000  H
  H112     1.0000 0.26180  0.58160  0.95060  Biso   1.000  H
  H113     1.0000 0.20090  0.06300  0.47660  Biso   1.000  H
  H114     1.0000 0.70090  0.43700  0.97660  Biso   1.000  H
  H115     1.0000 0.79910  0.93700  0.52340  Biso   1.000  H
  H116     1.0000 0.29910  0.56300  0.02340  Biso   1.000  H
  H117     1.0000 0.44760  0.11510  0.01360  Biso   1.000  H
  H118     1.0000 0.94760  0.38490  0.51360  Biso   1.000  H
  H119     1.0000 0.55240  0.88490  0.98640  Biso   1.000  H
  H120     1.0000 0.05240  0.61510  0.48640  Biso   1.000  H
  H121     1.0000 0.44630  0.14490  0.07330  Biso   1.000  H
  H122     1.0000 0.94630  0.35510  0.57330  Biso   1.000  H
  H123     1.0000 0.55370  0.85510  0.92670  Biso   1.000  H
  H124     1.0000 0.05370  0.64490  0.42670  Biso   1.000  H
