data_image0
_cell_length_a       18.211
_cell_length_b       5.1283
_cell_length_c       13.915
_cell_angle_alpha    90
_cell_angle_beta     96.803
_cell_angle_gamma    90

_symmetry_space_group_name_H-M    "P 1"
_symmetry_int_tables_number       1

loop_
  _symmetry_equiv_pos_as_xyz
  'x, y, z'

loop_
  _atom_site_label
  _atom_site_occupancy
  _atom_site_fract_x
  _atom_site_fract_y
  _atom_site_fract_z
  _atom_site_thermal_displace_type
  _atom_site_B_iso_or_equiv
  _atom_site_type_symbol
  Cu1      1.0000 0.66899  0.99032  0.56615  Biso   1.000  Cu
  Cu2      1.0000 0.33101  0.49032  0.93385  Biso   1.000  Cu
  Cu3      1.0000 0.33101  0.00968  0.43385  Biso   1.000  Cu
  Cu4      1.0000 0.66899  0.50968  0.06615  Biso   1.000  Cu
  Cu5      1.0000 0.83713  0.46160  0.40230  Biso   1.000  Cu
  Cu6      1.0000 0.16287  0.96160  0.09770  Biso   1.000  Cu
  Cu7      1.0000 0.16287  0.53840  0.59770  Biso   1.000  Cu
  Cu8      1.0000 0.83713  0.03840  0.90230  Biso   1.000  Cu
  O1       1.0000 0.73494  0.20290  0.49913  Biso   1.000  O
  O2       1.0000 0.26506  0.70290  0.00087  Biso   1.000  O
  O3       1.0000 0.26506  0.79710  0.50087  Biso   1.000  O
  O4       1.0000 0.73494  0.29710  0.99913  Biso   1.000  O
  O5       1.0000 0.73027  0.53990  0.39812  Biso   1.000  O
  O6       1.0000 0.26973  0.03990  0.10188  Biso   1.000  O
  O7       1.0000 0.26973  0.46010  0.60188  Biso   1.000  O
  O8       1.0000 0.73027  0.96010  0.89812  Biso   1.000  O
  O9       1.0000 0.39470  0.25030  0.38666  Biso   1.000  O
  O10      1.0000 0.60530  0.75030  0.11334  Biso   1.000  O
  O11      1.0000 0.60530  0.74970  0.61334  Biso   1.000  O
  O12      1.0000 0.39470  0.24970  0.88666  Biso   1.000  O
  O13      1.0000 0.18908  0.80740  0.69342  Biso   1.000  O
  O14      1.0000 0.81092  0.30740  0.80658  Biso   1.000  O
  O15      1.0000 0.81092  0.19260  0.30658  Biso   1.000  O
  O16      1.0000 0.18908  0.69260  0.19342  Biso   1.000  O
  O17      1.0000 0.14840  0.20670  0.72392  Biso   1.000  O
  O18      1.0000 0.85160  0.70670  0.77608  Biso   1.000  O
  O19      1.0000 0.85160  0.79330  0.27608  Biso   1.000  O
  O20      1.0000 0.14840  0.29330  0.22392  Biso   1.000  O
  O21      1.0000 0.86462  0.69030  0.50505  Biso   1.000  O
  O22      1.0000 0.13538  0.19030  0.99495  Biso   1.000  O
  O23      1.0000 0.13538  0.30970  0.49495  Biso   1.000  O
  O24      1.0000 0.86462  0.80970  0.00505  Biso   1.000  O
  N1       1.0000 0.58780  0.15360  0.47872  Biso   1.000  N
  N2       1.0000 0.41220  0.65360  0.02128  Biso   1.000  N
  N3       1.0000 0.41220  0.84640  0.52128  Biso   1.000  N
  N4       1.0000 0.58780  0.34640  0.97872  Biso   1.000  N
  N5       1.0000 0.06217  0.69070  0.58652  Biso   1.000  N
  N6       1.0000 0.93783  0.19070  0.91348  Biso   1.000  N
  N7       1.0000 0.93783  0.30930  0.41348  Biso   1.000  N
  N8       1.0000 0.06217  0.80930  0.08652  Biso   1.000  N
  C1       1.0000 0.51376  0.10540  0.46960  Biso   1.000  C
  C2       1.0000 0.48624  0.60540  0.03040  Biso   1.000  C
  C3       1.0000 0.48624  0.89460  0.53040  Biso   1.000  C
  C4       1.0000 0.51376  0.39460  0.96960  Biso   1.000  C
  C5       1.0000 0.46640  0.26350  0.40190  Biso   1.000  C
  C6       1.0000 0.53360  0.76350  0.09810  Biso   1.000  C
  C7       1.0000 0.53360  0.73650  0.59810  Biso   1.000  C
  C8       1.0000 0.46640  0.23650  0.90190  Biso   1.000  C
  C9       1.0000 0.49954  0.45340  0.34850  Biso   1.000  C
  C10      1.0000 0.50046  0.95340  0.15150  Biso   1.000  C
  C11      1.0000 0.50046  0.54660  0.65150  Biso   1.000  C
  C12      1.0000 0.49954  0.04660  0.84850  Biso   1.000  C
  H1       1.0000 0.46980  0.55580  0.30440  Biso   1.000  H
  H2       1.0000 0.53020  0.05580  0.19560  Biso   1.000  H
  H3       1.0000 0.53020  0.44420  0.69560  Biso   1.000  H
  H4       1.0000 0.46980  0.94420  0.80440  Biso   1.000  H
  C13      1.0000 0.57455  0.49170  0.35940  Biso   1.000  C
  C14      1.0000 0.42545  0.99170  0.14060  Biso   1.000  C
  C15      1.0000 0.42545  0.50830  0.64060  Biso   1.000  C
  C16      1.0000 0.57455  0.00830  0.85940  Biso   1.000  C
  H5       1.0000 0.59600  0.61680  0.32320  Biso   1.000  H
  H6       1.0000 0.40400  0.11680  0.17680  Biso   1.000  H
  H7       1.0000 0.40400  0.38320  0.67680  Biso   1.000  H
  H8       1.0000 0.59600  0.88320  0.82320  Biso   1.000  H
  C17      1.0000 0.61731  0.33910  0.42600  Biso   1.000  C
  C18      1.0000 0.38269  0.83910  0.07400  Biso   1.000  C
  C19      1.0000 0.38269  0.66090  0.57400  Biso   1.000  C
  C20      1.0000 0.61731  0.16090  0.92600  Biso   1.000  C
  C21      1.0000 0.69947  0.36400  0.44220  Biso   1.000  C
  C22      1.0000 0.30053  0.86400  0.05780  Biso   1.000  C
  C23      1.0000 0.30053  0.63600  0.55780  Biso   1.000  C
  C24      1.0000 0.69947  0.13600  0.94220  Biso   1.000  C
  C25      1.0000 0.99806  0.61030  0.53440  Biso   1.000  C
  C26      1.0000 0.00194  0.11030  0.96560  Biso   1.000  C
  C27      1.0000 0.00194  0.38970  0.46560  Biso   1.000  C
  C28      1.0000 0.99806  0.88970  0.03440  Biso   1.000  C
  C29      1.0000 0.93083  0.74690  0.54710  Biso   1.000  C
  C30      1.0000 0.06917  0.24690  0.95290  Biso   1.000  C
  C31      1.0000 0.06917  0.25310  0.45290  Biso   1.000  C
  C32      1.0000 0.93083  0.75310  0.04710  Biso   1.000  C
  C33      1.0000 0.93572  0.96400  0.60980  Biso   1.000  C
  C34      1.0000 0.06428  0.46400  0.89020  Biso   1.000  C
  C35      1.0000 0.06428  0.03600  0.39020  Biso   1.000  C
  C36      1.0000 0.93572  0.53600  0.10980  Biso   1.000  C
  H9       1.0000 0.89290  0.05350  0.61980  Biso   1.000  H
  H10      1.0000 0.10710  0.55350  0.88020  Biso   1.000  H
  H11      1.0000 0.10710  0.94650  0.38020  Biso   1.000  H
  H12      1.0000 0.89290  0.44650  0.11980  Biso   1.000  H
  C37      1.0000 0.00195  0.04530  0.65610  Biso   1.000  C
  C38      1.0000 0.99805  0.54530  0.84390  Biso   1.000  C
  C39      1.0000 0.99805  0.95470  0.34390  Biso   1.000  C
  C40      1.0000 0.00195  0.45470  0.15610  Biso   1.000  C
  H13      1.0000 0.00490  0.19250  0.69540  Biso   1.000  H
  H14      1.0000 0.99510  0.69250  0.80460  Biso   1.000  H
  H15      1.0000 0.99510  0.80750  0.30460  Biso   1.000  H
  H16      1.0000 0.00490  0.30750  0.19540  Biso   1.000  H
  C41      1.0000 0.06444  0.90360  0.64310  Biso   1.000  C
  C42      1.0000 0.93556  0.40360  0.85690  Biso   1.000  C
  C43      1.0000 0.93556  0.09640  0.35690  Biso   1.000  C
  C44      1.0000 0.06444  0.59640  0.14310  Biso   1.000  C
  C45      1.0000 0.13923  0.98120  0.69110  Biso   1.000  C
  C46      1.0000 0.86077  0.48120  0.80890  Biso   1.000  C
  C47      1.0000 0.86077  0.01880  0.30890  Biso   1.000  C
  C48      1.0000 0.13923  0.51880  0.19110  Biso   1.000  C
  O25      1.0000 0.67036  0.27680  0.69099  Biso   1.000  O
  O26      1.0000 0.32964  0.77680  0.80901  Biso   1.000  O
  O27      1.0000 0.32964  0.72320  0.30901  Biso   1.000  O
  O28      1.0000 0.67036  0.22320  0.19099  Biso   1.000  O
  H17      1.0000 0.65720  0.42090  0.66990  Biso   1.000  H
  H18      1.0000 0.34280  0.92090  0.83010  Biso   1.000  H
  H19      1.0000 0.34280  0.57910  0.33010  Biso   1.000  H
  H20      1.0000 0.65720  0.07910  0.16990  Biso   1.000  H
  H21      1.0000 0.71340  0.28520  0.71970  Biso   1.000  H
  H22      1.0000 0.28660  0.78520  0.78030  Biso   1.000  H
  H23      1.0000 0.28660  0.71480  0.28030  Biso   1.000  H
  H24      1.0000 0.71340  0.21480  0.21970  Biso   1.000  H
  O29      1.0000 0.75356  0.77060  0.61748  Biso   1.000  O
  O30      1.0000 0.24644  0.27060  0.88252  Biso   1.000  O
  O31      1.0000 0.24644  0.22940  0.38252  Biso   1.000  O
  O32      1.0000 0.75356  0.72940  0.11748  Biso   1.000  O
  H25      1.0000 0.78140  0.75170  0.57590  Biso   1.000  H
  H26      1.0000 0.21860  0.25170  0.92410  Biso   1.000  H
  H27      1.0000 0.21860  0.24830  0.42410  Biso   1.000  H
  H28      1.0000 0.78140  0.74830  0.07590  Biso   1.000  H
  H29      1.0000 0.77590  0.75180  0.67300  Biso   1.000  H
  H30      1.0000 0.22410  0.25180  0.82700  Biso   1.000  H
  H31      1.0000 0.22410  0.24820  0.32700  Biso   1.000  H
  H32      1.0000 0.77590  0.74820  0.17300  Biso   1.000  H
