data_image0
_cell_length_a       14.154
_cell_length_b       6.6209
_cell_length_c       15.047
_cell_angle_alpha    90
_cell_angle_beta     117.39
_cell_angle_gamma    90

_symmetry_space_group_name_H-M    "P 1"
_symmetry_int_tables_number       1

loop_
  _symmetry_equiv_pos_as_xyz
  'x, y, z'

loop_
  _atom_site_label
  _atom_site_occupancy
  _atom_site_fract_x
  _atom_site_fract_y
  _atom_site_fract_z
  _atom_site_thermal_displace_type
  _atom_site_B_iso_or_equiv
  _atom_site_type_symbol
  C1       1.0000 0.96430  0.08630  0.18370  Biso   1.000  C
  C2       1.0000 0.53570  0.58630  0.31630  Biso   1.000  C
  C3       1.0000 0.03570  0.91370  0.81630  Biso   1.000  C
  C4       1.0000 0.46430  0.41370  0.68370  Biso   1.000  C
  H1       1.0000 0.96930  0.02670  0.24170  Biso   1.000  H
  H2       1.0000 0.53070  0.52670  0.25830  Biso   1.000  H
  H3       1.0000 0.03070  0.97330  0.75830  Biso   1.000  H
  H4       1.0000 0.46930  0.47330  0.74170  Biso   1.000  H
  C5       1.0000 0.91930  0.35950  0.07730  Biso   1.000  C
  C6       1.0000 0.58070  0.85950  0.42270  Biso   1.000  C
  C7       1.0000 0.08070  0.64050  0.92270  Biso   1.000  C
  C8       1.0000 0.41930  0.14050  0.57730  Biso   1.000  C
  H5       1.0000 0.89430  0.49130  0.06170  Biso   1.000  H
  H6       1.0000 0.60570  0.99130  0.43830  Biso   1.000  H
  H7       1.0000 0.10570  0.50870  0.93830  Biso   1.000  H
  H8       1.0000 0.39430  0.00870  0.56170  Biso   1.000  H
  C9       1.0000 0.94540  0.25770  0.01220  Biso   1.000  C
  C10      1.0000 0.55460  0.75770  0.48780  Biso   1.000  C
  C11      1.0000 0.05460  0.74230  0.98780  Biso   1.000  C
  C12      1.0000 0.44540  0.24230  0.51220  Biso   1.000  C
  H9       1.0000 0.93680  0.32030  0.95370  Biso   1.000  H
  H10      1.0000 0.56320  0.82030  0.54630  Biso   1.000  H
  H11      1.0000 0.06320  0.67970  0.04630  Biso   1.000  H
  H12      1.0000 0.43680  0.17970  0.45370  Biso   1.000  H
  C13      1.0000 0.99410  0.97510  0.12330  Biso   1.000  C
  C14      1.0000 0.50590  0.47510  0.37670  Biso   1.000  C
  C15      1.0000 0.00590  0.02490  0.87670  Biso   1.000  C
  C16      1.0000 0.49410  0.52490  0.62330  Biso   1.000  C
  H13      1.0000 0.02010  0.84470  0.14170  Biso   1.000  H
  H14      1.0000 0.47990  0.34470  0.35830  Biso   1.000  H
  H15      1.0000 0.97990  0.15530  0.85830  Biso   1.000  H
  H16      1.0000 0.52010  0.65530  0.64170  Biso   1.000  H
  C17      1.0000 0.98500  0.05900  0.03350  Biso   1.000  C
  C18      1.0000 0.51500  0.55900  0.46650  Biso   1.000  C
  C19      1.0000 0.01500  0.94100  0.96650  Biso   1.000  C
  C20      1.0000 0.48500  0.44100  0.53350  Biso   1.000  C
  C21      1.0000 0.78180  0.26070  0.34130  Biso   1.000  C
  C22      1.0000 0.71820  0.76070  0.15870  Biso   1.000  C
  C23      1.0000 0.21820  0.73930  0.65870  Biso   1.000  C
  C24      1.0000 0.28180  0.23930  0.84130  Biso   1.000  C
  C25      1.0000 0.82590  0.45300  0.40330  Biso   1.000  C
  C26      1.0000 0.67410  0.95300  0.09670  Biso   1.000  C
  C27      1.0000 0.17410  0.54700  0.59670  Biso   1.000  C
  C28      1.0000 0.32590  0.04700  0.90330  Biso   1.000  C
  C29      1.0000 0.83810  0.70470  0.52310  Biso   1.000  C
  C30      1.0000 0.66190  0.20470  0.97690  Biso   1.000  C
  C31      1.0000 0.16190  0.29530  0.47690  Biso   1.000  C
  C32      1.0000 0.33810  0.79530  0.02310  Biso   1.000  C
  N1       1.0000 0.90630  0.80230  0.49600  Biso   1.000  N
  N2       1.0000 0.59370  0.30230  0.00400  Biso   1.000  N
  N3       1.0000 0.09370  0.19770  0.50400  Biso   1.000  N
  N4       1.0000 0.40630  0.69770  0.99600  Biso   1.000  N
  C33      1.0000 0.93480  0.73430  0.42520  Biso   1.000  C
  C34      1.0000 0.56520  0.23430  0.07480  Biso   1.000  C
  C35      1.0000 0.06520  0.26570  0.57480  Biso   1.000  C
  C36      1.0000 0.43480  0.76570  0.92520  Biso   1.000  C
  N5       1.0000 0.92820  0.27760  0.16260  Biso   1.000  N
  N6       1.0000 0.57180  0.77760  0.33740  Biso   1.000  N
  N7       1.0000 0.07180  0.72240  0.83740  Biso   1.000  N
  N8       1.0000 0.42820  0.22240  0.66260  Biso   1.000  N
  N9       1.0000 0.89420  0.55640  0.37900  Biso   1.000  N
  N10      1.0000 0.60580  0.05640  0.12100  Biso   1.000  N
  N11      1.0000 0.10580  0.44360  0.62100  Biso   1.000  N
  N12      1.0000 0.39420  0.94360  0.87900  Biso   1.000  N
  C37      1.0000 0.79690  0.51550  0.47290  Biso   1.000  C
  C38      1.0000 0.70310  0.01550  0.02710  Biso   1.000  C
  C39      1.0000 0.20310  0.48450  0.52710  Biso   1.000  C
  C40      1.0000 0.29690  0.98450  0.97290  Biso   1.000  C
  H17      1.0000 0.75140  0.43790  0.48800  Biso   1.000  H
  H18      1.0000 0.74860  0.93790  0.01200  Biso   1.000  H
  H19      1.0000 0.24860  0.56210  0.51200  Biso   1.000  H
  H20      1.0000 0.25140  0.06210  0.98800  Biso   1.000  H
  O1       1.0000 0.81440  0.22730  0.27580  Biso   1.000  O
  O2       1.0000 0.68560  0.72730  0.22420  Biso   1.000  O
  O3       1.0000 0.18560  0.77270  0.72420  Biso   1.000  O
  O4       1.0000 0.31440  0.27270  0.77580  Biso   1.000  O
  O5       1.0000 0.71780  0.15600  0.35590  Biso   1.000  O
  O6       1.0000 0.78220  0.65600  0.14410  Biso   1.000  O
  O7       1.0000 0.28220  0.84400  0.64410  Biso   1.000  O
  O8       1.0000 0.21780  0.34400  0.85590  Biso   1.000  O
  O9       1.0000 0.01770  0.62570  0.27300  Biso   1.000  O
  O10      1.0000 0.48230  0.12570  0.22700  Biso   1.000  O
  O11      1.0000 0.98230  0.37430  0.72700  Biso   1.000  O
  O12      1.0000 0.51770  0.87430  0.77300  Biso   1.000  O
  H21      1.0000 0.02550  0.72360  0.31300  Biso   1.000  H
  H22      1.0000 0.47450  0.22360  0.18700  Biso   1.000  H
  H23      1.0000 0.97450  0.27640  0.68700  Biso   1.000  H
  H24      1.0000 0.52550  0.77640  0.81300  Biso   1.000  H
  H25      1.0000 0.09350  0.57680  0.29830  Biso   1.000  H
  H26      1.0000 0.40650  0.07680  0.20170  Biso   1.000  H
  H27      1.0000 0.90650  0.42320  0.70170  Biso   1.000  H
  H28      1.0000 0.59350  0.92320  0.79830  Biso   1.000  H
  O13      1.0000 0.99910  0.83900  0.40760  Biso   1.000  O
  O14      1.0000 0.50090  0.33900  0.09240  Biso   1.000  O
  O15      1.0000 0.00090  0.16100  0.59240  Biso   1.000  O
  O16      1.0000 0.49910  0.66100  0.90760  Biso   1.000  O
  O17      1.0000 0.81910  0.78140  0.58960  Biso   1.000  O
  O18      1.0000 0.68090  0.28140  0.91040  Biso   1.000  O
  O19      1.0000 0.18090  0.21860  0.41040  Biso   1.000  O
  O20      1.0000 0.31910  0.71860  0.08960  Biso   1.000  O
  Cu1      1.0000 0.90162  0.44014  0.26041  Biso   1.000  Cu
  Cu2      1.0000 0.59838  0.94014  0.23959  Biso   1.000  Cu
  Cu3      1.0000 0.09838  0.55986  0.73959  Biso   1.000  Cu
  Cu4      1.0000 0.40162  0.05986  0.76041  Biso   1.000  Cu
  O21      1.0000 0.21180  0.51070  0.30310  Biso   1.000  O
  O22      1.0000 0.28820  0.01070  0.19690  Biso   1.000  O
  O23      1.0000 0.78820  0.48930  0.69690  Biso   1.000  O
  O24      1.0000 0.71180  0.98930  0.80310  Biso   1.000  O
  H29      1.0000 0.22060  0.40740  0.35990  Biso   1.000  H
  H30      1.0000 0.27940  0.90740  0.14010  Biso   1.000  H
  H31      1.0000 0.77940  0.59260  0.64010  Biso   1.000  H
  H32      1.0000 0.72060  0.09260  0.85990  Biso   1.000  H
  H33      1.0000 0.20950  0.44360  0.24640  Biso   1.000  H
  H34      1.0000 0.29050  0.94360  0.25360  Biso   1.000  H
  H35      1.0000 0.79050  0.55640  0.75360  Biso   1.000  H
  H36      1.0000 0.70950  0.05640  0.74640  Biso   1.000  H
  O25      1.0000 0.71780  0.10290  0.63250  Biso   1.000  O
  O26      1.0000 0.78220  0.60290  0.86750  Biso   1.000  O
  O27      1.0000 0.28220  0.89710  0.36750  Biso   1.000  O
  O28      1.0000 0.21780  0.39710  0.13250  Biso   1.000  O
  H37      1.0000 0.74200  0.02170  0.59630  Biso   1.000  H
  H38      1.0000 0.75800  0.52170  0.90370  Biso   1.000  H
  H39      1.0000 0.25800  0.97830  0.40370  Biso   1.000  H
  H40      1.0000 0.24200  0.47830  0.09630  Biso   1.000  H
  H41      1.0000 0.75600  0.10520  0.70350  Biso   1.000  H
  H42      1.0000 0.74400  0.60520  0.79650  Biso   1.000  H
  H43      1.0000 0.24400  0.89480  0.29650  Biso   1.000  H
  H44      1.0000 0.25600  0.39480  0.20350  Biso   1.000  H
