data_image0
_cell_length_a       5.2386
_cell_length_b       11.3793
_cell_length_c       10.8544
_cell_angle_alpha    90
_cell_angle_beta     92.222
_cell_angle_gamma    90

_symmetry_space_group_name_H-M    "P 1"
_symmetry_int_tables_number       1

loop_
  _symmetry_equiv_pos_as_xyz
  'x, y, z'

loop_
  _atom_site_label
  _atom_site_occupancy
  _atom_site_fract_x
  _atom_site_fract_y
  _atom_site_fract_z
  _atom_site_thermal_displace_type
  _atom_site_B_iso_or_equiv
  _atom_site_type_symbol
  Cu1      1.0000 0.00000  0.00000  0.00000  Biso   1.000  Cu
  Cu2      1.0000 0.50000  0.50000  0.50000  Biso   1.000  Cu
  C1       1.0000 0.30710  0.43450  0.10090  Biso   1.000  C
  C2       1.0000 0.19290  0.93450  0.39910  Biso   1.000  C
  C3       1.0000 0.69290  0.56550  0.89910  Biso   1.000  C
  C4       1.0000 0.80710  0.06550  0.60090  Biso   1.000  C
  C5       1.0000 0.55340  0.27260  0.17770  Biso   1.000  C
  C6       1.0000 0.94660  0.77260  0.32230  Biso   1.000  C
  C7       1.0000 0.44660  0.72740  0.82230  Biso   1.000  C
  C8       1.0000 0.05340  0.22740  0.67770  Biso   1.000  C
  H1       1.0000 0.69470  0.24690  0.22470  Biso   1.000  H
  H2       1.0000 0.80530  0.74690  0.27530  Biso   1.000  H
  H3       1.0000 0.30530  0.75310  0.77530  Biso   1.000  H
  H4       1.0000 0.19470  0.25310  0.72470  Biso   1.000  H
  C9       1.0000 0.40470  0.19150  0.12210  Biso   1.000  C
  C10      1.0000 0.09530  0.69150  0.37790  Biso   1.000  C
  C11      1.0000 0.59530  0.80850  0.87790  Biso   1.000  C
  C12      1.0000 0.90470  0.30850  0.62210  Biso   1.000  C
  O1       1.0000 0.02340  0.16980  0.99010  Biso   1.000  O
  O2       1.0000 0.47660  0.66980  0.50990  Biso   1.000  O
  O3       1.0000 0.97660  0.83020  0.00990  Biso   1.000  O
  O4       1.0000 0.52340  0.33020  0.49010  Biso   1.000  O
  O5       1.0000 0.29980  0.98610  0.10390  Biso   1.000  O
  O6       1.0000 0.20020  0.48610  0.39610  Biso   1.000  O
  O7       1.0000 0.70020  0.01390  0.89610  Biso   1.000  O
  O8       1.0000 0.79980  0.51390  0.60390  Biso   1.000  O
  N1       1.0000 0.51160  0.38900  0.17010  Biso   1.000  N
  N2       1.0000 0.98840  0.88900  0.32990  Biso   1.000  N
  N3       1.0000 0.48840  0.61100  0.82990  Biso   1.000  N
  N4       1.0000 0.01160  0.11100  0.67010  Biso   1.000  N
  N5       1.0000 0.15340  0.35190  0.04260  Biso   1.000  N
  N6       1.0000 0.34660  0.85190  0.45740  Biso   1.000  N
  N7       1.0000 0.84660  0.64810  0.95740  Biso   1.000  N
  N8       1.0000 0.65340  0.14810  0.54260  Biso   1.000  N
  O9       1.0000 0.26620  0.53820  0.09230  Biso   1.000  O
  O10      1.0000 0.23380  0.03820  0.40770  Biso   1.000  O
  O11      1.0000 0.73380  0.46180  0.90770  Biso   1.000  O
  O12      1.0000 0.76620  0.96180  0.59230  Biso   1.000  O
  H5       1.0000 0.13820  0.54910  0.04780  Biso   1.000  H
  H6       1.0000 0.36180  0.04910  0.45220  Biso   1.000  H
  H7       1.0000 0.86180  0.45090  0.95220  Biso   1.000  H
  H8       1.0000 0.63820  0.95090  0.54780  Biso   1.000  H
  O13      1.0000 0.68090  0.03750  0.18600  Biso   1.000  O
  O14      1.0000 0.81910  0.53750  0.31400  Biso   1.000  O
  O15      1.0000 0.31910  0.96250  0.81400  Biso   1.000  O
  O16      1.0000 0.18090  0.46250  0.68600  Biso   1.000  O
  C13      1.0000 0.18850  0.23200  0.04920  Biso   1.000  C
  C14      1.0000 0.31150  0.73200  0.45080  Biso   1.000  C
  C15      1.0000 0.81150  0.76800  0.95080  Biso   1.000  C
  C16      1.0000 0.68850  0.26800  0.54920  Biso   1.000  C
  C17      1.0000 0.46650  0.06380  0.13890  Biso   1.000  C
  C18      1.0000 0.03350  0.56380  0.36110  Biso   1.000  C
  C19      1.0000 0.53350  0.93620  0.86110  Biso   1.000  C
  C20      1.0000 0.96650  0.43620  0.63890  Biso   1.000  C
  O17      1.0000 0.47170  0.75960  0.16610  Biso   1.000  O
  O18      1.0000 0.02830  0.25960  0.33390  Biso   1.000  O
  O19      1.0000 0.52830  0.24040  0.83390  Biso   1.000  O
  O20      1.0000 0.97170  0.74040  0.66610  Biso   1.000  O
