data_image0
_cell_length_a       16.514
_cell_length_b       11.1559
_cell_length_c       11.2834
_cell_angle_alpha    90
_cell_angle_beta     115.974
_cell_angle_gamma    90

_symmetry_space_group_name_H-M    "P 1"
_symmetry_int_tables_number       1

loop_
  _symmetry_equiv_pos_as_xyz
  'x, y, z'

loop_
  _atom_site_label
  _atom_site_occupancy
  _atom_site_fract_x
  _atom_site_fract_y
  _atom_site_fract_z
  _atom_site_thermal_displace_type
  _atom_site_B_iso_or_equiv
  _atom_site_type_symbol
  Cu1      1.0000 0.50000  0.54970  0.75000  Biso   1.000  Cu
  Cu2      1.0000 0.00000  0.04970  0.75000  Biso   1.000  Cu
  Cu3      1.0000 0.50000  0.45030  0.25000  Biso   1.000  Cu
  Cu4      1.0000 0.00000  0.95030  0.25000  Biso   1.000  Cu
  N1       1.0000 0.50000  0.36660  0.75000  Biso   1.000  N
  N2       1.0000 0.00000  0.86660  0.75000  Biso   1.000  N
  N3       1.0000 0.50000  0.63340  0.25000  Biso   1.000  N
  N4       1.0000 0.00000  0.13340  0.25000  Biso   1.000  N
  N5       1.0000 0.50000  0.73320  0.75000  Biso   1.000  N
  N6       1.0000 0.00000  0.23320  0.75000  Biso   1.000  N
  N7       1.0000 0.50000  0.26680  0.25000  Biso   1.000  N
  N8       1.0000 0.00000  0.76680  0.25000  Biso   1.000  N
  O1       1.0000 0.58241  0.55200  0.93800  Biso   1.000  O
  O2       1.0000 0.08241  0.05200  0.93800  Biso   1.000  O
  O3       1.0000 0.58241  0.44800  0.43800  Biso   1.000  O
  O4       1.0000 0.08241  0.94800  0.43800  Biso   1.000  O
  O5       1.0000 0.41759  0.44800  0.06200  Biso   1.000  O
  O6       1.0000 0.91759  0.94800  0.06200  Biso   1.000  O
  O7       1.0000 0.41759  0.55200  0.56200  Biso   1.000  O
  O8       1.0000 0.91759  0.05200  0.56200  Biso   1.000  O
  O9       1.0000 0.64009  0.53682  0.75350  Biso   1.000  O
  O10      1.0000 0.14009  0.03682  0.75350  Biso   1.000  O
  O11      1.0000 0.64009  0.46318  0.25350  Biso   1.000  O
  O12      1.0000 0.14009  0.96318  0.25350  Biso   1.000  O
  O13      1.0000 0.35991  0.46318  0.24650  Biso   1.000  O
  O14      1.0000 0.85991  0.96318  0.24650  Biso   1.000  O
  O15      1.0000 0.35991  0.53682  0.74650  Biso   1.000  O
  O16      1.0000 0.85991  0.03682  0.74650  Biso   1.000  O
  O17      1.0000 0.71820  0.52920  0.10240  Biso   1.000  O
  O18      1.0000 0.21820  0.02920  0.10240  Biso   1.000  O
  O19      1.0000 0.71820  0.47080  0.60240  Biso   1.000  O
  O20      1.0000 0.21820  0.97080  0.60240  Biso   1.000  O
  O21      1.0000 0.28180  0.47080  0.89760  Biso   1.000  O
  O22      1.0000 0.78180  0.97080  0.89760  Biso   1.000  O
  O23      1.0000 0.28180  0.52920  0.39760  Biso   1.000  O
  O24      1.0000 0.78180  0.02920  0.39760  Biso   1.000  O
  C1       1.0000 0.66540  0.53740  0.97910  Biso   1.000  C
  C2       1.0000 0.16540  0.03740  0.97910  Biso   1.000  C
  C3       1.0000 0.66540  0.46260  0.47910  Biso   1.000  C
  C4       1.0000 0.16540  0.96260  0.47910  Biso   1.000  C
  C5       1.0000 0.33460  0.46260  0.02090  Biso   1.000  C
  C6       1.0000 0.83460  0.96260  0.02090  Biso   1.000  C
  C7       1.0000 0.33460  0.53740  0.52090  Biso   1.000  C
  C8       1.0000 0.83460  0.03740  0.52090  Biso   1.000  C
  C9       1.0000 0.70940  0.52100  0.88550  Biso   1.000  C
  C10      1.0000 0.20940  0.02100  0.88550  Biso   1.000  C
  C11      1.0000 0.70940  0.47900  0.38550  Biso   1.000  C
  C12      1.0000 0.20940  0.97900  0.38550  Biso   1.000  C
  C13      1.0000 0.29060  0.47900  0.11450  Biso   1.000  C
  C14      1.0000 0.79060  0.97900  0.11450  Biso   1.000  C
  C15      1.0000 0.29060  0.52100  0.61450  Biso   1.000  C
  C16      1.0000 0.79060  0.02100  0.61450  Biso   1.000  C
  C17      1.0000 0.44550  0.79630  0.78610  Biso   1.000  C
  C18      1.0000 0.94550  0.29630  0.78610  Biso   1.000  C
  C19      1.0000 0.44550  0.20370  0.28610  Biso   1.000  C
  C20      1.0000 0.94550  0.70370  0.28610  Biso   1.000  C
  C21      1.0000 0.55450  0.20370  0.21390  Biso   1.000  C
  C22      1.0000 0.05450  0.70370  0.21390  Biso   1.000  C
  C23      1.0000 0.55450  0.79630  0.71390  Biso   1.000  C
  C24      1.0000 0.05450  0.29630  0.71390  Biso   1.000  C
  H1       1.0000 0.40680  0.75460  0.81120  Biso   1.000  H
  H2       1.0000 0.90680  0.25460  0.81120  Biso   1.000  H
  H3       1.0000 0.40680  0.24540  0.31120  Biso   1.000  H
  H4       1.0000 0.90680  0.74540  0.31120  Biso   1.000  H
  H5       1.0000 0.59320  0.24540  0.18880  Biso   1.000  H
  H6       1.0000 0.09320  0.74540  0.18880  Biso   1.000  H
  H7       1.0000 0.59320  0.75460  0.68880  Biso   1.000  H
  H8       1.0000 0.09320  0.25460  0.68880  Biso   1.000  H
  C25      1.0000 0.44380  0.91870  0.78810  Biso   1.000  C
  C26      1.0000 0.94380  0.41870  0.78810  Biso   1.000  C
  C27      1.0000 0.44380  0.08130  0.28810  Biso   1.000  C
  C28      1.0000 0.94380  0.58130  0.28810  Biso   1.000  C
  C29      1.0000 0.55620  0.08130  0.21190  Biso   1.000  C
  C30      1.0000 0.05620  0.58130  0.21190  Biso   1.000  C
  C31      1.0000 0.55620  0.91870  0.71190  Biso   1.000  C
  C32      1.0000 0.05620  0.41870  0.71190  Biso   1.000  C
  H9       1.0000 0.40510  0.95810  0.81500  Biso   1.000  H
  H10      1.0000 0.90510  0.45810  0.81500  Biso   1.000  H
  H11      1.0000 0.40510  0.04190  0.31500  Biso   1.000  H
  H12      1.0000 0.90510  0.54190  0.31500  Biso   1.000  H
  H13      1.0000 0.59490  0.04190  0.18500  Biso   1.000  H
  H14      1.0000 0.09490  0.54190  0.18500  Biso   1.000  H
  H15      1.0000 0.59490  0.95810  0.68500  Biso   1.000  H
  H16      1.0000 0.09490  0.45810  0.68500  Biso   1.000  H
  C33      1.0000 0.50000  0.98420  0.75000  Biso   1.000  C
  C34      1.0000 0.00000  0.48420  0.75000  Biso   1.000  C
  C35      1.0000 0.50000  0.01580  0.25000  Biso   1.000  C
  C36      1.0000 0.00000  0.51580  0.25000  Biso   1.000  C
  C37      1.0000 0.48910  0.30550  0.84390  Biso   1.000  C
  C38      1.0000 0.98910  0.80550  0.84390  Biso   1.000  C
  C39      1.0000 0.48910  0.69450  0.34390  Biso   1.000  C
  C40      1.0000 0.98910  0.19450  0.34390  Biso   1.000  C
  C41      1.0000 0.51090  0.69450  0.15610  Biso   1.000  C
  C42      1.0000 0.01090  0.19450  0.15610  Biso   1.000  C
  C43      1.0000 0.51090  0.30550  0.65610  Biso   1.000  C
  C44      1.0000 0.01090  0.80550  0.65610  Biso   1.000  C
  H17      1.0000 0.48160  0.34770  0.90950  Biso   1.000  H
  H18      1.0000 0.98160  0.84770  0.90950  Biso   1.000  H
  H19      1.0000 0.48160  0.65230  0.40950  Biso   1.000  H
  H20      1.0000 0.98160  0.15230  0.40950  Biso   1.000  H
  H21      1.0000 0.51840  0.65230  0.09050  Biso   1.000  H
  H22      1.0000 0.01840  0.15230  0.09050  Biso   1.000  H
  H23      1.0000 0.51840  0.34770  0.59050  Biso   1.000  H
  H24      1.0000 0.01840  0.84770  0.59050  Biso   1.000  H
  C45      1.0000 0.48850  0.18150  0.84680  Biso   1.000  C
  C46      1.0000 0.98850  0.68150  0.84680  Biso   1.000  C
  C47      1.0000 0.48850  0.81850  0.34680  Biso   1.000  C
  C48      1.0000 0.98850  0.31850  0.34680  Biso   1.000  C
  C49      1.0000 0.51150  0.81850  0.15320  Biso   1.000  C
  C50      1.0000 0.01150  0.31850  0.15320  Biso   1.000  C
  C51      1.0000 0.51150  0.18150  0.65320  Biso   1.000  C
  C52      1.0000 0.01150  0.68150  0.65320  Biso   1.000  C
  H25      1.0000 0.48040  0.14180  0.91330  Biso   1.000  H
  H26      1.0000 0.98040  0.64180  0.91330  Biso   1.000  H
  H27      1.0000 0.48040  0.85820  0.41330  Biso   1.000  H
  H28      1.0000 0.98040  0.35820  0.41330  Biso   1.000  H
  H29      1.0000 0.51960  0.85820  0.08670  Biso   1.000  H
  H30      1.0000 0.01960  0.35820  0.08670  Biso   1.000  H
  H31      1.0000 0.51960  0.14180  0.58670  Biso   1.000  H
  H32      1.0000 0.01960  0.64180  0.58670  Biso   1.000  H
  C53      1.0000 0.50000  0.11610  0.75000  Biso   1.000  C
  C54      1.0000 0.00000  0.61610  0.75000  Biso   1.000  C
  C55      1.0000 0.50000  0.88390  0.25000  Biso   1.000  C
  C56      1.0000 0.00000  0.38390  0.25000  Biso   1.000  C
  C57      1.0000 0.74830  0.39560  0.90540  Biso   1.000  C
  C58      1.0000 0.24830  0.89560  0.90540  Biso   1.000  C
  C59      1.0000 0.74830  0.60440  0.40540  Biso   1.000  C
  C60      1.0000 0.24830  0.10440  0.40540  Biso   1.000  C
  C61      1.0000 0.25170  0.60440  0.09460  Biso   1.000  C
  C62      1.0000 0.75170  0.10440  0.09460  Biso   1.000  C
  C63      1.0000 0.25170  0.39560  0.59460  Biso   1.000  C
  C64      1.0000 0.75170  0.89560  0.59460  Biso   1.000  C
  H33      1.0000 0.70170  0.33830  0.89170  Biso   1.000  H
  H34      1.0000 0.20170  0.83830  0.89170  Biso   1.000  H
  H35      1.0000 0.70170  0.66170  0.39170  Biso   1.000  H
  H36      1.0000 0.20170  0.16170  0.39170  Biso   1.000  H
  H37      1.0000 0.29830  0.66170  0.10830  Biso   1.000  H
  H38      1.0000 0.79830  0.16170  0.10830  Biso   1.000  H
  H39      1.0000 0.29830  0.33830  0.60830  Biso   1.000  H
  H40      1.0000 0.79830  0.83830  0.60830  Biso   1.000  H
  H41      1.0000 0.79520  0.38800  0.99360  Biso   1.000  H
  H42      1.0000 0.29520  0.88800  0.99360  Biso   1.000  H
  H43      1.0000 0.79520  0.61200  0.49360  Biso   1.000  H
  H44      1.0000 0.29520  0.11200  0.49360  Biso   1.000  H
  H45      1.0000 0.20480  0.61200  0.00640  Biso   1.000  H
  H46      1.0000 0.70480  0.11200  0.00640  Biso   1.000  H
  H47      1.0000 0.20480  0.38800  0.50640  Biso   1.000  H
  H48      1.0000 0.70480  0.88800  0.50640  Biso   1.000  H
  H49      1.0000 0.77270  0.38120  0.84360  Biso   1.000  H
  H50      1.0000 0.27270  0.88120  0.84360  Biso   1.000  H
  H51      1.0000 0.77270  0.61880  0.34360  Biso   1.000  H
  H52      1.0000 0.27270  0.11880  0.34360  Biso   1.000  H
  H53      1.0000 0.22730  0.61880  0.15640  Biso   1.000  H
  H54      1.0000 0.72730  0.11880  0.15640  Biso   1.000  H
  H55      1.0000 0.22730  0.38120  0.65640  Biso   1.000  H
  H56      1.0000 0.72730  0.88120  0.65640  Biso   1.000  H
  C65      1.0000 0.78160  0.61650  0.91440  Biso   1.000  C
  C66      1.0000 0.28160  0.11650  0.91440  Biso   1.000  C
  C67      1.0000 0.78160  0.38350  0.41440  Biso   1.000  C
  C68      1.0000 0.28160  0.88350  0.41440  Biso   1.000  C
  C69      1.0000 0.21840  0.38350  0.08560  Biso   1.000  C
  C70      1.0000 0.71840  0.88350  0.08560  Biso   1.000  C
  C71      1.0000 0.21840  0.61650  0.58560  Biso   1.000  C
  C72      1.0000 0.71840  0.11650  0.58560  Biso   1.000  C
  H57      1.0000 0.80190  0.61540  0.84670  Biso   1.000  H
  H58      1.0000 0.30190  0.11540  0.84670  Biso   1.000  H
  H59      1.0000 0.80190  0.38460  0.34670  Biso   1.000  H
  H60      1.0000 0.30190  0.88460  0.34670  Biso   1.000  H
  H61      1.0000 0.19810  0.38460  0.15330  Biso   1.000  H
  H62      1.0000 0.69810  0.88460  0.15330  Biso   1.000  H
  H63      1.0000 0.19810  0.61540  0.65330  Biso   1.000  H
  H64      1.0000 0.69810  0.11540  0.65330  Biso   1.000  H
  H65      1.0000 0.83150  0.60040  0.99820  Biso   1.000  H
  H66      1.0000 0.33150  0.10040  0.99820  Biso   1.000  H
  H67      1.0000 0.83150  0.39960  0.49820  Biso   1.000  H
  H68      1.0000 0.33150  0.89960  0.49820  Biso   1.000  H
  H69      1.0000 0.16850  0.39960  0.00180  Biso   1.000  H
  H70      1.0000 0.66850  0.89960  0.00180  Biso   1.000  H
  H71      1.0000 0.16850  0.60040  0.50180  Biso   1.000  H
  H72      1.0000 0.66850  0.10040  0.50180  Biso   1.000  H
  H73      1.0000 0.75690  0.69400  0.91670  Biso   1.000  H
  H74      1.0000 0.25690  0.19400  0.91670  Biso   1.000  H
  H75      1.0000 0.75690  0.30600  0.41670  Biso   1.000  H
  H76      1.0000 0.25690  0.80600  0.41670  Biso   1.000  H
  H77      1.0000 0.24310  0.30600  0.08330  Biso   1.000  H
  H78      1.0000 0.74310  0.80600  0.08330  Biso   1.000  H
  H79      1.0000 0.24310  0.69400  0.58330  Biso   1.000  H
  H80      1.0000 0.74310  0.19400  0.58330  Biso   1.000  H
  H81      1.0000 0.67130  0.50850  0.71000  Biso   1.000  H
  H82      1.0000 0.17130  0.00850  0.71000  Biso   1.000  H
  H83      1.0000 0.67130  0.49150  0.21000  Biso   1.000  H
  H84      1.0000 0.17130  0.99150  0.21000  Biso   1.000  H
  H85      1.0000 0.32870  0.49150  0.29000  Biso   1.000  H
  H86      1.0000 0.82870  0.99150  0.29000  Biso   1.000  H
  H87      1.0000 0.32870  0.50850  0.79000  Biso   1.000  H
  H88      1.0000 0.82870  0.00850  0.79000  Biso   1.000  H
