data_image0
_cell_length_a       13.1636
_cell_length_b       13.4973
_cell_length_c       19.1351
_cell_angle_alpha    90
_cell_angle_beta     105.841
_cell_angle_gamma    90

_symmetry_space_group_name_H-M    "P 1"
_symmetry_int_tables_number       1

loop_
  _symmetry_equiv_pos_as_xyz
  'x, y, z'

loop_
  _atom_site_label
  _atom_site_occupancy
  _atom_site_fract_x
  _atom_site_fract_y
  _atom_site_fract_z
  _atom_site_thermal_displace_type
  _atom_site_B_iso_or_equiv
  _atom_site_type_symbol
  Cu1      1.0000 0.22981  0.50989  0.19936  Biso   1.000  Cu
  Cu2      1.0000 0.22981  0.99011  0.69936  Biso   1.000  Cu
  Cu3      1.0000 0.77019  0.49011  0.80064  Biso   1.000  Cu
  Cu4      1.0000 0.77019  0.00989  0.30064  Biso   1.000  Cu
  O1       1.0000 0.20280  0.49250  0.08116  Biso   1.000  O
  O2       1.0000 0.20280  0.00750  0.58116  Biso   1.000  O
  O3       1.0000 0.79720  0.50750  0.91884  Biso   1.000  O
  O4       1.0000 0.79720  0.99250  0.41884  Biso   1.000  O
  H1       1.0000 0.23080  0.43380  0.06760  Biso   1.000  H
  H2       1.0000 0.23080  0.06620  0.56760  Biso   1.000  H
  H3       1.0000 0.76920  0.56620  0.93240  Biso   1.000  H
  H4       1.0000 0.76920  0.93380  0.43240  Biso   1.000  H
  H5       1.0000 0.16720  0.52610  0.04400  Biso   1.000  H
  H6       1.0000 0.16720  0.97390  0.54400  Biso   1.000  H
  H7       1.0000 0.83280  0.47390  0.95600  Biso   1.000  H
  H8       1.0000 0.83280  0.02610  0.45600  Biso   1.000  H
  N1       1.0000 0.16050  0.37790  0.20865  Biso   1.000  N
  N2       1.0000 0.16050  0.12210  0.70865  Biso   1.000  N
  N3       1.0000 0.83950  0.62210  0.79135  Biso   1.000  N
  N4       1.0000 0.83950  0.87790  0.29135  Biso   1.000  N
  N5       1.0000 0.19170  0.29680  0.17762  Biso   1.000  N
  N6       1.0000 0.19170  0.20320  0.67762  Biso   1.000  N
  N7       1.0000 0.80830  0.70320  0.82238  Biso   1.000  N
  N8       1.0000 0.80830  0.79680  0.32238  Biso   1.000  N
  H9       1.0000 0.22580  0.30310  0.14880  Biso   1.000  H
  H10      1.0000 0.22580  0.19690  0.64880  Biso   1.000  H
  H11      1.0000 0.77420  0.69690  0.85120  Biso   1.000  H
  H12      1.0000 0.77420  0.80310  0.35120  Biso   1.000  H
  N9       1.0000 0.90270  0.08210  0.30183  Biso   1.000  N
  N10      1.0000 0.90270  0.41790  0.80183  Biso   1.000  N
  N11      1.0000 0.09730  0.91790  0.69817  Biso   1.000  N
  N12      1.0000 0.09730  0.58210  0.19817  Biso   1.000  N
  N13      1.0000 0.99580  0.05830  0.34945  Biso   1.000  N
  N14      1.0000 0.99580  0.44170  0.84945  Biso   1.000  N
  N15      1.0000 0.00420  0.94170  0.65055  Biso   1.000  N
  N16      1.0000 0.00420  0.55830  0.15055  Biso   1.000  N
  H13      1.0000 0.99960  0.02360  0.37810  Biso   1.000  H
  H14      1.0000 0.99960  0.47640  0.87810  Biso   1.000  H
  H15      1.0000 0.00040  0.97640  0.62190  Biso   1.000  H
  H16      1.0000 0.00040  0.52360  0.12190  Biso   1.000  H
  N17      1.0000 0.37110  0.44310  0.21698  Biso   1.000  N
  N18      1.0000 0.37110  0.05690  0.71698  Biso   1.000  N
  N19      1.0000 0.62890  0.55690  0.78302  Biso   1.000  N
  N20      1.0000 0.62890  0.94310  0.28302  Biso   1.000  N
  N21      1.0000 0.43290  0.46980  0.17391  Biso   1.000  N
  N22      1.0000 0.43290  0.03020  0.67391  Biso   1.000  N
  N23      1.0000 0.56710  0.53020  0.82609  Biso   1.000  N
  N24      1.0000 0.56710  0.96980  0.32609  Biso   1.000  N
  H17      1.0000 0.40840  0.50440  0.14010  Biso   1.000  H
  H18      1.0000 0.40840  0.99560  0.64010  Biso   1.000  H
  H19      1.0000 0.59160  0.49560  0.85990  Biso   1.000  H
  H20      1.0000 0.59160  0.00440  0.35990  Biso   1.000  H
  N25      1.0000 0.69850  0.14230  0.30012  Biso   1.000  N
  N26      1.0000 0.69850  0.35770  0.80012  Biso   1.000  N
  N27      1.0000 0.30150  0.85770  0.69988  Biso   1.000  N
  N28      1.0000 0.30150  0.64230  0.19988  Biso   1.000  N
  N29      1.0000 0.74610  0.21190  0.34890  Biso   1.000  N
  N30      1.0000 0.74610  0.28810  0.84890  Biso   1.000  N
  N31      1.0000 0.25390  0.78810  0.65110  Biso   1.000  N
  N32      1.0000 0.25390  0.71190  0.15110  Biso   1.000  N
  H21      1.0000 0.78620  0.20100  0.37420  Biso   1.000  H
  H22      1.0000 0.78620  0.29900  0.87420  Biso   1.000  H
  H23      1.0000 0.21380  0.79900  0.62580  Biso   1.000  H
  H24      1.0000 0.21380  0.70100  0.12580  Biso   1.000  H
  C1       1.0000 0.09900  0.34290  0.24880  Biso   1.000  C
  C2       1.0000 0.09900  0.15710  0.74880  Biso   1.000  C
  C3       1.0000 0.90100  0.65710  0.75120  Biso   1.000  C
  C4       1.0000 0.90100  0.84290  0.25120  Biso   1.000  C
  C5       1.0000 0.09170  0.23890  0.24274  Biso   1.000  C
  C6       1.0000 0.09170  0.26110  0.74274  Biso   1.000  C
  C7       1.0000 0.90830  0.76110  0.75726  Biso   1.000  C
  C8       1.0000 0.90830  0.73890  0.25726  Biso   1.000  C
  C9       1.0000 0.15210  0.21310  0.19650  Biso   1.000  C
  C10      1.0000 0.15210  0.28690  0.69650  Biso   1.000  C
  C11      1.0000 0.84790  0.78690  0.80350  Biso   1.000  C
  C12      1.0000 0.84790  0.71310  0.30350  Biso   1.000  C
  C13      1.0000 0.17440  0.11410  0.16890  Biso   1.000  C
  C14      1.0000 0.17440  0.38590  0.66890  Biso   1.000  C
  C15      1.0000 0.82560  0.88590  0.83110  Biso   1.000  C
  C16      1.0000 0.82560  0.61410  0.33110  Biso   1.000  C
  H25      1.0000 0.21970  0.12280  0.13770  Biso   1.000  H
  H26      1.0000 0.21970  0.37720  0.63770  Biso   1.000  H
  H27      1.0000 0.78030  0.87720  0.86230  Biso   1.000  H
  H28      1.0000 0.78030  0.62280  0.36230  Biso   1.000  H
  H29      1.0000 0.20850  0.07230  0.20900  Biso   1.000  H
  H30      1.0000 0.20850  0.42770  0.70900  Biso   1.000  H
  H31      1.0000 0.79150  0.92770  0.79100  Biso   1.000  H
  H32      1.0000 0.79150  0.57230  0.29100  Biso   1.000  H
  H33      1.0000 0.10940  0.08400  0.14200  Biso   1.000  H
  H34      1.0000 0.10940  0.41600  0.64200  Biso   1.000  H
  H35      1.0000 0.89060  0.91600  0.85800  Biso   1.000  H
  H36      1.0000 0.89060  0.58400  0.35800  Biso   1.000  H
  C17      1.0000 0.04710  0.40680  0.29180  Biso   1.000  C
  C18      1.0000 0.04710  0.09320  0.79180  Biso   1.000  C
  C19      1.0000 0.95290  0.59320  0.70820  Biso   1.000  C
  C20      1.0000 0.95290  0.90680  0.20820  Biso   1.000  C
  H37      1.0000 0.06510  0.47470  0.28620  Biso   1.000  H
  H38      1.0000 0.06510  0.02530  0.78620  Biso   1.000  H
  H39      1.0000 0.93490  0.52530  0.71380  Biso   1.000  H
  H40      1.0000 0.93490  0.97470  0.21380  Biso   1.000  H
  H41      1.0000 0.97180  0.39890  0.27530  Biso   1.000  H
  H42      1.0000 0.97180  0.10110  0.77530  Biso   1.000  H
  H43      1.0000 0.02820  0.60110  0.72470  Biso   1.000  H
  H44      1.0000 0.02820  0.89890  0.22470  Biso   1.000  H
  H45      1.0000 0.07150  0.38830  0.34200  Biso   1.000  H
  H46      1.0000 0.07150  0.11170  0.84200  Biso   1.000  H
  H47      1.0000 0.92850  0.61170  0.65800  Biso   1.000  H
  H48      1.0000 0.92850  0.88830  0.15800  Biso   1.000  H
  C21      1.0000 0.92470  0.15160  0.25770  Biso   1.000  C
  C22      1.0000 0.92470  0.34840  0.75770  Biso   1.000  C
  C23      1.0000 0.07530  0.84840  0.74230  Biso   1.000  C
  C24      1.0000 0.07530  0.65160  0.24230  Biso   1.000  C
  C25      1.0000 0.03390  0.17100  0.27820  Biso   1.000  C
  C26      1.0000 0.03390  0.32900  0.77820  Biso   1.000  C
  C27      1.0000 0.96610  0.82900  0.72180  Biso   1.000  C
  C28      1.0000 0.96610  0.67100  0.22180  Biso   1.000  C
  C29      1.0000 0.07580  0.11030  0.33740  Biso   1.000  C
  C30      1.0000 0.07580  0.38970  0.83740  Biso   1.000  C
  C31      1.0000 0.92420  0.88970  0.66260  Biso   1.000  C
  C32      1.0000 0.92420  0.61030  0.16260  Biso   1.000  C
  C33      1.0000 0.18590  0.10080  0.38450  Biso   1.000  C
  C34      1.0000 0.18590  0.39920  0.88450  Biso   1.000  C
  C35      1.0000 0.81410  0.89920  0.61550  Biso   1.000  C
  C36      1.0000 0.81410  0.60080  0.11550  Biso   1.000  C
  H49      1.0000 0.18900  0.05200  0.42150  Biso   1.000  H
  H50      1.0000 0.18900  0.44800  0.92150  Biso   1.000  H
  H51      1.0000 0.81100  0.94800  0.57850  Biso   1.000  H
  H52      1.0000 0.81100  0.55200  0.07850  Biso   1.000  H
  H53      1.0000 0.76940  0.58090  0.14510  Biso   1.000  H
  H54      1.0000 0.76940  0.91910  0.64510  Biso   1.000  H
  H55      1.0000 0.23060  0.41910  0.85490  Biso   1.000  H
  H56      1.0000 0.23060  0.08090  0.35490  Biso   1.000  H
  H57      1.0000 0.20950  0.16350  0.40680  Biso   1.000  H
  H58      1.0000 0.20950  0.33650  0.90680  Biso   1.000  H
  H59      1.0000 0.79050  0.83650  0.59320  Biso   1.000  H
  H60      1.0000 0.79050  0.66350  0.09320  Biso   1.000  H
  C37      1.0000 0.84260  0.19730  0.19670  Biso   1.000  C
  C38      1.0000 0.84260  0.30270  0.69670  Biso   1.000  C
  C39      1.0000 0.15740  0.80270  0.80330  Biso   1.000  C
  C40      1.0000 0.15740  0.69730  0.30330  Biso   1.000  C
  H61      1.0000 0.77480  0.16980  0.19540  Biso   1.000  H
  H62      1.0000 0.77480  0.33020  0.69540  Biso   1.000  H
  H63      1.0000 0.22520  0.83020  0.80460  Biso   1.000  H
  H64      1.0000 0.22520  0.66980  0.30460  Biso   1.000  H
  H65      1.0000 0.84120  0.26760  0.20370  Biso   1.000  H
  H66      1.0000 0.84120  0.23240  0.70370  Biso   1.000  H
  H67      1.0000 0.15880  0.73240  0.79630  Biso   1.000  H
  H68      1.0000 0.15880  0.76760  0.29630  Biso   1.000  H
  H69      1.0000 0.85870  0.18340  0.15170  Biso   1.000  H
  H70      1.0000 0.85870  0.31660  0.65170  Biso   1.000  H
  H71      1.0000 0.14130  0.81660  0.84830  Biso   1.000  H
  H72      1.0000 0.14130  0.68340  0.34830  Biso   1.000  H
  C41      1.0000 0.42650  0.37420  0.26300  Biso   1.000  C
  C42      1.0000 0.42650  0.12580  0.76300  Biso   1.000  C
  C43      1.0000 0.57350  0.62580  0.73700  Biso   1.000  C
  C44      1.0000 0.57350  0.87420  0.23700  Biso   1.000  C
  C45      1.0000 0.52340  0.35740  0.24720  Biso   1.000  C
  C46      1.0000 0.52340  0.14260  0.74720  Biso   1.000  C
  C47      1.0000 0.47660  0.64260  0.75280  Biso   1.000  C
  C48      1.0000 0.47660  0.85740  0.25280  Biso   1.000  C
  C49      1.0000 0.52370  0.42040  0.19030  Biso   1.000  C
  C50      1.0000 0.52370  0.07960  0.69030  Biso   1.000  C
  C51      1.0000 0.47630  0.57960  0.80970  Biso   1.000  C
  C52      1.0000 0.47630  0.92040  0.30970  Biso   1.000  C
  C53      1.0000 0.60590  0.43700  0.15090  Biso   1.000  C
  C54      1.0000 0.60590  0.06300  0.65090  Biso   1.000  C
  C55      1.0000 0.39410  0.56300  0.84910  Biso   1.000  C
  C56      1.0000 0.39410  0.93700  0.34910  Biso   1.000  C
  H73      1.0000 0.58170  0.48620  0.11390  Biso   1.000  H
  H74      1.0000 0.58170  0.01380  0.61390  Biso   1.000  H
  H75      1.0000 0.41830  0.51380  0.88610  Biso   1.000  H
  H76      1.0000 0.41830  0.98620  0.38610  Biso   1.000  H
  H77      1.0000 0.67010  0.45920  0.18460  Biso   1.000  H
  H78      1.0000 0.67010  0.04080  0.68460  Biso   1.000  H
  H79      1.0000 0.32990  0.54080  0.81540  Biso   1.000  H
  H80      1.0000 0.32990  0.95920  0.31540  Biso   1.000  H
  H81      1.0000 0.61860  0.37600  0.12900  Biso   1.000  H
  H82      1.0000 0.61860  0.12400  0.62900  Biso   1.000  H
  H83      1.0000 0.38140  0.62400  0.87100  Biso   1.000  H
  H84      1.0000 0.38140  0.87600  0.37100  Biso   1.000  H
  C57      1.0000 0.38870  0.32930  0.32260  Biso   1.000  C
  C58      1.0000 0.38870  0.17070  0.82260  Biso   1.000  C
  C59      1.0000 0.61130  0.67070  0.67740  Biso   1.000  C
  C60      1.0000 0.61130  0.82930  0.17740  Biso   1.000  C
  H85      1.0000 0.32010  0.35490  0.32120  Biso   1.000  H
  H86      1.0000 0.32010  0.14510  0.82120  Biso   1.000  H
  H87      1.0000 0.67990  0.64510  0.67880  Biso   1.000  H
  H88      1.0000 0.67990  0.85490  0.17880  Biso   1.000  H
  H89      1.0000 0.38450  0.25880  0.31580  Biso   1.000  H
  H90      1.0000 0.38450  0.24120  0.81580  Biso   1.000  H
  H91      1.0000 0.61550  0.74120  0.68420  Biso   1.000  H
  H92      1.0000 0.61550  0.75880  0.18420  Biso   1.000  H
  H93      1.0000 0.43720  0.34430  0.36880  Biso   1.000  H
  H94      1.0000 0.43720  0.15570  0.86880  Biso   1.000  H
  H95      1.0000 0.56280  0.65570  0.63120  Biso   1.000  H
  H96      1.0000 0.56280  0.84430  0.13120  Biso   1.000  H
  C61      1.0000 0.61230  0.18620  0.25740  Biso   1.000  C
  C62      1.0000 0.61230  0.31380  0.75740  Biso   1.000  C
  C63      1.0000 0.38770  0.81380  0.74260  Biso   1.000  C
  C64      1.0000 0.38770  0.68620  0.24260  Biso   1.000  C
  C65      1.0000 0.60570  0.28410  0.28090  Biso   1.000  C
  C66      1.0000 0.60570  0.21590  0.78090  Biso   1.000  C
  C67      1.0000 0.39430  0.71590  0.71910  Biso   1.000  C
  C68      1.0000 0.39430  0.78410  0.21910  Biso   1.000  C
  C69      1.0000 0.69310  0.29720  0.33960  Biso   1.000  C
  C70      1.0000 0.69310  0.20280  0.83960  Biso   1.000  C
  C71      1.0000 0.30690  0.70280  0.66040  Biso   1.000  C
  C72      1.0000 0.30690  0.79720  0.16040  Biso   1.000  C
  C73      1.0000 0.72880  0.38510  0.38730  Biso   1.000  C
  C74      1.0000 0.72880  0.11490  0.88730  Biso   1.000  C
  C75      1.0000 0.27120  0.61490  0.61270  Biso   1.000  C
  C76      1.0000 0.27120  0.88510  0.11270  Biso   1.000  C
  H97      1.0000 0.79370  0.36950  0.42290  Biso   1.000  H
  H98      1.0000 0.79370  0.13050  0.92290  Biso   1.000  H
  H99      1.0000 0.20630  0.63050  0.57710  Biso   1.000  H
  H100     1.0000 0.20630  0.86950  0.07710  Biso   1.000  H
  H101     1.0000 0.73980  0.44000  0.35830  Biso   1.000  H
  H102     1.0000 0.73980  0.06000  0.85830  Biso   1.000  H
  H103     1.0000 0.26020  0.56000  0.64170  Biso   1.000  H
  H104     1.0000 0.26020  0.94000  0.14170  Biso   1.000  H
  H105     1.0000 0.67600  0.40230  0.41130  Biso   1.000  H
  H106     1.0000 0.67600  0.09770  0.91130  Biso   1.000  H
  H107     1.0000 0.32400  0.59770  0.58870  Biso   1.000  H
  H108     1.0000 0.32400  0.90230  0.08870  Biso   1.000  H
  C77      1.0000 0.53830  0.13590  0.19450  Biso   1.000  C
  C78      1.0000 0.53830  0.36410  0.69450  Biso   1.000  C
  C79      1.0000 0.46170  0.86410  0.80550  Biso   1.000  C
  C80      1.0000 0.46170  0.63590  0.30550  Biso   1.000  C
  H109     1.0000 0.56190  0.06940  0.19040  Biso   1.000  H
  H110     1.0000 0.56190  0.43060  0.69040  Biso   1.000  H
  H111     1.0000 0.43810  0.93060  0.80960  Biso   1.000  H
  H112     1.0000 0.43810  0.56940  0.30960  Biso   1.000  H
  H113     1.0000 0.46900  0.13440  0.20170  Biso   1.000  H
  H114     1.0000 0.46900  0.36560  0.70170  Biso   1.000  H
  H115     1.0000 0.53100  0.86560  0.79830  Biso   1.000  H
  H116     1.0000 0.53100  0.63440  0.29830  Biso   1.000  H
  H117     1.0000 0.53630  0.17180  0.15080  Biso   1.000  H
  H118     1.0000 0.53630  0.32820  0.65080  Biso   1.000  H
  H119     1.0000 0.46370  0.82820  0.84920  Biso   1.000  H
  H120     1.0000 0.46370  0.67180  0.34920  Biso   1.000  H
  O5       1.0000 0.27900  0.30870  0.06118  Biso   1.000  O
  O6       1.0000 0.27900  0.19130  0.56118  Biso   1.000  O
  O7       1.0000 0.72100  0.69130  0.93882  Biso   1.000  O
  O8       1.0000 0.72100  0.80870  0.43882  Biso   1.000  O
  O9       1.0000 0.39730  0.22880  0.01930  Biso   1.000  O
  O10      1.0000 0.39730  0.27120  0.51930  Biso   1.000  O
  O11      1.0000 0.60270  0.77120  0.98070  Biso   1.000  O
  O12      1.0000 0.60270  0.72880  0.48070  Biso   1.000  O
  C81      1.0000 0.35840  0.30320  0.03760  Biso   1.000  C
  C82      1.0000 0.35840  0.19680  0.53760  Biso   1.000  C
  C83      1.0000 0.64160  0.69680  0.96240  Biso   1.000  C
  C84      1.0000 0.64160  0.80320  0.46240  Biso   1.000  C
  H121     1.0000 0.39280  0.36480  0.03350  Biso   1.000  H
  H122     1.0000 0.39280  0.13520  0.53350  Biso   1.000  H
  H123     1.0000 0.60720  0.63520  0.96650  Biso   1.000  H
  H124     1.0000 0.60720  0.86480  0.46650  Biso   1.000  H
  O13      1.0000 0.92950  0.42540  0.03857  Biso   1.000  O
  O14      1.0000 0.92950  0.07460  0.53857  Biso   1.000  O
  O15      1.0000 0.07050  0.57460  0.96143  Biso   1.000  O
  O16      1.0000 0.07050  0.92540  0.46143  Biso   1.000  O
  O17      1.0000 0.91890  0.29340  0.96900  Biso   1.000  O
  O18      1.0000 0.91890  0.20660  0.46900  Biso   1.000  O
  O19      1.0000 0.08110  0.70660  0.03100  Biso   1.000  O
  O20      1.0000 0.08110  0.79340  0.53100  Biso   1.000  O
  C85      1.0000 0.95789  0.34319  0.02410  Biso   1.000  C
  C86      1.0000 0.95789  0.15681  0.52410  Biso   1.000  C
  C87      1.0000 0.04211  0.65681  0.97590  Biso   1.000  C
  C88      1.0000 0.04211  0.84319  0.47590  Biso   1.000  C
  H125     1.0000 0.01648  0.31427  0.05955  Biso   1.000  H
  H126     1.0000 0.01648  0.18573  0.55955  Biso   1.000  H
  H127     1.0000 0.98352  0.68573  0.94045  Biso   1.000  H
  H128     1.0000 0.98352  0.81427  0.44045  Biso   1.000  H
  O21      1.0000 0.42553  0.59947  0.06101  Biso   1.000  O
  O22      1.0000 0.42553  0.90053  0.56101  Biso   1.000  O
  O23      1.0000 0.57447  0.40053  0.93899  Biso   1.000  O
  O24      1.0000 0.57447  0.09947  0.43899  Biso   1.000  O
  N33      1.0000 0.39309  0.73632  0.99294  Biso   1.000  N
  N34      1.0000 0.39309  0.76368  0.49294  Biso   1.000  N
  N35      1.0000 0.60691  0.26368  0.00706  Biso   1.000  N
  N36      1.0000 0.60691  0.23632  0.50706  Biso   1.000  N
  H129     1.0000 0.45778  0.74675  0.99449  Biso   1.000  H
  H130     1.0000 0.45778  0.75325  0.49449  Biso   1.000  H
  H131     1.0000 0.54222  0.25325  0.00551  Biso   1.000  H
  H132     1.0000 0.54222  0.24675  0.50551  Biso   1.000  H
  H133     1.0000 0.34295  0.78669  0.96666  Biso   1.000  H
  H134     1.0000 0.34295  0.71331  0.46666  Biso   1.000  H
  H135     1.0000 0.65705  0.21331  0.03334  Biso   1.000  H
  H136     1.0000 0.65705  0.28669  0.53334  Biso   1.000  H
  C89      1.0000 0.36528  0.66004  0.02570  Biso   1.000  C
  C90      1.0000 0.36528  0.83996  0.52570  Biso   1.000  C
  C91      1.0000 0.63472  0.33996  0.97430  Biso   1.000  C
  C92      1.0000 0.63472  0.16004  0.47430  Biso   1.000  C
  H137     1.0000 0.29131  0.65154  0.02099  Biso   1.000  H
  H138     1.0000 0.29131  0.84846  0.52099  Biso   1.000  H
  H139     1.0000 0.70869  0.34846  0.97901  Biso   1.000  H
  H140     1.0000 0.70869  0.15154  0.47901  Biso   1.000  H
  C93      1.0000 0.52640  0.96350  0.98990  Biso   1.000  C
  C94      1.0000 0.52640  0.53650  0.48990  Biso   1.000  C
  C95      1.0000 0.47360  0.03650  0.01010  Biso   1.000  C
  C96      1.0000 0.47360  0.46350  0.51010  Biso   1.000  C
  C97      1.0000 0.57530  0.03310  0.02890  Biso   1.000  C
  C98      1.0000 0.57530  0.46690  0.52890  Biso   1.000  C
  C99      1.0000 0.42470  0.96690  0.97110  Biso   1.000  C
  C100     1.0000 0.42470  0.53310  0.47110  Biso   1.000  C
  C101     1.0000 0.68450  0.05510  0.06110  Biso   1.000  C
  C102     1.0000 0.68450  0.44490  0.56110  Biso   1.000  C
  C103     1.0000 0.31550  0.94490  0.93890  Biso   1.000  C
  C104     1.0000 0.31550  0.55510  0.43890  Biso   1.000  C
  C105     1.0000 0.77190  0.00850  0.05340  Biso   1.000  C
  C106     1.0000 0.77190  0.49150  0.55340  Biso   1.000  C
  C107     1.0000 0.22810  0.99150  0.94660  Biso   1.000  C
  C108     1.0000 0.22810  0.50850  0.44660  Biso   1.000  C
  C109     1.0000 0.77240  0.91690  0.02560  Biso   1.000  C
  C110     1.0000 0.77240  0.58310  0.52560  Biso   1.000  C
  C111     1.0000 0.22760  0.08310  0.97440  Biso   1.000  C
  C112     1.0000 0.22760  0.41690  0.47440  Biso   1.000  C
  C113     1.0000 0.90100  0.91890  0.02660  Biso   1.000  C
  C114     1.0000 0.90100  0.58110  0.52660  Biso   1.000  C
  C115     1.0000 0.09900  0.08110  0.97340  Biso   1.000  C
  C116     1.0000 0.09900  0.41890  0.47340  Biso   1.000  C
  C117     1.0000 0.88910  0.82930  0.02120  Biso   1.000  C
  C118     1.0000 0.88910  0.67070  0.52120  Biso   1.000  C
  C119     1.0000 0.11090  0.17070  0.97880  Biso   1.000  C
  C120     1.0000 0.11090  0.32930  0.47880  Biso   1.000  C
  C121     1.0000 0.98270  0.88150  0.03570  Biso   1.000  C
  C122     1.0000 0.98270  0.61850  0.53570  Biso   1.000  C
  C123     1.0000 0.01730  0.11850  0.96430  Biso   1.000  C
  C124     1.0000 0.01730  0.38150  0.46430  Biso   1.000  C
  C125     1.0000 0.97150  0.97740  0.04680  Biso   1.000  C
  C126     1.0000 0.97150  0.52260  0.54680  Biso   1.000  C
  C127     1.0000 0.02850  0.02260  0.95320  Biso   1.000  C
  C128     1.0000 0.02850  0.47740  0.45320  Biso   1.000  C
