data_image0
_cell_length_a       14.443
_cell_length_b       11.2031
_cell_length_c       5.3902
_cell_angle_alpha    90
_cell_angle_beta     104.854
_cell_angle_gamma    90

_symmetry_space_group_name_H-M    "P 1"
_symmetry_int_tables_number       1

loop_
  _symmetry_equiv_pos_as_xyz
  'x, y, z'

loop_
  _atom_site_label
  _atom_site_occupancy
  _atom_site_fract_x
  _atom_site_fract_y
  _atom_site_fract_z
  _atom_site_thermal_displace_type
  _atom_site_B_iso_or_equiv
  _atom_site_type_symbol
  Cu1      1.0000 0.00000  0.00000  0.50000  Biso   1.000  Cu
  Cu2      1.0000 0.50000  0.50000  0.50000  Biso   1.000  Cu
  O1       1.0000 0.12267  0.00000  0.75590  Biso   1.000  O
  O2       1.0000 0.62267  0.50000  0.75590  Biso   1.000  O
  O3       1.0000 0.87733  0.00000  0.24410  Biso   1.000  O
  O4       1.0000 0.37733  0.50000  0.24410  Biso   1.000  O
  O5       1.0000 0.11563  0.00000  0.25860  Biso   1.000  O
  O6       1.0000 0.61563  0.50000  0.25860  Biso   1.000  O
  O7       1.0000 0.88437  0.00000  0.74140  Biso   1.000  O
  O8       1.0000 0.38437  0.50000  0.74140  Biso   1.000  O
  O9       1.0000 0.28123  0.00000  0.86460  Biso   1.000  O
  O10      1.0000 0.78123  0.50000  0.86460  Biso   1.000  O
  O11      1.0000 0.71877  0.00000  0.13540  Biso   1.000  O
  O12      1.0000 0.21877  0.50000  0.13540  Biso   1.000  O
  N1       1.0000 0.00000  0.18290  0.50000  Biso   1.000  N
  N2       1.0000 0.50000  0.68290  0.50000  Biso   1.000  N
  N3       1.0000 0.00000  0.81710  0.50000  Biso   1.000  N
  N4       1.0000 0.50000  0.31710  0.50000  Biso   1.000  N
  C1       1.0000 0.04136  0.24590  0.71080  Biso   1.000  C
  C2       1.0000 0.54136  0.74590  0.71080  Biso   1.000  C
  C3       1.0000 0.04136  0.75410  0.71080  Biso   1.000  C
  C4       1.0000 0.54136  0.25410  0.71080  Biso   1.000  C
  C5       1.0000 0.95864  0.75410  0.28920  Biso   1.000  C
  C6       1.0000 0.45864  0.25410  0.28920  Biso   1.000  C
  C7       1.0000 0.95864  0.24590  0.28920  Biso   1.000  C
  C8       1.0000 0.45864  0.74590  0.28920  Biso   1.000  C
  H1       1.0000 0.07040  0.20440  0.85990  Biso   1.000  H
  H2       1.0000 0.57040  0.70440  0.85990  Biso   1.000  H
  H3       1.0000 0.07040  0.79560  0.85990  Biso   1.000  H
  H4       1.0000 0.57040  0.29560  0.85990  Biso   1.000  H
  H5       1.0000 0.92960  0.79560  0.14010  Biso   1.000  H
  H6       1.0000 0.42960  0.29560  0.14010  Biso   1.000  H
  H7       1.0000 0.92960  0.20440  0.14010  Biso   1.000  H
  H8       1.0000 0.42960  0.70440  0.14010  Biso   1.000  H
  C9       1.0000 0.04318  0.36838  0.71810  Biso   1.000  C
  C10      1.0000 0.54318  0.86838  0.71810  Biso   1.000  C
  C11      1.0000 0.04318  0.63162  0.71810  Biso   1.000  C
  C12      1.0000 0.54318  0.13162  0.71810  Biso   1.000  C
  C13      1.0000 0.95682  0.63162  0.28190  Biso   1.000  C
  C14      1.0000 0.45682  0.13162  0.28190  Biso   1.000  C
  C15      1.0000 0.95682  0.36838  0.28190  Biso   1.000  C
  C16      1.0000 0.45682  0.86838  0.28190  Biso   1.000  C
  H9       1.0000 0.07340  0.40750  0.86940  Biso   1.000  H
  H10      1.0000 0.57340  0.90750  0.86940  Biso   1.000  H
  H11      1.0000 0.07340  0.59250  0.86940  Biso   1.000  H
  H12      1.0000 0.57340  0.09250  0.86940  Biso   1.000  H
  H13      1.0000 0.92660  0.59250  0.13060  Biso   1.000  H
  H14      1.0000 0.42660  0.09250  0.13060  Biso   1.000  H
  H15      1.0000 0.92660  0.40750  0.13060  Biso   1.000  H
  H16      1.0000 0.42660  0.90750  0.13060  Biso   1.000  H
  C17      1.0000 0.00000  0.43450  0.50000  Biso   1.000  C
  C18      1.0000 0.50000  0.93450  0.50000  Biso   1.000  C
  C19      1.0000 0.00000  0.56550  0.50000  Biso   1.000  C
  C20      1.0000 0.50000  0.06550  0.50000  Biso   1.000  C
  C21      1.0000 0.20430  0.00000  0.70350  Biso   1.000  C
  C22      1.0000 0.70430  0.50000  0.70350  Biso   1.000  C
  C23      1.0000 0.79570  0.00000  0.29650  Biso   1.000  C
  C24      1.0000 0.29570  0.50000  0.29650  Biso   1.000  C
  C25      1.0000 0.20720  0.03330  0.42610  Biso   1.000  C
  C26      1.0000 0.70720  0.53330  0.42610  Biso   1.000  C
  C27      1.0000 0.20720  0.96670  0.42610  Biso   1.000  C
  C28      1.0000 0.70720  0.46670  0.42610  Biso   1.000  C
  C29      1.0000 0.79280  0.96670  0.57390  Biso   1.000  C
  C30      1.0000 0.29280  0.46670  0.57390  Biso   1.000  C
  C31      1.0000 0.79280  0.03330  0.57390  Biso   1.000  C
  C32      1.0000 0.29280  0.53330  0.57390  Biso   1.000  C
  H17      1.0000 0.25590  0.98290  0.38130  Biso   1.000  H
  H18      1.0000 0.75590  0.48290  0.38130  Biso   1.000  H
  H19      1.0000 0.25590  0.01710  0.38130  Biso   1.000  H
  H20      1.0000 0.75590  0.51710  0.38130  Biso   1.000  H
  H21      1.0000 0.74410  0.01710  0.61870  Biso   1.000  H
  H22      1.0000 0.24410  0.51710  0.61870  Biso   1.000  H
  H23      1.0000 0.74410  0.98290  0.61870  Biso   1.000  H
  H24      1.0000 0.24410  0.48290  0.61870  Biso   1.000  H
  C33      1.0000 0.23460  0.16330  0.39340  Biso   1.000  C
  C34      1.0000 0.73460  0.66330  0.39340  Biso   1.000  C
  C35      1.0000 0.23460  0.83670  0.39340  Biso   1.000  C
  C36      1.0000 0.73460  0.33670  0.39340  Biso   1.000  C
  C37      1.0000 0.76540  0.83670  0.60660  Biso   1.000  C
  C38      1.0000 0.26540  0.33670  0.60660  Biso   1.000  C
  C39      1.0000 0.76540  0.16330  0.60660  Biso   1.000  C
  C40      1.0000 0.26540  0.66330  0.60660  Biso   1.000  C
  H25      1.0000 0.19000  0.21540  0.44450  Biso   1.000  H
  H26      1.0000 0.69000  0.71540  0.44450  Biso   1.000  H
  H27      1.0000 0.19000  0.78460  0.44450  Biso   1.000  H
  H28      1.0000 0.69000  0.28460  0.44450  Biso   1.000  H
  H29      1.0000 0.81000  0.78460  0.55550  Biso   1.000  H
  H30      1.0000 0.31000  0.28460  0.55550  Biso   1.000  H
  H31      1.0000 0.81000  0.21540  0.55550  Biso   1.000  H
  H32      1.0000 0.31000  0.71540  0.55550  Biso   1.000  H
  H33      1.0000 0.23290  0.17780  0.21680  Biso   1.000  H
  H34      1.0000 0.73290  0.67780  0.21680  Biso   1.000  H
  H35      1.0000 0.23290  0.82220  0.21680  Biso   1.000  H
  H36      1.0000 0.73290  0.32220  0.21680  Biso   1.000  H
  H37      1.0000 0.76710  0.82220  0.78320  Biso   1.000  H
  H38      1.0000 0.26710  0.32220  0.78320  Biso   1.000  H
  H39      1.0000 0.76710  0.17780  0.78320  Biso   1.000  H
  H40      1.0000 0.26710  0.67780  0.78320  Biso   1.000  H
  H41      1.0000 0.29800  0.17820  0.49850  Biso   1.000  H
  H42      1.0000 0.79800  0.67820  0.49850  Biso   1.000  H
  H43      1.0000 0.29800  0.82180  0.49850  Biso   1.000  H
  H44      1.0000 0.79800  0.32180  0.49850  Biso   1.000  H
  H45      1.0000 0.70200  0.82180  0.50150  Biso   1.000  H
  H46      1.0000 0.20200  0.32180  0.50150  Biso   1.000  H
  H47      1.0000 0.70200  0.17820  0.50150  Biso   1.000  H
  H48      1.0000 0.20200  0.67820  0.50150  Biso   1.000  H
  H49      1.0000 0.12200  0.00000  0.12100  Biso   1.000  H
  H50      1.0000 0.62200  0.50000  0.12100  Biso   1.000  H
  H51      1.0000 0.87800  0.00000  0.87900  Biso   1.000  H
  H52      1.0000 0.37800  0.50000  0.87900  Biso   1.000  H
