data_image0
_cell_length_a       13.3817
_cell_length_b       13.3817
_cell_length_c       18.0851
_cell_angle_alpha    90
_cell_angle_beta     90
_cell_angle_gamma    90

_symmetry_space_group_name_H-M    "P 1"
_symmetry_int_tables_number       1

loop_
  _symmetry_equiv_pos_as_xyz
  'x, y, z'

loop_
  _atom_site_label
  _atom_site_occupancy
  _atom_site_fract_x
  _atom_site_fract_y
  _atom_site_fract_z
  _atom_site_thermal_displace_type
  _atom_site_B_iso_or_equiv
  _atom_site_type_symbol
  Cu1      1.0000 0.00000  0.00000  0.29068  Biso   1.000  Cu
  Cu2      1.0000 0.50000  0.50000  0.20932  Biso   1.000  Cu
  Cu3      1.0000 0.00000  0.00000  0.70932  Biso   1.000  Cu
  Cu4      1.0000 0.50000  0.50000  0.79068  Biso   1.000  Cu
  N1       1.0000 0.86720  0.06800  0.28760  Biso   1.000  N
  N2       1.0000 0.93200  0.86720  0.28760  Biso   1.000  N
  N3       1.0000 0.06800  0.13280  0.28760  Biso   1.000  N
  N4       1.0000 0.56800  0.36720  0.21240  Biso   1.000  N
  N5       1.0000 0.86720  0.06800  0.71240  Biso   1.000  N
  N6       1.0000 0.36720  0.43200  0.78760  Biso   1.000  N
  N7       1.0000 0.63280  0.56800  0.78760  Biso   1.000  N
  N8       1.0000 0.56800  0.36720  0.78760  Biso   1.000  N
  N9       1.0000 0.13280  0.93200  0.71240  Biso   1.000  N
  N10      1.0000 0.06800  0.13280  0.71240  Biso   1.000  N
  N11      1.0000 0.93200  0.86720  0.71240  Biso   1.000  N
  N12      1.0000 0.43200  0.63280  0.78760  Biso   1.000  N
  N13      1.0000 0.13280  0.93200  0.28760  Biso   1.000  N
  N14      1.0000 0.63280  0.56800  0.21240  Biso   1.000  N
  N15      1.0000 0.36720  0.43200  0.21240  Biso   1.000  N
  N16      1.0000 0.43200  0.63280  0.21240  Biso   1.000  N
  N17      1.0000 0.79460  0.03960  0.33540  Biso   1.000  N
  N18      1.0000 0.96040  0.79460  0.33540  Biso   1.000  N
  N19      1.0000 0.03960  0.20540  0.33540  Biso   1.000  N
  N20      1.0000 0.53960  0.29460  0.16460  Biso   1.000  N
  N21      1.0000 0.79460  0.03960  0.66460  Biso   1.000  N
  N22      1.0000 0.29460  0.46040  0.83540  Biso   1.000  N
  N23      1.0000 0.70540  0.53960  0.83540  Biso   1.000  N
  N24      1.0000 0.53960  0.29460  0.83540  Biso   1.000  N
  N25      1.0000 0.20540  0.96040  0.66460  Biso   1.000  N
  N26      1.0000 0.03960  0.20540  0.66460  Biso   1.000  N
  N27      1.0000 0.96040  0.79460  0.66460  Biso   1.000  N
  N28      1.0000 0.46040  0.70540  0.83540  Biso   1.000  N
  N29      1.0000 0.20540  0.96040  0.33540  Biso   1.000  N
  N30      1.0000 0.70540  0.53960  0.16460  Biso   1.000  N
  N31      1.0000 0.29460  0.46040  0.16460  Biso   1.000  N
  N32      1.0000 0.46040  0.70540  0.16460  Biso   1.000  N
  H1       1.0000 0.80260  0.99220  0.37020  Biso   1.000  H
  H2       1.0000 0.00780  0.80260  0.37020  Biso   1.000  H
  H3       1.0000 0.99220  0.19740  0.37020  Biso   1.000  H
  H4       1.0000 0.49220  0.30260  0.12980  Biso   1.000  H
  H5       1.0000 0.80260  0.99220  0.62980  Biso   1.000  H
  H6       1.0000 0.30260  0.50780  0.87020  Biso   1.000  H
  H7       1.0000 0.69740  0.49220  0.87020  Biso   1.000  H
  H8       1.0000 0.49220  0.30260  0.87020  Biso   1.000  H
  H9       1.0000 0.19740  0.00780  0.62980  Biso   1.000  H
  H10      1.0000 0.99220  0.19740  0.62980  Biso   1.000  H
  H11      1.0000 0.00780  0.80260  0.62980  Biso   1.000  H
  H12      1.0000 0.50780  0.69740  0.87020  Biso   1.000  H
  H13      1.0000 0.19740  0.00780  0.37020  Biso   1.000  H
  H14      1.0000 0.69740  0.49220  0.12980  Biso   1.000  H
  H15      1.0000 0.30260  0.50780  0.12980  Biso   1.000  H
  H16      1.0000 0.50780  0.69740  0.12980  Biso   1.000  H
  C1       1.0000 0.82640  0.13980  0.24460  Biso   1.000  C
  C2       1.0000 0.86020  0.82640  0.24460  Biso   1.000  C
  C3       1.0000 0.13980  0.17360  0.24460  Biso   1.000  C
  C4       1.0000 0.63980  0.32640  0.25540  Biso   1.000  C
  C5       1.0000 0.82640  0.13980  0.75540  Biso   1.000  C
  C6       1.0000 0.32640  0.36020  0.74460  Biso   1.000  C
  C7       1.0000 0.67360  0.63980  0.74460  Biso   1.000  C
  C8       1.0000 0.63980  0.32640  0.74460  Biso   1.000  C
  C9       1.0000 0.17360  0.86020  0.75540  Biso   1.000  C
  C10      1.0000 0.13980  0.17360  0.75540  Biso   1.000  C
  C11      1.0000 0.86020  0.82640  0.75540  Biso   1.000  C
  C12      1.0000 0.36020  0.67360  0.74460  Biso   1.000  C
  C13      1.0000 0.17360  0.86020  0.24460  Biso   1.000  C
  C14      1.0000 0.67360  0.63980  0.25540  Biso   1.000  C
  C15      1.0000 0.32640  0.36020  0.25540  Biso   1.000  C
  C16      1.0000 0.36020  0.67360  0.25540  Biso   1.000  C
  C17      1.0000 0.72620  0.15520  0.26670  Biso   1.000  C
  C18      1.0000 0.84480  0.72620  0.26670  Biso   1.000  C
  C19      1.0000 0.15520  0.27380  0.26670  Biso   1.000  C
  C20      1.0000 0.65520  0.22620  0.23330  Biso   1.000  C
  C21      1.0000 0.72620  0.15520  0.73330  Biso   1.000  C
  C22      1.0000 0.22620  0.34480  0.76670  Biso   1.000  C
  C23      1.0000 0.77380  0.65520  0.76670  Biso   1.000  C
  C24      1.0000 0.65520  0.22620  0.76670  Biso   1.000  C
  C25      1.0000 0.27380  0.84480  0.73330  Biso   1.000  C
  C26      1.0000 0.15520  0.27380  0.73330  Biso   1.000  C
  C27      1.0000 0.84480  0.72620  0.73330  Biso   1.000  C
  C28      1.0000 0.34480  0.77380  0.76670  Biso   1.000  C
  C29      1.0000 0.27380  0.84480  0.26670  Biso   1.000  C
  C30      1.0000 0.77380  0.65520  0.23330  Biso   1.000  C
  C31      1.0000 0.22620  0.34480  0.23330  Biso   1.000  C
  C32      1.0000 0.34480  0.77380  0.23330  Biso   1.000  C
  C33      1.0000 0.70930  0.09150  0.32530  Biso   1.000  C
  C34      1.0000 0.90850  0.70930  0.32530  Biso   1.000  C
  C35      1.0000 0.09150  0.29070  0.32530  Biso   1.000  C
  C36      1.0000 0.59150  0.20930  0.17470  Biso   1.000  C
  C37      1.0000 0.70930  0.09150  0.67470  Biso   1.000  C
  C38      1.0000 0.20930  0.40850  0.82530  Biso   1.000  C
  C39      1.0000 0.79070  0.59150  0.82530  Biso   1.000  C
  C40      1.0000 0.59150  0.20930  0.82530  Biso   1.000  C
  C41      1.0000 0.29070  0.90850  0.67470  Biso   1.000  C
  C42      1.0000 0.09150  0.29070  0.67470  Biso   1.000  C
  C43      1.0000 0.90850  0.70930  0.67470  Biso   1.000  C
  C44      1.0000 0.40850  0.79070  0.82530  Biso   1.000  C
  C45      1.0000 0.29070  0.90850  0.32530  Biso   1.000  C
  C46      1.0000 0.79070  0.59150  0.17470  Biso   1.000  C
  C47      1.0000 0.20930  0.40850  0.17470  Biso   1.000  C
  C48      1.0000 0.40850  0.79070  0.17470  Biso   1.000  C
  C49      1.0000 0.88180  0.19080  0.18450  Biso   1.000  C
  C50      1.0000 0.80920  0.88180  0.18450  Biso   1.000  C
  C51      1.0000 0.19080  0.11820  0.18450  Biso   1.000  C
  C52      1.0000 0.69080  0.38180  0.31550  Biso   1.000  C
  C53      1.0000 0.88180  0.19080  0.81550  Biso   1.000  C
  C54      1.0000 0.38180  0.30920  0.68450  Biso   1.000  C
  C55      1.0000 0.61820  0.69080  0.68450  Biso   1.000  C
  C56      1.0000 0.69080  0.38180  0.68450  Biso   1.000  C
  C57      1.0000 0.11820  0.80920  0.81550  Biso   1.000  C
  C58      1.0000 0.19080  0.11820  0.81550  Biso   1.000  C
  C59      1.0000 0.80920  0.88180  0.81550  Biso   1.000  C
  C60      1.0000 0.30920  0.61820  0.68450  Biso   1.000  C
  C61      1.0000 0.11820  0.80920  0.18450  Biso   1.000  C
  C62      1.0000 0.61820  0.69080  0.31550  Biso   1.000  C
  C63      1.0000 0.38180  0.30920  0.31550  Biso   1.000  C
  C64      1.0000 0.30920  0.61820  0.31550  Biso   1.000  C
  H17      1.0000 0.94880  0.16510  0.18260  Biso   1.000  H
  H18      1.0000 0.83490  0.94880  0.18260  Biso   1.000  H
  H19      1.0000 0.16510  0.05120  0.18260  Biso   1.000  H
  H20      1.0000 0.66510  0.44880  0.31740  Biso   1.000  H
  H21      1.0000 0.94880  0.16510  0.81740  Biso   1.000  H
  H22      1.0000 0.44880  0.33490  0.68260  Biso   1.000  H
  H23      1.0000 0.55120  0.66510  0.68260  Biso   1.000  H
  H24      1.0000 0.66510  0.44880  0.68260  Biso   1.000  H
  H25      1.0000 0.05120  0.83490  0.81740  Biso   1.000  H
  H26      1.0000 0.16510  0.05120  0.81740  Biso   1.000  H
  H27      1.0000 0.83490  0.94880  0.81740  Biso   1.000  H
  H28      1.0000 0.33490  0.55120  0.68260  Biso   1.000  H
  H29      1.0000 0.05120  0.83490  0.18260  Biso   1.000  H
  H30      1.0000 0.55120  0.66510  0.31740  Biso   1.000  H
  H31      1.0000 0.44880  0.33490  0.31740  Biso   1.000  H
  H32      1.0000 0.33490  0.55120  0.31740  Biso   1.000  H
  H33      1.0000 0.84860  0.17720  0.13850  Biso   1.000  H
  H34      1.0000 0.82280  0.84860  0.13850  Biso   1.000  H
  H35      1.0000 0.17720  0.15140  0.13850  Biso   1.000  H
  H36      1.0000 0.67720  0.34860  0.36150  Biso   1.000  H
  H37      1.0000 0.84860  0.17720  0.86150  Biso   1.000  H
  H38      1.0000 0.34860  0.32280  0.63850  Biso   1.000  H
  H39      1.0000 0.65140  0.67720  0.63850  Biso   1.000  H
  H40      1.0000 0.67720  0.34860  0.63850  Biso   1.000  H
  H41      1.0000 0.15140  0.82280  0.86150  Biso   1.000  H
  H42      1.0000 0.17720  0.15140  0.86150  Biso   1.000  H
  H43      1.0000 0.82280  0.84860  0.86150  Biso   1.000  H
  H44      1.0000 0.32280  0.65140  0.63850  Biso   1.000  H
  H45      1.0000 0.15140  0.82280  0.13850  Biso   1.000  H
  H46      1.0000 0.65140  0.67720  0.36150  Biso   1.000  H
  H47      1.0000 0.34860  0.32280  0.36150  Biso   1.000  H
  H48      1.0000 0.32280  0.65140  0.36150  Biso   1.000  H
  H49      1.0000 0.88380  0.26160  0.19270  Biso   1.000  H
  H50      1.0000 0.73840  0.88380  0.19270  Biso   1.000  H
  H51      1.0000 0.26160  0.11620  0.19270  Biso   1.000  H
  H52      1.0000 0.76160  0.38380  0.30730  Biso   1.000  H
  H53      1.0000 0.88380  0.26160  0.80730  Biso   1.000  H
  H54      1.0000 0.38380  0.23840  0.69270  Biso   1.000  H
  H55      1.0000 0.61620  0.76160  0.69270  Biso   1.000  H
  H56      1.0000 0.76160  0.38380  0.69270  Biso   1.000  H
  H57      1.0000 0.11620  0.73840  0.80730  Biso   1.000  H
  H58      1.0000 0.26160  0.11620  0.80730  Biso   1.000  H
  H59      1.0000 0.73840  0.88380  0.80730  Biso   1.000  H
  H60      1.0000 0.23840  0.61620  0.69270  Biso   1.000  H
  H61      1.0000 0.11620  0.73840  0.19270  Biso   1.000  H
  H62      1.0000 0.61620  0.76160  0.30730  Biso   1.000  H
  H63      1.0000 0.38380  0.23840  0.30730  Biso   1.000  H
  H64      1.0000 0.23840  0.61620  0.30730  Biso   1.000  H
  C65      1.0000 0.62050  0.07800  0.37440  Biso   1.000  C
  C66      1.0000 0.92200  0.62050  0.37440  Biso   1.000  C
  C67      1.0000 0.07800  0.37950  0.37440  Biso   1.000  C
  C68      1.0000 0.57800  0.12050  0.12560  Biso   1.000  C
  C69      1.0000 0.62050  0.07800  0.62560  Biso   1.000  C
  C70      1.0000 0.12050  0.42200  0.87440  Biso   1.000  C
  C71      1.0000 0.87950  0.57800  0.87440  Biso   1.000  C
  C72      1.0000 0.57800  0.12050  0.87440  Biso   1.000  C
  C73      1.0000 0.37950  0.92200  0.62560  Biso   1.000  C
  C74      1.0000 0.07800  0.37950  0.62560  Biso   1.000  C
  C75      1.0000 0.92200  0.62050  0.62560  Biso   1.000  C
  C76      1.0000 0.42200  0.87950  0.87440  Biso   1.000  C
  C77      1.0000 0.37950  0.92200  0.37440  Biso   1.000  C
  C78      1.0000 0.87950  0.57800  0.12560  Biso   1.000  C
  C79      1.0000 0.12050  0.42200  0.12560  Biso   1.000  C
  C80      1.0000 0.42200  0.87950  0.12560  Biso   1.000  C
  H65      1.0000 0.63340  0.02650  0.41010  Biso   1.000  H
  H66      1.0000 0.97350  0.63340  0.41010  Biso   1.000  H
  H67      1.0000 0.02650  0.36660  0.41010  Biso   1.000  H
  H68      1.0000 0.52650  0.13340  0.08990  Biso   1.000  H
  H69      1.0000 0.63340  0.02650  0.58990  Biso   1.000  H
  H70      1.0000 0.13340  0.47350  0.91010  Biso   1.000  H
  H71      1.0000 0.86660  0.52650  0.91010  Biso   1.000  H
  H72      1.0000 0.52650  0.13340  0.91010  Biso   1.000  H
  H73      1.0000 0.36660  0.97350  0.58990  Biso   1.000  H
  H74      1.0000 0.02650  0.36660  0.58990  Biso   1.000  H
  H75      1.0000 0.97350  0.63340  0.58990  Biso   1.000  H
  H76      1.0000 0.47350  0.86660  0.91010  Biso   1.000  H
  H77      1.0000 0.36660  0.97350  0.41010  Biso   1.000  H
  H78      1.0000 0.86660  0.52650  0.08990  Biso   1.000  H
  H79      1.0000 0.13340  0.47350  0.08990  Biso   1.000  H
  H80      1.0000 0.47350  0.86660  0.08990  Biso   1.000  H
  H81      1.0000 0.60670  0.13970  0.39950  Biso   1.000  H
  H82      1.0000 0.86030  0.60670  0.39950  Biso   1.000  H
  H83      1.0000 0.13970  0.39330  0.39950  Biso   1.000  H
  H84      1.0000 0.63970  0.10670  0.10050  Biso   1.000  H
  H85      1.0000 0.60670  0.13970  0.60050  Biso   1.000  H
  H86      1.0000 0.10670  0.36030  0.89950  Biso   1.000  H
  H87      1.0000 0.89330  0.63970  0.89950  Biso   1.000  H
  H88      1.0000 0.63970  0.10670  0.89950  Biso   1.000  H
  H89      1.0000 0.39330  0.86030  0.60050  Biso   1.000  H
  H90      1.0000 0.13970  0.39330  0.60050  Biso   1.000  H
  H91      1.0000 0.86030  0.60670  0.60050  Biso   1.000  H
  H92      1.0000 0.36030  0.89330  0.89950  Biso   1.000  H
  H93      1.0000 0.39330  0.86030  0.39950  Biso   1.000  H
  H94      1.0000 0.89330  0.63970  0.10050  Biso   1.000  H
  H95      1.0000 0.10670  0.36030  0.10050  Biso   1.000  H
  H96      1.0000 0.36030  0.89330  0.10050  Biso   1.000  H
  H97      1.0000 0.56400  0.05960  0.34470  Biso   1.000  H
  H98      1.0000 0.94040  0.56400  0.34470  Biso   1.000  H
  H99      1.0000 0.05960  0.43600  0.34470  Biso   1.000  H
  H100     1.0000 0.55960  0.06400  0.15530  Biso   1.000  H
  H101     1.0000 0.56400  0.05960  0.65530  Biso   1.000  H
  H102     1.0000 0.06400  0.44040  0.84470  Biso   1.000  H
  H103     1.0000 0.93600  0.55960  0.84470  Biso   1.000  H
  H104     1.0000 0.55960  0.06400  0.84470  Biso   1.000  H
  H105     1.0000 0.43600  0.94040  0.65530  Biso   1.000  H
  H106     1.0000 0.05960  0.43600  0.65530  Biso   1.000  H
  H107     1.0000 0.94040  0.56400  0.65530  Biso   1.000  H
  H108     1.0000 0.44040  0.93600  0.84470  Biso   1.000  H
  H109     1.0000 0.43600  0.94040  0.34470  Biso   1.000  H
  H110     1.0000 0.93600  0.55960  0.15530  Biso   1.000  H
  H111     1.0000 0.06400  0.44040  0.15530  Biso   1.000  H
  H112     1.0000 0.44040  0.93600  0.15530  Biso   1.000  H
  O1       1.0000 0.00000  0.00000  0.41560  Biso   1.000  O
  O2       1.0000 0.50000  0.50000  0.08440  Biso   1.000  O
  O3       1.0000 0.00000  0.00000  0.58440  Biso   1.000  O
  O4       1.0000 0.50000  0.50000  0.91560  Biso   1.000  O
  B1       1.0000 0.84190  0.21690  0.50000  Biso   1.000  B
  B2       1.0000 0.78310  0.84190  0.50000  Biso   1.000  B
  B3       1.0000 0.21690  0.15810  0.50000  Biso   1.000  B
  B4       1.0000 0.71690  0.34190  0.00000  Biso   1.000  B
  B5       1.0000 0.34190  0.28310  0.00000  Biso   1.000  B
  B6       1.0000 0.65810  0.71690  0.00000  Biso   1.000  B
  B7       1.0000 0.15810  0.78310  0.50000  Biso   1.000  B
  B8       1.0000 0.28310  0.65810  0.00000  Biso   1.000  B
  F1       1.0000 0.74170  0.24270  0.50000  Biso   1.000  F
  F2       1.0000 0.75730  0.74170  0.50000  Biso   1.000  F
  F3       1.0000 0.24270  0.25830  0.50000  Biso   1.000  F
  F4       1.0000 0.74270  0.24170  0.00000  Biso   1.000  F
  F5       1.0000 0.24170  0.25730  0.00000  Biso   1.000  F
  F6       1.0000 0.75830  0.74270  0.00000  Biso   1.000  F
  F7       1.0000 0.25830  0.75730  0.50000  Biso   1.000  F
  F8       1.0000 0.25730  0.75830  0.00000  Biso   1.000  F
  F9       1.0000 0.88140  0.24480  0.56260  Biso   1.000  F
  F10      1.0000 0.75520  0.88140  0.56260  Biso   1.000  F
  F11      1.0000 0.24480  0.11860  0.56260  Biso   1.000  F
  F12      1.0000 0.74480  0.38140  0.93740  Biso   1.000  F
  F13      1.0000 0.88140  0.24480  0.43740  Biso   1.000  F
  F14      1.0000 0.38140  0.25520  0.06260  Biso   1.000  F
  F15      1.0000 0.61860  0.74480  0.06260  Biso   1.000  F
  F16      1.0000 0.74480  0.38140  0.06260  Biso   1.000  F
  F17      1.0000 0.11860  0.75520  0.43740  Biso   1.000  F
  F18      1.0000 0.24480  0.11860  0.43740  Biso   1.000  F
  F19      1.0000 0.75520  0.88140  0.43740  Biso   1.000  F
  F20      1.0000 0.25520  0.61860  0.06260  Biso   1.000  F
  F21      1.0000 0.11860  0.75520  0.56260  Biso   1.000  F
  F22      1.0000 0.61860  0.74480  0.93740  Biso   1.000  F
  F23      1.0000 0.38140  0.25520  0.93740  Biso   1.000  F
  F24      1.0000 0.25520  0.61860  0.93740  Biso   1.000  F
  F25      1.0000 0.83800  0.11050  0.50000  Biso   1.000  F
  F26      1.0000 0.88950  0.83800  0.50000  Biso   1.000  F
  F27      1.0000 0.11050  0.16200  0.50000  Biso   1.000  F
  F28      1.0000 0.61050  0.33800  0.00000  Biso   1.000  F
  F29      1.0000 0.33800  0.38950  0.00000  Biso   1.000  F
  F30      1.0000 0.66200  0.61050  0.00000  Biso   1.000  F
  F31      1.0000 0.16200  0.88950  0.50000  Biso   1.000  F
  F32      1.0000 0.38950  0.66200  0.00000  Biso   1.000  F
  F33      1.0000 0.74420  0.19400  0.50000  Biso   1.000  F
  F34      1.0000 0.80600  0.74420  0.50000  Biso   1.000  F
  F35      1.0000 0.19400  0.25580  0.50000  Biso   1.000  F
  F36      1.0000 0.69400  0.24420  0.00000  Biso   1.000  F
  F37      1.0000 0.24420  0.30600  0.00000  Biso   1.000  F
  F38      1.0000 0.75580  0.69400  0.00000  Biso   1.000  F
  F39      1.0000 0.25580  0.80600  0.50000  Biso   1.000  F
  F40      1.0000 0.30600  0.75580  0.00000  Biso   1.000  F
  F41      1.0000 0.88870  0.18560  0.56100  Biso   1.000  F
  F42      1.0000 0.81440  0.88870  0.56100  Biso   1.000  F
  F43      1.0000 0.18560  0.11130  0.56100  Biso   1.000  F
  F44      1.0000 0.68560  0.38870  0.93900  Biso   1.000  F
  F45      1.0000 0.88870  0.18560  0.43900  Biso   1.000  F
  F46      1.0000 0.38870  0.31440  0.06100  Biso   1.000  F
  F47      1.0000 0.61130  0.68560  0.06100  Biso   1.000  F
  F48      1.0000 0.68560  0.38870  0.06100  Biso   1.000  F
  F49      1.0000 0.11130  0.81440  0.43900  Biso   1.000  F
  F50      1.0000 0.18560  0.11130  0.43900  Biso   1.000  F
  F51      1.0000 0.81440  0.88870  0.43900  Biso   1.000  F
  F52      1.0000 0.31440  0.61130  0.06100  Biso   1.000  F
  F53      1.0000 0.11130  0.81440  0.56100  Biso   1.000  F
  F54      1.0000 0.61130  0.68560  0.93900  Biso   1.000  F
  F55      1.0000 0.38870  0.31440  0.93900  Biso   1.000  F
  F56      1.0000 0.31440  0.61130  0.93900  Biso   1.000  F
  F57      1.0000 0.84950  0.32190  0.50000  Biso   1.000  F
  F58      1.0000 0.67810  0.84950  0.50000  Biso   1.000  F
  F59      1.0000 0.32190  0.15050  0.50000  Biso   1.000  F
  F60      1.0000 0.82190  0.34950  0.00000  Biso   1.000  F
  F61      1.0000 0.34950  0.17810  0.00000  Biso   1.000  F
  F62      1.0000 0.65050  0.82190  0.00000  Biso   1.000  F
  F63      1.0000 0.15050  0.67810  0.50000  Biso   1.000  F
  F64      1.0000 0.17810  0.65050  0.00000  Biso   1.000  F
  Br1      1.0000 0.50600  0.27390  0.50000  Biso   1.000  Br
  Br2      1.0000 0.72610  0.50600  0.50000  Biso   1.000  Br
  Br3      1.0000 0.27390  0.49400  0.50000  Biso   1.000  Br
  Br4      1.0000 0.77390  0.00600  0.00000  Biso   1.000  Br
  Br5      1.0000 0.00600  0.22610  0.00000  Biso   1.000  Br
  Br6      1.0000 0.99400  0.77390  0.00000  Biso   1.000  Br
  Br7      1.0000 0.49400  0.72610  0.50000  Biso   1.000  Br
  Br8      1.0000 0.22610  0.99400  0.00000  Biso   1.000  Br
  C81      1.0000 0.50170  0.39700  0.50000  Biso   1.000  C
  C82      1.0000 0.60300  0.50170  0.50000  Biso   1.000  C
  C83      1.0000 0.39700  0.49830  0.50000  Biso   1.000  C
  C84      1.0000 0.89700  0.00170  0.00000  Biso   1.000  C
  C85      1.0000 0.00170  0.10300  0.00000  Biso   1.000  C
  C86      1.0000 0.99830  0.89700  0.00000  Biso   1.000  C
  C87      1.0000 0.49830  0.60300  0.50000  Biso   1.000  C
  C88      1.0000 0.10300  0.99830  0.00000  Biso   1.000  C
  C89      1.0000 0.59040  0.45030  0.50000  Biso   1.000  C
  C90      1.0000 0.54970  0.59040  0.50000  Biso   1.000  C
  C91      1.0000 0.45030  0.40960  0.50000  Biso   1.000  C
  C92      1.0000 0.95030  0.09040  0.00000  Biso   1.000  C
  C93      1.0000 0.09040  0.04970  0.00000  Biso   1.000  C
  C94      1.0000 0.90960  0.95030  0.00000  Biso   1.000  C
  C95      1.0000 0.40960  0.54970  0.50000  Biso   1.000  C
  C96      1.0000 0.04970  0.90960  0.00000  Biso   1.000  C
  H113     1.0000 0.65100  0.41190  0.50000  Biso   1.000  H
  H114     1.0000 0.58810  0.65100  0.50000  Biso   1.000  H
  H115     1.0000 0.41190  0.34900  0.50000  Biso   1.000  H
  H116     1.0000 0.91190  0.15100  0.00000  Biso   1.000  H
  H117     1.0000 0.15100  0.08810  0.00000  Biso   1.000  H
  H118     1.0000 0.84900  0.91190  0.00000  Biso   1.000  H
  H119     1.0000 0.34900  0.58810  0.50000  Biso   1.000  H
  H120     1.0000 0.08810  0.84900  0.00000  Biso   1.000  H
  C97      1.0000 0.55280  0.41140  0.50000  Biso   1.000  C
  C98      1.0000 0.58860  0.55280  0.50000  Biso   1.000  C
  C99      1.0000 0.41140  0.44720  0.50000  Biso   1.000  C
  C100     1.0000 0.91140  0.05280  0.00000  Biso   1.000  C
  C101     1.0000 0.05280  0.08860  0.00000  Biso   1.000  C
  C102     1.0000 0.94720  0.91140  0.00000  Biso   1.000  C
  C103     1.0000 0.44720  0.58860  0.50000  Biso   1.000  C
  C104     1.0000 0.08860  0.94720  0.00000  Biso   1.000  C
  H121     1.0000 0.35770  0.39950  0.50000  Biso   1.000  H
  H122     1.0000 0.60050  0.35770  0.50000  Biso   1.000  H
  H123     1.0000 0.39950  0.64230  0.50000  Biso   1.000  H
  H124     1.0000 0.89950  0.85770  0.00000  Biso   1.000  H
  H125     1.0000 0.85770  0.10050  0.00000  Biso   1.000  H
  H126     1.0000 0.14230  0.89950  0.00000  Biso   1.000  H
  H127     1.0000 0.64230  0.60050  0.50000  Biso   1.000  H
  H128     1.0000 0.10050  0.14230  0.00000  Biso   1.000  H
  H129     1.0000 0.98160  0.02510  0.44370  Biso   1.000  H
  H130     1.0000 0.97490  0.98160  0.44370  Biso   1.000  H
  H131     1.0000 0.02510  0.01840  0.44370  Biso   1.000  H
  H132     1.0000 0.52510  0.48160  0.05630  Biso   1.000  H
  H133     1.0000 0.98160  0.02510  0.55630  Biso   1.000  H
  H134     1.0000 0.48160  0.47490  0.94370  Biso   1.000  H
  H135     1.0000 0.51840  0.52510  0.94370  Biso   1.000  H
  H136     1.0000 0.52510  0.48160  0.94370  Biso   1.000  H
  H137     1.0000 0.01840  0.97490  0.55630  Biso   1.000  H
  H138     1.0000 0.02510  0.01840  0.55630  Biso   1.000  H
  H139     1.0000 0.97490  0.98160  0.55630  Biso   1.000  H
  H140     1.0000 0.47490  0.51840  0.94370  Biso   1.000  H
  H141     1.0000 0.01840  0.97490  0.44370  Biso   1.000  H
  H142     1.0000 0.51840  0.52510  0.05630  Biso   1.000  H
  H143     1.0000 0.48160  0.47490  0.05630  Biso   1.000  H
  H144     1.0000 0.47490  0.51840  0.05630  Biso   1.000  H
