data_image0
_cell_length_a       7.67
_cell_length_b       10.67
_cell_length_c       15.949
_cell_angle_alpha    90
_cell_angle_beta     95.443
_cell_angle_gamma    90

_symmetry_space_group_name_H-M    "P 1"
_symmetry_int_tables_number       1

loop_
  _symmetry_equiv_pos_as_xyz
  'x, y, z'

loop_
  _atom_site_label
  _atom_site_occupancy
  _atom_site_fract_x
  _atom_site_fract_y
  _atom_site_fract_z
  _atom_site_thermal_displace_type
  _atom_site_B_iso_or_equiv
  _atom_site_type_symbol
  Cu1      1.0000 0.00000  0.50000  0.00000  Biso   1.000  Cu
  Cu2      1.0000 0.50000  0.00000  0.50000  Biso   1.000  Cu
  O1       1.0000 0.03690  0.53439  0.12068  Biso   1.000  O
  O2       1.0000 0.53690  0.96561  0.62068  Biso   1.000  O
  O3       1.0000 0.96310  0.46561  0.87932  Biso   1.000  O
  O4       1.0000 0.46310  0.03439  0.37932  Biso   1.000  O
  O5       1.0000 0.02581  0.67667  0.97247  Biso   1.000  O
  O6       1.0000 0.52581  0.82333  0.47247  Biso   1.000  O
  O7       1.0000 0.97419  0.32333  0.02753  Biso   1.000  O
  O8       1.0000 0.47419  0.17667  0.52753  Biso   1.000  O
  N1       1.0000 0.31610  0.18710  0.84016  Biso   1.000  N
  N2       1.0000 0.81610  0.31290  0.34016  Biso   1.000  N
  N3       1.0000 0.68390  0.81290  0.15984  Biso   1.000  N
  N4       1.0000 0.18390  0.68710  0.65984  Biso   1.000  N
  O9       1.0000 0.40680  0.26500  0.87671  Biso   1.000  O
  O10      1.0000 0.90680  0.23500  0.37671  Biso   1.000  O
  O11      1.0000 0.59320  0.73500  0.12329  Biso   1.000  O
  O12      1.0000 0.09320  0.76500  0.62329  Biso   1.000  O
  O13      1.0000 0.26590  0.19330  0.76616  Biso   1.000  O
  O14      1.0000 0.76590  0.30670  0.26616  Biso   1.000  O
  O15      1.0000 0.73410  0.80670  0.23384  Biso   1.000  O
  O16      1.0000 0.23410  0.69330  0.73384  Biso   1.000  O
  C1       1.0000 0.16050  0.62820  0.24403  Biso   1.000  C
  C2       1.0000 0.66050  0.87180  0.74403  Biso   1.000  C
  C3       1.0000 0.83950  0.37180  0.75597  Biso   1.000  C
  C4       1.0000 0.33950  0.12820  0.25597  Biso   1.000  C
  C5       1.0000 0.10640  0.63520  0.14911  Biso   1.000  C
  C6       1.0000 0.60640  0.86480  0.64911  Biso   1.000  C
  C7       1.0000 0.89360  0.36480  0.85089  Biso   1.000  C
  C8       1.0000 0.39360  0.13520  0.35089  Biso   1.000  C
  C9       1.0000 0.14430  0.74240  0.10709  Biso   1.000  C
  C10      1.0000 0.64430  0.75760  0.60709  Biso   1.000  C
  C11      1.0000 0.85570  0.25760  0.89291  Biso   1.000  C
  C12      1.0000 0.35570  0.24240  0.39291  Biso   1.000  C
  H1       1.0000 0.19830  0.80820  0.13780  Biso   1.000  H
  H2       1.0000 0.69830  0.69180  0.63780  Biso   1.000  H
  H3       1.0000 0.80170  0.19180  0.86220  Biso   1.000  H
  H4       1.0000 0.30170  0.30820  0.36220  Biso   1.000  H
  C13      1.0000 0.10540  0.75775  0.01951  Biso   1.000  C
  C14      1.0000 0.60540  0.74225  0.51951  Biso   1.000  C
  C15      1.0000 0.89460  0.24225  0.98049  Biso   1.000  C
  C16      1.0000 0.39460  0.25775  0.48049  Biso   1.000  C
  C17      1.0000 0.16000  0.87321  0.97601  Biso   1.000  C
  C18      1.0000 0.66000  0.62679  0.47601  Biso   1.000  C
  C19      1.0000 0.84000  0.12679  0.02399  Biso   1.000  C
  C20      1.0000 0.34000  0.37321  0.52399  Biso   1.000  C
  C21      1.0000 0.13270  0.87630  0.88856  Biso   1.000  C
  C22      1.0000 0.63270  0.62370  0.38856  Biso   1.000  C
  C23      1.0000 0.86730  0.12370  0.11144  Biso   1.000  C
  C24      1.0000 0.36730  0.37630  0.61144  Biso   1.000  C
  H5       1.0000 0.08020  0.80830  0.85980  Biso   1.000  H
  H6       1.0000 0.58020  0.69170  0.35980  Biso   1.000  H
  H7       1.0000 0.91980  0.19170  0.14020  Biso   1.000  H
  H8       1.0000 0.41980  0.30830  0.64020  Biso   1.000  H
  C25      1.0000 0.18230  0.97910  0.84390  Biso   1.000  C
  C26      1.0000 0.68230  0.52090  0.34390  Biso   1.000  C
  C27      1.0000 0.81770  0.02090  0.15610  Biso   1.000  C
  C28      1.0000 0.31770  0.47910  0.65610  Biso   1.000  C
  H9       1.0000 0.16290  0.98130  0.78550  Biso   1.000  H
  H10      1.0000 0.66290  0.51870  0.28550  Biso   1.000  H
  H11      1.0000 0.83710  0.01870  0.21450  Biso   1.000  H
  H12      1.0000 0.33710  0.48130  0.71450  Biso   1.000  H
  C29      1.0000 0.26080  0.07791  0.88771  Biso   1.000  C
  C30      1.0000 0.76080  0.42209  0.38771  Biso   1.000  C
  C31      1.0000 0.73920  0.92209  0.11229  Biso   1.000  C
  C32      1.0000 0.23920  0.57791  0.61229  Biso   1.000  C
  C33      1.0000 0.29010  0.07830  0.97401  Biso   1.000  C
  C34      1.0000 0.79010  0.42170  0.47401  Biso   1.000  C
  C35      1.0000 0.70990  0.92170  0.02599  Biso   1.000  C
  C36      1.0000 0.20990  0.57830  0.52599  Biso   1.000  C
  H13      1.0000 0.34330  0.14660  0.00220  Biso   1.000  H
  H14      1.0000 0.84330  0.35340  0.50220  Biso   1.000  H
  H15      1.0000 0.65670  0.85340  0.99780  Biso   1.000  H
  H16      1.0000 0.15670  0.64660  0.49780  Biso   1.000  H
  C37      1.0000 0.23930  0.97560  0.01796  Biso   1.000  C
  C38      1.0000 0.73930  0.52440  0.51796  Biso   1.000  C
  C39      1.0000 0.76070  0.02440  0.98204  Biso   1.000  C
  C40      1.0000 0.26070  0.47560  0.48204  Biso   1.000  C
  H17      1.0000 0.25820  0.97470  0.07640  Biso   1.000  H
  H18      1.0000 0.75820  0.52530  0.57640  Biso   1.000  H
  H19      1.0000 0.74180  0.02530  0.92360  Biso   1.000  H
  H20      1.0000 0.24180  0.47470  0.42360  Biso   1.000  H
  N5       1.0000 0.31840  0.49225  0.99908  Biso   1.000  N
  N6       1.0000 0.81840  0.00775  0.49908  Biso   1.000  N
  N7       1.0000 0.68160  0.50775  0.00092  Biso   1.000  N
  N8       1.0000 0.18160  0.99225  0.50092  Biso   1.000  N
  C41      1.0000 0.39570  0.54930  0.93801  Biso   1.000  C
  C42      1.0000 0.89570  0.95070  0.43801  Biso   1.000  C
  C43      1.0000 0.60430  0.45070  0.06199  Biso   1.000  C
  C44      1.0000 0.10430  0.04930  0.56199  Biso   1.000  C
  H21      1.0000 0.32650  0.58500  0.89330  Biso   1.000  H
  H22      1.0000 0.82650  0.91500  0.39330  Biso   1.000  H
  H23      1.0000 0.67350  0.41500  0.10670  Biso   1.000  H
  H24      1.0000 0.17350  0.08500  0.60670  Biso   1.000  H
  C45      1.0000 0.42540  0.44340  0.06064  Biso   1.000  C
  C46      1.0000 0.92540  0.05660  0.56064  Biso   1.000  C
  C47      1.0000 0.57460  0.55660  0.93936  Biso   1.000  C
  C48      1.0000 0.07460  0.94340  0.43936  Biso   1.000  C
  H25      1.0000 0.37740  0.40250  0.10460  Biso   1.000  H
  H26      1.0000 0.87740  0.09750  0.60460  Biso   1.000  H
  H27      1.0000 0.62260  0.59750  0.89540  Biso   1.000  H
  H28      1.0000 0.12260  0.90250  0.39540  Biso   1.000  H
  F1       1.0000 0.03630  0.58700  0.28690  Biso   1.000  F
  F2       1.0000 0.53630  0.91300  0.78690  Biso   1.000  F
  F3       1.0000 0.96370  0.41300  0.71310  Biso   1.000  F
  F4       1.0000 0.46370  0.08700  0.21310  Biso   1.000  F
  F5       1.0000 0.29150  0.54560  0.25980  Biso   1.000  F
  F6       1.0000 0.79150  0.95440  0.75980  Biso   1.000  F
  F7       1.0000 0.70850  0.45440  0.74020  Biso   1.000  F
  F8       1.0000 0.20850  0.04560  0.24020  Biso   1.000  F
  F9       1.0000 0.22080  0.73290  0.27800  Biso   1.000  F
  F10      1.0000 0.72080  0.76710  0.77800  Biso   1.000  F
  F11      1.0000 0.77920  0.26710  0.72200  Biso   1.000  F
  F12      1.0000 0.27920  0.23290  0.22200  Biso   1.000  F
  F13      1.0000 0.20600  0.52710  0.26800  Biso   1.000  F
  F14      1.0000 0.70600  0.97290  0.76800  Biso   1.000  F
  F15      1.0000 0.79400  0.47290  0.73200  Biso   1.000  F
  F16      1.0000 0.29400  0.02710  0.23200  Biso   1.000  F
  F17      1.0000 0.27100  0.71200  0.26920  Biso   1.000  F
  F18      1.0000 0.77100  0.78800  0.76920  Biso   1.000  F
  F19      1.0000 0.72900  0.28800  0.73080  Biso   1.000  F
  F20      1.0000 0.22900  0.21200  0.23080  Biso   1.000  F
  F21      1.0000 0.02500  0.67600  0.28140  Biso   1.000  F
  F22      1.0000 0.52500  0.82400  0.78140  Biso   1.000  F
  F23      1.0000 0.97500  0.32400  0.71860  Biso   1.000  F
  F24      1.0000 0.47500  0.17600  0.21860  Biso   1.000  F
