data_image0
_cell_length_a       8.1982
_cell_length_b       27.328
_cell_length_c       16.4634
_cell_angle_alpha    90
_cell_angle_beta     93.154
_cell_angle_gamma    90

_symmetry_space_group_name_H-M    "P 1"
_symmetry_int_tables_number       1

loop_
  _symmetry_equiv_pos_as_xyz
  'x, y, z'

loop_
  _atom_site_label
  _atom_site_occupancy
  _atom_site_fract_x
  _atom_site_fract_y
  _atom_site_fract_z
  _atom_site_thermal_displace_type
  _atom_site_B_iso_or_equiv
  _atom_site_type_symbol
  Gd1      1.0000 0.23939  0.06273  0.49591  Biso   1.000  Gd
  Gd2      1.0000 0.26061  0.56273  0.00409  Biso   1.000  Gd
  Gd3      1.0000 0.76061  0.93727  0.50409  Biso   1.000  Gd
  Gd4      1.0000 0.73939  0.43726  0.99591  Biso   1.000  Gd
  Cu1      1.0000 0.98182  0.25107  0.24719  Biso   1.000  Cu
  Cu2      1.0000 0.51818  0.75107  0.25281  Biso   1.000  Cu
  Cu3      1.0000 0.01818  0.74893  0.75281  Biso   1.000  Cu
  Cu4      1.0000 0.48182  0.24893  0.74719  Biso   1.000  Cu
  O1       1.0000 0.24770  0.97029  0.49345  Biso   1.000  O
  O2       1.0000 0.25230  0.47029  0.00655  Biso   1.000  O
  O3       1.0000 0.75230  0.02971  0.50655  Biso   1.000  O
  O4       1.0000 0.74770  0.52971  0.99345  Biso   1.000  O
  O5       1.0000 0.28690  0.12353  0.37441  Biso   1.000  O
  O6       1.0000 0.21310  0.62353  0.12559  Biso   1.000  O
  O7       1.0000 0.71310  0.87647  0.62559  Biso   1.000  O
  O8       1.0000 0.78690  0.37647  0.87441  Biso   1.000  O
  N1       1.0000 0.78980  0.21766  0.29960  Biso   1.000  N
  N2       1.0000 0.71020  0.71766  0.20040  Biso   1.000  N
  N3       1.0000 0.21020  0.78234  0.70040  Biso   1.000  N
  N4       1.0000 0.28980  0.28234  0.79960  Biso   1.000  N
  C1       1.0000 0.71190  0.17964  0.26210  Biso   1.000  C
  C2       1.0000 0.78810  0.67964  0.23790  Biso   1.000  C
  C3       1.0000 0.28810  0.82036  0.73790  Biso   1.000  C
  C4       1.0000 0.21190  0.32036  0.76210  Biso   1.000  C
  H1       1.0000 0.74590  0.16940  0.21180  Biso   1.000  H
  H2       1.0000 0.75410  0.66940  0.28820  Biso   1.000  H
  H3       1.0000 0.25410  0.83060  0.78820  Biso   1.000  H
  H4       1.0000 0.24590  0.33060  0.71180  Biso   1.000  H
  Cu5      1.0000 0.71204  0.00727  0.99630  Biso   1.000  Cu
  Cu6      1.0000 0.78796  0.50727  0.50370  Biso   1.000  Cu
  Cu7      1.0000 0.28796  0.99273  0.00370  Biso   1.000  Cu
  Cu8      1.0000 0.21204  0.49273  0.49630  Biso   1.000  Cu
  O9       1.0000 0.44160  0.12805  0.48735  Biso   1.000  O
  O10      1.0000 0.05840  0.62805  0.01265  Biso   1.000  O
  O11      1.0000 0.55840  0.87195  0.51265  Biso   1.000  O
  O12      1.0000 0.94160  0.37195  0.98735  Biso   1.000  O
  O13      1.0000 0.84590  0.33288  0.25720  Biso   1.000  O
  O14      1.0000 0.65410  0.83288  0.24280  Biso   1.000  O
  O15      1.0000 0.15410  0.66712  0.74280  Biso   1.000  O
  O16      1.0000 0.34590  0.16712  0.75720  Biso   1.000  O
  N5       1.0000 0.59870  0.23661  0.85940  Biso   1.000  N
  N6       1.0000 0.90130  0.73661  0.64060  Biso   1.000  N
  N7       1.0000 0.40130  0.76339  0.14060  Biso   1.000  N
  N8       1.0000 0.09870  0.26339  0.35940  Biso   1.000  N
  C5       1.0000 0.58410  0.15532  0.29520  Biso   1.000  C
  C6       1.0000 0.91590  0.65532  0.20480  Biso   1.000  C
  C7       1.0000 0.41590  0.84468  0.70480  Biso   1.000  C
  C8       1.0000 0.08410  0.34468  0.79520  Biso   1.000  C
  H5       1.0000 0.52830  0.13080  0.26600  Biso   1.000  H
  H6       1.0000 0.97170  0.63080  0.23400  Biso   1.000  H
  H7       1.0000 0.47170  0.86920  0.73400  Biso   1.000  H
  H8       1.0000 0.02830  0.36920  0.76600  Biso   1.000  H
  O17      1.0000 0.12340  0.17354  0.24240  Biso   1.000  O
  O18      1.0000 0.37660  0.67354  0.25760  Biso   1.000  O
  O19      1.0000 0.87660  0.82646  0.75760  Biso   1.000  O
  O20      1.0000 0.62340  0.32646  0.74240  Biso   1.000  O
  O21      1.0000 0.95940  0.17475  0.09240  Biso   1.000  O
  O22      1.0000 0.54060  0.67475  0.40760  Biso   1.000  O
  O23      1.0000 0.04060  0.82525  0.90760  Biso   1.000  O
  O24      1.0000 0.45940  0.32525  0.59240  Biso   1.000  O
  N9       1.0000 0.78110  0.00982  0.11590  Biso   1.000  N
  N10      1.0000 0.71890  0.50982  0.38410  Biso   1.000  N
  N11      1.0000 0.21890  0.99018  0.88410  Biso   1.000  N
  N12      1.0000 0.28110  0.49018  0.61590  Biso   1.000  N
  C9       1.0000 0.54020  0.16765  0.37160  Biso   1.000  C
  C10      1.0000 0.95980  0.66765  0.12840  Biso   1.000  C
  C11      1.0000 0.45980  0.83235  0.62840  Biso   1.000  C
  C12      1.0000 0.04020  0.33235  0.87160  Biso   1.000  C
  O25      1.0000 0.86380  0.24505  0.13906  Biso   1.000  O
  O26      1.0000 0.63620  0.74505  0.36094  Biso   1.000  O
  O27      1.0000 0.13620  0.75495  0.86094  Biso   1.000  O
  O28      1.0000 0.36380  0.25495  0.63906  Biso   1.000  O
  N13      1.0000 0.32480  0.99057  0.12620  Biso   1.000  N
  N14      1.0000 0.17520  0.49057  0.37380  Biso   1.000  N
  N15      1.0000 0.67520  0.00943  0.87380  Biso   1.000  N
  N16      1.0000 0.82480  0.50943  0.62620  Biso   1.000  N
  C13      1.0000 0.61900  0.20649  0.41080  Biso   1.000  C
  C14      1.0000 0.88100  0.70649  0.08920  Biso   1.000  C
  C15      1.0000 0.38100  0.79351  0.58920  Biso   1.000  C
  C16      1.0000 0.11900  0.29351  0.91080  Biso   1.000  C
  H9       1.0000 0.59110  0.21610  0.46240  Biso   1.000  H
  H10      1.0000 0.90890  0.71610  0.03760  Biso   1.000  H
  H11      1.0000 0.40890  0.78390  0.53760  Biso   1.000  H
  H12      1.0000 0.09110  0.28390  0.96240  Biso   1.000  H
  O29      1.0000 0.05690  0.04008  0.38886  Biso   1.000  O
  O30      1.0000 0.44310  0.54008  0.11114  Biso   1.000  O
  O31      1.0000 0.94310  0.95992  0.61114  Biso   1.000  O
  O32      1.0000 0.55690  0.45992  0.88886  Biso   1.000  O
  N17      1.0000 0.66840  0.21524  0.69120  Biso   1.000  N
  N18      1.0000 0.83160  0.71524  0.80880  Biso   1.000  N
  N19      1.0000 0.33160  0.78476  0.30880  Biso   1.000  N
  N20      1.0000 0.16840  0.28476  0.19120  Biso   1.000  N
  C17      1.0000 0.73920  0.23062  0.37180  Biso   1.000  C
  C18      1.0000 0.76080  0.73062  0.12820  Biso   1.000  C
  C19      1.0000 0.26080  0.76938  0.62820  Biso   1.000  C
  C20      1.0000 0.23920  0.26938  0.87180  Biso   1.000  C
  H13      1.0000 0.78800  0.25760  0.39750  Biso   1.000  H
  H14      1.0000 0.71200  0.75760  0.10250  Biso   1.000  H
  H15      1.0000 0.21200  0.74240  0.60250  Biso   1.000  H
  H16      1.0000 0.28800  0.24240  0.89750  Biso   1.000  H
  O33      1.0000 0.93250  0.96875  0.40614  Biso   1.000  O
  O34      1.0000 0.56750  0.46875  0.09386  Biso   1.000  O
  O35      1.0000 0.06750  0.03125  0.59386  Biso   1.000  O
  O36      1.0000 0.43250  0.53125  0.90614  Biso   1.000  O
  N21      1.0000 0.91650  0.07550  0.95060  Biso   1.000  N
  N22      1.0000 0.58350  0.57550  0.54940  Biso   1.000  N
  N23      1.0000 0.08350  0.92450  0.04940  Biso   1.000  N
  N24      1.0000 0.41650  0.42450  0.45060  Biso   1.000  N
  C21      1.0000 0.41320  0.13812  0.41350  Biso   1.000  C
  C22      1.0000 0.08680  0.63812  0.08650  Biso   1.000  C
  C23      1.0000 0.58680  0.86188  0.58650  Biso   1.000  C
  C24      1.0000 0.91320  0.36188  0.91350  Biso   1.000  C
  O37      1.0000 0.45650  0.03161  0.41637  Biso   1.000  O
  O38      1.0000 0.04350  0.53161  0.08363  Biso   1.000  O
  O39      1.0000 0.54350  0.96839  0.58363  Biso   1.000  O
  O40      1.0000 0.95650  0.46839  0.91637  Biso   1.000  O
  N25      1.0000 0.03710  0.06287  0.98330  Biso   1.000  N
  N26      1.0000 0.46290  0.56287  0.51670  Biso   1.000  N
  N27      1.0000 0.96290  0.93713  0.01670  Biso   1.000  N
  N28      1.0000 0.53710  0.43713  0.48330  Biso   1.000  N
  C25      1.0000 0.62520  0.27320  0.91330  Biso   1.000  C
  C26      1.0000 0.87480  0.77320  0.58670  Biso   1.000  C
  C27      1.0000 0.37480  0.72680  0.08670  Biso   1.000  C
  C28      1.0000 0.12520  0.22680  0.41330  Biso   1.000  C
  H17      1.0000 0.58350  0.30410  0.90080  Biso   1.000  H
  H18      1.0000 0.91650  0.80410  0.59920  Biso   1.000  H
  H19      1.0000 0.41650  0.69590  0.09920  Biso   1.000  H
  H20      1.0000 0.08350  0.19590  0.40080  Biso   1.000  H
  O41      1.0000 0.56600  0.95740  0.40099  Biso   1.000  O
  O42      1.0000 0.93400  0.45740  0.09901  Biso   1.000  O
  O43      1.0000 0.43400  0.04260  0.59901  Biso   1.000  O
  O44      1.0000 0.06600  0.54260  0.90099  Biso   1.000  O
  N29      1.0000 0.15440  0.05120  0.01730  Biso   1.000  N
  N30      1.0000 0.34560  0.55120  0.48270  Biso   1.000  N
  N31      1.0000 0.84560  0.94880  0.98270  Biso   1.000  N
  N32      1.0000 0.65440  0.44880  0.51730  Biso   1.000  N
  C29      1.0000 0.71230  0.26628  0.98670  Biso   1.000  C
  C30      1.0000 0.78770  0.76628  0.51330  Biso   1.000  C
  C31      1.0000 0.28770  0.73372  0.01330  Biso   1.000  C
  C32      1.0000 0.21230  0.23372  0.48670  Biso   1.000  C
  H21      1.0000 0.72670  0.29220  0.02310  Biso   1.000  H
  H22      1.0000 0.77330  0.79220  0.47690  Biso   1.000  H
  H23      1.0000 0.27330  0.70780  0.97690  Biso   1.000  H
  H24      1.0000 0.22670  0.20780  0.52310  Biso   1.000  H
  O45      1.0000 0.00660  0.11737  0.50766  Biso   1.000  O
  O46      1.0000 0.49340  0.61737  0.99234  Biso   1.000  O
  O47      1.0000 0.99340  0.88263  0.49234  Biso   1.000  O
  O48      1.0000 0.50660  0.38263  0.00766  Biso   1.000  O
  N33      1.0000 0.53480  0.05531  0.00610  Biso   1.000  N
  N34      1.0000 0.96520  0.55531  0.49390  Biso   1.000  N
  N35      1.0000 0.46520  0.94469  0.99390  Biso   1.000  N
  N36      1.0000 0.03480  0.44469  0.50610  Biso   1.000  N
  C33      1.0000 0.77770  0.22107  0.00620  Biso   1.000  C
  C34      1.0000 0.72230  0.72107  0.49380  Biso   1.000  C
  C35      1.0000 0.22230  0.77893  0.99380  Biso   1.000  C
  C36      1.0000 0.27770  0.27893  0.50620  Biso   1.000  C
  O49      1.0000 0.18410  0.13177  0.61040  Biso   1.000  O
  O50      1.0000 0.31590  0.63177  0.88960  Biso   1.000  O
  O51      1.0000 0.81590  0.86823  0.38960  Biso   1.000  O
  O52      1.0000 0.68410  0.36823  0.11040  Biso   1.000  O
  N37      1.0000 0.53520  0.08976  0.05110  Biso   1.000  N
  N38      1.0000 0.96480  0.58976  0.44890  Biso   1.000  N
  N39      1.0000 0.46480  0.91024  0.94890  Biso   1.000  N
  N40      1.0000 0.03520  0.41024  0.55110  Biso   1.000  N
  C37      1.0000 0.74730  0.18354  0.95110  Biso   1.000  C
  C38      1.0000 0.75270  0.68354  0.54890  Biso   1.000  C
  C39      1.0000 0.25270  0.81646  0.04890  Biso   1.000  C
  C40      1.0000 0.24730  0.31646  0.45110  Biso   1.000  C
  H25      1.0000 0.78660  0.15220  0.96270  Biso   1.000  H
  H26      1.0000 0.71340  0.65220  0.53730  Biso   1.000  H
  H27      1.0000 0.21340  0.84780  0.03730  Biso   1.000  H
  H28      1.0000 0.28660  0.34780  0.46270  Biso   1.000  H
  N41      1.0000 0.52940  0.12294  0.09410  Biso   1.000  N
  N42      1.0000 0.97060  0.62294  0.40590  Biso   1.000  N
  N43      1.0000 0.47060  0.87706  0.90590  Biso   1.000  N
  N44      1.0000 0.02940  0.37706  0.59410  Biso   1.000  N
  C41      1.0000 0.65900  0.19251  0.87930  Biso   1.000  C
  C42      1.0000 0.84100  0.69251  0.62070  Biso   1.000  C
  C43      1.0000 0.34100  0.80749  0.12070  Biso   1.000  C
  C44      1.0000 0.15900  0.30749  0.37930  Biso   1.000  C
  H29      1.0000 0.64040  0.16680  0.84300  Biso   1.000  H
  H30      1.0000 0.85960  0.66680  0.65700  Biso   1.000  H
  H31      1.0000 0.35960  0.83320  0.15700  Biso   1.000  H
  H32      1.0000 0.14040  0.33320  0.34300  Biso   1.000  H
  C45      1.0000 0.87770  0.21233  0.08530  Biso   1.000  C
  C46      1.0000 0.62230  0.71233  0.41470  Biso   1.000  C
  C47      1.0000 0.12230  0.78767  0.91470  Biso   1.000  C
  C48      1.0000 0.37770  0.28767  0.58530  Biso   1.000  C
  C49      1.0000 0.84840  0.04937  0.15260  Biso   1.000  C
  C50      1.0000 0.65160  0.54937  0.34740  Biso   1.000  C
  C51      1.0000 0.15160  0.95063  0.84740  Biso   1.000  C
  C52      1.0000 0.34840  0.45063  0.65260  Biso   1.000  C
  H33      1.0000 0.85490  0.07810  0.12280  Biso   1.000  H
  H34      1.0000 0.64510  0.57810  0.37720  Biso   1.000  H
  H35      1.0000 0.14510  0.92190  0.87720  Biso   1.000  H
  H36      1.0000 0.35490  0.42190  0.62280  Biso   1.000  H
  C53      1.0000 0.90780  0.04940  0.23160  Biso   1.000  C
  C54      1.0000 0.59220  0.54940  0.26840  Biso   1.000  C
  C55      1.0000 0.09220  0.95060  0.76840  Biso   1.000  C
  C56      1.0000 0.40780  0.45060  0.73160  Biso   1.000  C
  H37      1.0000 0.95360  0.07770  0.25450  Biso   1.000  H
  H38      1.0000 0.54640  0.57770  0.24550  Biso   1.000  H
  H39      1.0000 0.04640  0.92230  0.74550  Biso   1.000  H
  H40      1.0000 0.45360  0.42230  0.75450  Biso   1.000  H
  C57      1.0000 0.89930  0.00702  0.27750  Biso   1.000  C
  C58      1.0000 0.60070  0.50702  0.22250  Biso   1.000  C
  C59      1.0000 0.10070  0.99298  0.72250  Biso   1.000  C
  C60      1.0000 0.39930  0.49298  0.77750  Biso   1.000  C
  C61      1.0000 0.82730  0.96665  0.24070  Biso   1.000  C
  C62      1.0000 0.67270  0.46665  0.25930  Biso   1.000  C
  C63      1.0000 0.17270  0.03335  0.75930  Biso   1.000  C
  C64      1.0000 0.32730  0.53335  0.74070  Biso   1.000  C
  H41      1.0000 0.81670  0.93780  0.26980  Biso   1.000  H
  H42      1.0000 0.68330  0.43780  0.23020  Biso   1.000  H
  H43      1.0000 0.18330  0.06220  0.73020  Biso   1.000  H
  H44      1.0000 0.31670  0.56220  0.76980  Biso   1.000  H
  C65      1.0000 0.77130  0.96922  0.16110  Biso   1.000  C
  C66      1.0000 0.72870  0.46922  0.33890  Biso   1.000  C
  C67      1.0000 0.22870  0.03078  0.83890  Biso   1.000  C
  C68      1.0000 0.27130  0.53078  0.66110  Biso   1.000  C
  H45      1.0000 0.72410  0.94140  0.13710  Biso   1.000  H
  H46      1.0000 0.77590  0.44140  0.36290  Biso   1.000  H
  H47      1.0000 0.27590  0.05860  0.86290  Biso   1.000  H
  H48      1.0000 0.22410  0.55860  0.63710  Biso   1.000  H
  C69      1.0000 0.96870  0.00504  0.36460  Biso   1.000  C
  C70      1.0000 0.53130  0.50504  0.13540  Biso   1.000  C
  C71      1.0000 0.03130  0.99496  0.63540  Biso   1.000  C
  C72      1.0000 0.46870  0.49496  0.86460  Biso   1.000  C
  C73      1.0000 0.37440  0.94945  0.16500  Biso   1.000  C
  C74      1.0000 0.12560  0.44945  0.33500  Biso   1.000  C
  C75      1.0000 0.62560  0.05055  0.83500  Biso   1.000  C
  C76      1.0000 0.87440  0.55055  0.66500  Biso   1.000  C
  H49      1.0000 0.37960  0.92070  0.13510  Biso   1.000  H
  H50      1.0000 0.12040  0.42070  0.36490  Biso   1.000  H
  H51      1.0000 0.62040  0.07930  0.86490  Biso   1.000  H
  H52      1.0000 0.87960  0.57930  0.63510  Biso   1.000  H
  C77      1.0000 0.41730  0.94777  0.24620  Biso   1.000  C
  C78      1.0000 0.08270  0.44777  0.25380  Biso   1.000  C
  C79      1.0000 0.58270  0.05223  0.75380  Biso   1.000  C
  C80      1.0000 0.91730  0.55223  0.74620  Biso   1.000  C
  H53      1.0000 0.44940  0.91850  0.27090  Biso   1.000  H
  H54      1.0000 0.05060  0.41850  0.22910  Biso   1.000  H
  H55      1.0000 0.55060  0.08150  0.72910  Biso   1.000  H
  H56      1.0000 0.94940  0.58150  0.77090  Biso   1.000  H
  C81      1.0000 0.41220  0.99054  0.29080  Biso   1.000  C
  C82      1.0000 0.08780  0.49054  0.20920  Biso   1.000  C
  C83      1.0000 0.58780  0.00946  0.70920  Biso   1.000  C
  C84      1.0000 0.91220  0.50946  0.79080  Biso   1.000  C
  C85      1.0000 0.35410  0.03245  0.25260  Biso   1.000  C
  C86      1.0000 0.14590  0.53245  0.24740  Biso   1.000  C
  C87      1.0000 0.64590  0.96755  0.74740  Biso   1.000  C
  C88      1.0000 0.85410  0.46755  0.75260  Biso   1.000  C
  H57      1.0000 0.34330  0.06130  0.28190  Biso   1.000  H
  H58      1.0000 0.15670  0.56130  0.21810  Biso   1.000  H
  H59      1.0000 0.65670  0.93870  0.71810  Biso   1.000  H
  H60      1.0000 0.84330  0.43870  0.78190  Biso   1.000  H
  C89      1.0000 0.31220  0.03100  0.17070  Biso   1.000  C
  C90      1.0000 0.18780  0.53100  0.32930  Biso   1.000  C
  C91      1.0000 0.68780  0.96900  0.82930  Biso   1.000  C
  C92      1.0000 0.81220  0.46900  0.67070  Biso   1.000  C
  H61      1.0000 0.27350  0.05940  0.14520  Biso   1.000  H
  H62      1.0000 0.22650  0.55940  0.35480  Biso   1.000  H
  H63      1.0000 0.72650  0.94060  0.85480  Biso   1.000  H
  H64      1.0000 0.77350  0.44060  0.64520  Biso   1.000  H
  C93      1.0000 0.48030  0.99301  0.37670  Biso   1.000  C
  C94      1.0000 0.01970  0.49301  0.12330  Biso   1.000  C
  C95      1.0000 0.51970  0.00699  0.62330  Biso   1.000  C
  C96      1.0000 0.98030  0.50699  0.87670  Biso   1.000  C
  C97      1.0000 0.82580  0.22674  0.70650  Biso   1.000  C
  C98      1.0000 0.67420  0.72674  0.79350  Biso   1.000  C
  C99      1.0000 0.17420  0.77326  0.29350  Biso   1.000  C
  C100     1.0000 0.32580  0.27326  0.20650  Biso   1.000  C
  H65      1.0000 0.85180  0.25200  0.74280  Biso   1.000  H
  H66      1.0000 0.64820  0.75200  0.75720  Biso   1.000  H
  H67      1.0000 0.14820  0.74800  0.25720  Biso   1.000  H
  H68      1.0000 0.35180  0.24800  0.24280  Biso   1.000  H
  C101     1.0000 0.95090  0.20256  0.67060  Biso   1.000  C
  C102     1.0000 0.54910  0.70256  0.82940  Biso   1.000  C
  C103     1.0000 0.04910  0.79744  0.32940  Biso   1.000  C
  C104     1.0000 0.45090  0.29744  0.17060  Biso   1.000  C
  H69      1.0000 0.05880  0.21180  0.68250  Biso   1.000  H
  H70      1.0000 0.44120  0.71180  0.81750  Biso   1.000  H
  H71      1.0000 0.94120  0.78820  0.31750  Biso   1.000  H
  H72      1.0000 0.55880  0.28820  0.18250  Biso   1.000  H
  C105     1.0000 0.91590  0.16497  0.61730  Biso   1.000  C
  C106     1.0000 0.58410  0.66497  0.88270  Biso   1.000  C
  C107     1.0000 0.08410  0.83503  0.38270  Biso   1.000  C
  C108     1.0000 0.41590  0.33503  0.11730  Biso   1.000  C
  C109     1.0000 0.75180  0.15371  0.60080  Biso   1.000  C
  C110     1.0000 0.74820  0.65371  0.89920  Biso   1.000  C
  C111     1.0000 0.24820  0.84629  0.39920  Biso   1.000  C
  C112     1.0000 0.25180  0.34629  0.10080  Biso   1.000  C
  H73      1.0000 0.72220  0.12900  0.56410  Biso   1.000  H
  H74      1.0000 0.77780  0.62900  0.93590  Biso   1.000  H
  H75      1.0000 0.27780  0.87100  0.43590  Biso   1.000  H
  H76      1.0000 0.22220  0.37100  0.06410  Biso   1.000  H
  C113     1.0000 0.63410  0.17927  0.63900  Biso   1.000  C
  C114     1.0000 0.86590  0.67927  0.86100  Biso   1.000  C
  C115     1.0000 0.36590  0.82073  0.36100  Biso   1.000  C
  C116     1.0000 0.13410  0.32073  0.13900  Biso   1.000  C
  H77      1.0000 0.52520  0.17100  0.62770  Biso   1.000  H
  H78      1.0000 0.97480  0.67100  0.87230  Biso   1.000  H
  H79      1.0000 0.47480  0.82900  0.37230  Biso   1.000  H
  H80      1.0000 0.02520  0.32900  0.12770  Biso   1.000  H
  C117     1.0000 0.04480  0.13640  0.57580  Biso   1.000  C
  C118     1.0000 0.45520  0.63640  0.92420  Biso   1.000  C
  C119     1.0000 0.95520  0.86360  0.42420  Biso   1.000  C
  C120     1.0000 0.54480  0.36360  0.07580  Biso   1.000  C
  O53      1.0000 0.76850  0.31000  0.52460  Biso   1.000  O
  O54      1.0000 0.73150  0.81000  0.97540  Biso   1.000  O
  O55      1.0000 0.23150  0.69000  0.47540  Biso   1.000  O
  O56      1.0000 0.26850  0.19000  0.02460  Biso   1.000  O
  O57      1.0000 0.15100  0.15300  0.88170  Biso   1.000  O
  O58      1.0000 0.34900  0.65300  0.61830  Biso   1.000  O
  O59      1.0000 0.84900  0.84700  0.11830  Biso   1.000  O
  O60      1.0000 0.65100  0.34700  0.38170  Biso   1.000  O
