data_image0
_cell_length_a       10.1192
_cell_length_b       11.7954
_cell_length_c       24.897
_cell_angle_alpha    90
_cell_angle_beta     91.787
_cell_angle_gamma    90

_symmetry_space_group_name_H-M    "P 1"
_symmetry_int_tables_number       1

loop_
  _symmetry_equiv_pos_as_xyz
  'x, y, z'

loop_
  _atom_site_label
  _atom_site_occupancy
  _atom_site_fract_x
  _atom_site_fract_y
  _atom_site_fract_z
  _atom_site_thermal_displace_type
  _atom_site_B_iso_or_equiv
  _atom_site_type_symbol
  Cu1      1.0000 0.75000  0.11839  0.50000  Biso   1.000  Cu
  Cu2      1.0000 0.25000  0.61839  0.00000  Biso   1.000  Cu
  Cu3      1.0000 0.25000  0.88161  0.50000  Biso   1.000  Cu
  Cu4      1.0000 0.75000  0.38161  0.00000  Biso   1.000  Cu
  O1       1.0000 0.63380  0.44730  0.28820  Biso   1.000  O
  O2       1.0000 0.86620  0.44730  0.71180  Biso   1.000  O
  O3       1.0000 0.13380  0.94730  0.78820  Biso   1.000  O
  O4       1.0000 0.36620  0.94730  0.21180  Biso   1.000  O
  O5       1.0000 0.36620  0.55270  0.71180  Biso   1.000  O
  O6       1.0000 0.13380  0.55270  0.28820  Biso   1.000  O
  O7       1.0000 0.86620  0.05270  0.21180  Biso   1.000  O
  O8       1.0000 0.63380  0.05270  0.78820  Biso   1.000  O
  O9       1.0000 0.78700  0.75730  0.49550  Biso   1.000  O
  O10      1.0000 0.71300  0.75730  0.50450  Biso   1.000  O
  O11      1.0000 0.28700  0.25730  0.99550  Biso   1.000  O
  O12      1.0000 0.21300  0.25730  0.00450  Biso   1.000  O
  O13      1.0000 0.21300  0.24270  0.50450  Biso   1.000  O
  O14      1.0000 0.28700  0.24270  0.49550  Biso   1.000  O
  O15      1.0000 0.71300  0.74270  0.00450  Biso   1.000  O
  O16      1.0000 0.78700  0.74270  0.99550  Biso   1.000  O
  N1       1.0000 0.46630  0.11210  0.36448  Biso   1.000  N
  N2       1.0000 0.03370  0.11210  0.63552  Biso   1.000  N
  N3       1.0000 0.96630  0.61210  0.86448  Biso   1.000  N
  N4       1.0000 0.53370  0.61210  0.13552  Biso   1.000  N
  N5       1.0000 0.53370  0.88790  0.63552  Biso   1.000  N
  N6       1.0000 0.96630  0.88790  0.36448  Biso   1.000  N
  N7       1.0000 0.03370  0.38790  0.13552  Biso   1.000  N
  N8       1.0000 0.46630  0.38790  0.86448  Biso   1.000  N
  N9       1.0000 0.55940  0.10340  0.54752  Biso   1.000  N
  N10      1.0000 0.94060  0.10340  0.45248  Biso   1.000  N
  N11      1.0000 0.05940  0.60340  0.04752  Biso   1.000  N
  N12      1.0000 0.44060  0.60340  0.95248  Biso   1.000  N
  N13      1.0000 0.44060  0.89660  0.45248  Biso   1.000  N
  N14      1.0000 0.05940  0.89660  0.54752  Biso   1.000  N
  N15      1.0000 0.94060  0.39660  0.95248  Biso   1.000  N
  N16      1.0000 0.55940  0.39660  0.04752  Biso   1.000  N
  N17      1.0000 0.35590  0.00440  0.54085  Biso   1.000  N
  N18      1.0000 0.14410  0.00440  0.45915  Biso   1.000  N
  N19      1.0000 0.85590  0.50440  0.04085  Biso   1.000  N
  N20      1.0000 0.64410  0.50440  0.95915  Biso   1.000  N
  N21      1.0000 0.64410  0.99560  0.45915  Biso   1.000  N
  N22      1.0000 0.85590  0.99560  0.54085  Biso   1.000  N
  N23      1.0000 0.14410  0.49560  0.95915  Biso   1.000  N
  N24      1.0000 0.35590  0.49560  0.04085  Biso   1.000  N
  C1       1.0000 0.60200  0.50220  0.40450  Biso   1.000  C
  C2       1.0000 0.89800  0.50220  0.59550  Biso   1.000  C
  C3       1.0000 0.10200  0.00220  0.90450  Biso   1.000  C
  C4       1.0000 0.39800  0.00220  0.09550  Biso   1.000  C
  C5       1.0000 0.39800  0.49780  0.59550  Biso   1.000  C
  C6       1.0000 0.10200  0.49780  0.40450  Biso   1.000  C
  C7       1.0000 0.89800  0.99780  0.09550  Biso   1.000  C
  C8       1.0000 0.60200  0.99780  0.90450  Biso   1.000  C
  N25      1.0000 0.58600  0.59020  0.42340  Biso   1.000  N
  N26      1.0000 0.91400  0.59020  0.57660  Biso   1.000  N
  N27      1.0000 0.08600  0.09020  0.92340  Biso   1.000  N
  N28      1.0000 0.41400  0.09020  0.07660  Biso   1.000  N
  N29      1.0000 0.41400  0.40980  0.57660  Biso   1.000  N
  N30      1.0000 0.08600  0.40980  0.42340  Biso   1.000  N
  N31      1.0000 0.91400  0.90980  0.07660  Biso   1.000  N
  N32      1.0000 0.58600  0.90980  0.92340  Biso   1.000  N
  N33      1.0000 0.58460  0.21530  0.20513  Biso   1.000  N
  N34      1.0000 0.91540  0.21530  0.79487  Biso   1.000  N
  N35      1.0000 0.08460  0.71530  0.70513  Biso   1.000  N
  N36      1.0000 0.41540  0.71530  0.29487  Biso   1.000  N
  N37      1.0000 0.41540  0.78470  0.79487  Biso   1.000  N
  N38      1.0000 0.08460  0.78470  0.20513  Biso   1.000  N
  N39      1.0000 0.91540  0.28470  0.29487  Biso   1.000  N
  N40      1.0000 0.58460  0.28470  0.70513  Biso   1.000  N
  N41      1.0000 0.67920  0.23710  0.44993  Biso   1.000  N
  N42      1.0000 0.82080  0.23710  0.55007  Biso   1.000  N
  N43      1.0000 0.17920  0.73710  0.94993  Biso   1.000  N
  N44      1.0000 0.32080  0.73710  0.05007  Biso   1.000  N
  N45      1.0000 0.32080  0.76290  0.55007  Biso   1.000  N
  N46      1.0000 0.17920  0.76290  0.44993  Biso   1.000  N
  N47      1.0000 0.82080  0.26290  0.05007  Biso   1.000  N
  N48      1.0000 0.67920  0.26290  0.94993  Biso   1.000  N
  C9       1.0000 0.31480  0.06060  0.58412  Biso   1.000  C
  C10      1.0000 0.18520  0.06060  0.41588  Biso   1.000  C
  C11      1.0000 0.81480  0.56060  0.08412  Biso   1.000  C
  C12      1.0000 0.68520  0.56060  0.91588  Biso   1.000  C
  C13      1.0000 0.68520  0.93940  0.41588  Biso   1.000  C
  C14      1.0000 0.81480  0.93940  0.58412  Biso   1.000  C
  C15      1.0000 0.18520  0.43940  0.91588  Biso   1.000  C
  C16      1.0000 0.31480  0.43940  0.08412  Biso   1.000  C
  C17      1.0000 0.65530  0.30680  0.41912  Biso   1.000  C
  C18      1.0000 0.84470  0.30680  0.58088  Biso   1.000  C
  C19      1.0000 0.15530  0.80680  0.91912  Biso   1.000  C
  C20      1.0000 0.34470  0.80680  0.08088  Biso   1.000  C
  C21      1.0000 0.34470  0.69320  0.58088  Biso   1.000  C
  C22      1.0000 0.15530  0.69320  0.41912  Biso   1.000  C
  C23      1.0000 0.84470  0.19320  0.08088  Biso   1.000  C
  C24      1.0000 0.65530  0.19320  0.91912  Biso   1.000  C
  C25      1.0000 0.51710  0.15850  0.59110  Biso   1.000  C
  C26      1.0000 0.98290  0.15850  0.40890  Biso   1.000  C
  C27      1.0000 0.01710  0.65850  0.09110  Biso   1.000  C
  C28      1.0000 0.48290  0.65850  0.90890  Biso   1.000  C
  C29      1.0000 0.48290  0.84150  0.40890  Biso   1.000  C
  C30      1.0000 0.01710  0.84150  0.59110  Biso   1.000  C
  C31      1.0000 0.98290  0.34150  0.90890  Biso   1.000  C
  C32      1.0000 0.51710  0.34150  0.09110  Biso   1.000  C
  C33      1.0000 0.63020  0.39470  0.38152  Biso   1.000  C
  C34      1.0000 0.86980  0.39470  0.61848  Biso   1.000  C
  C35      1.0000 0.13020  0.89470  0.88152  Biso   1.000  C
  C36      1.0000 0.36980  0.89470  0.11848  Biso   1.000  C
  C37      1.0000 0.36980  0.60530  0.61848  Biso   1.000  C
  C38      1.0000 0.13020  0.60530  0.38152  Biso   1.000  C
  C39      1.0000 0.86980  0.10530  0.11848  Biso   1.000  C
  C40      1.0000 0.63020  0.10530  0.88152  Biso   1.000  C
  C41      1.0000 0.61370  0.36960  0.32590  Biso   1.000  C
  C42      1.0000 0.88630  0.36960  0.67410  Biso   1.000  C
  C43      1.0000 0.11370  0.86960  0.82590  Biso   1.000  C
  C44      1.0000 0.38630  0.86960  0.17410  Biso   1.000  C
  C45      1.0000 0.38630  0.63040  0.67410  Biso   1.000  C
  C46      1.0000 0.11370  0.63040  0.32590  Biso   1.000  C
  C47      1.0000 0.88630  0.13040  0.17410  Biso   1.000  C
  C48      1.0000 0.61370  0.13040  0.82590  Biso   1.000  C
  C49      1.0000 0.51400  0.18120  0.33860  Biso   1.000  C
  C50      1.0000 0.98600  0.18120  0.66140  Biso   1.000  C
  C51      1.0000 0.01400  0.68120  0.83860  Biso   1.000  C
  C52      1.0000 0.48600  0.68120  0.16140  Biso   1.000  C
  C53      1.0000 0.48600  0.81880  0.66140  Biso   1.000  C
  C54      1.0000 0.01400  0.81880  0.33860  Biso   1.000  C
  C55      1.0000 0.98600  0.31880  0.16140  Biso   1.000  C
  C56      1.0000 0.51400  0.31880  0.83860  Biso   1.000  C
  C57      1.0000 0.58090  0.23920  0.25014  Biso   1.000  C
  C58      1.0000 0.91910  0.23920  0.74986  Biso   1.000  C
  C59      1.0000 0.08090  0.73920  0.75014  Biso   1.000  C
  C60      1.0000 0.41910  0.73920  0.24986  Biso   1.000  C
  C61      1.0000 0.41910  0.76080  0.74986  Biso   1.000  C
  C62      1.0000 0.08090  0.76080  0.25014  Biso   1.000  C
  C63      1.0000 0.91910  0.26080  0.24986  Biso   1.000  C
  C64      1.0000 0.58090  0.26080  0.75014  Biso   1.000  C
  C65      1.0000 0.57200  0.26490  0.30600  Biso   1.000  C
  C66      1.0000 0.92800  0.26490  0.69400  Biso   1.000  C
  C67      1.0000 0.07200  0.76490  0.80600  Biso   1.000  C
  C68      1.0000 0.42800  0.76490  0.19400  Biso   1.000  C
  C69      1.0000 0.42800  0.73510  0.69400  Biso   1.000  C
  C70      1.0000 0.07200  0.73510  0.30600  Biso   1.000  C
  C71      1.0000 0.92800  0.23510  0.19400  Biso   1.000  C
  C72      1.0000 0.57200  0.23510  0.80600  Biso   1.000  C
  C73      1.0000 0.73340  0.53630  0.29672  Biso   1.000  C
  C74      1.0000 0.76660  0.53630  0.70328  Biso   1.000  C
  C75      1.0000 0.23340  0.03630  0.79672  Biso   1.000  C
  C76      1.0000 0.26660  0.03630  0.20328  Biso   1.000  C
  C77      1.0000 0.26660  0.46370  0.70328  Biso   1.000  C
  C78      1.0000 0.23340  0.46370  0.29672  Biso   1.000  C
  C79      1.0000 0.76660  0.96370  0.20328  Biso   1.000  C
  C80      1.0000 0.73340  0.96370  0.79672  Biso   1.000  C
  C81      1.0000 0.78530  0.56430  0.24260  Biso   1.000  C
  C82      1.0000 0.71470  0.56430  0.75740  Biso   1.000  C
  C83      1.0000 0.28530  0.06430  0.74260  Biso   1.000  C
  C84      1.0000 0.21470  0.06430  0.25740  Biso   1.000  C
  C85      1.0000 0.21470  0.43570  0.75740  Biso   1.000  C
  C86      1.0000 0.28530  0.43570  0.24260  Biso   1.000  C
  C87      1.0000 0.71470  0.93570  0.25740  Biso   1.000  C
  C88      1.0000 0.78530  0.93570  0.74260  Biso   1.000  C
  C89      1.0000 0.47680  0.02980  0.52435  Biso   1.000  C
  C90      1.0000 0.02320  0.02980  0.47565  Biso   1.000  C
  C91      1.0000 0.97680  0.52980  0.02435  Biso   1.000  C
  C92      1.0000 0.52320  0.52980  0.97565  Biso   1.000  C
  C93      1.0000 0.52320  0.97020  0.47565  Biso   1.000  C
  C94      1.0000 0.97680  0.97020  0.52435  Biso   1.000  C
  C95      1.0000 0.02320  0.47020  0.97565  Biso   1.000  C
  C96      1.0000 0.47680  0.47020  0.02435  Biso   1.000  C
  C97      1.0000 0.39180  0.13950  0.61030  Biso   1.000  C
  C98      1.0000 0.10820  0.13950  0.38970  Biso   1.000  C
  C99      1.0000 0.89180  0.63950  0.11030  Biso   1.000  C
  C100     1.0000 0.60820  0.63950  0.88970  Biso   1.000  C
  C101     1.0000 0.60820  0.86050  0.38970  Biso   1.000  C
  C102     1.0000 0.89180  0.86050  0.61030  Biso   1.000  C
  C103     1.0000 0.10820  0.36050  0.88970  Biso   1.000  C
  C104     1.0000 0.39180  0.36050  0.11030  Biso   1.000  C
  H1       1.0000 0.81700  0.50400  0.31540  Biso   1.000  H
  H2       1.0000 0.68300  0.50400  0.68460  Biso   1.000  H
  H3       1.0000 0.31700  0.00400  0.81540  Biso   1.000  H
  H4       1.0000 0.18300  0.00400  0.18460  Biso   1.000  H
  H5       1.0000 0.18300  0.49600  0.68460  Biso   1.000  H
  H6       1.0000 0.31700  0.49600  0.31540  Biso   1.000  H
  H7       1.0000 0.68300  0.99600  0.18460  Biso   1.000  H
  H8       1.0000 0.81700  0.99600  0.81540  Biso   1.000  H
  H9       1.0000 0.22900  0.04400  0.59740  Biso   1.000  H
  H10      1.0000 0.27100  0.04400  0.40260  Biso   1.000  H
  H11      1.0000 0.72900  0.54400  0.09740  Biso   1.000  H
  H12      1.0000 0.77100  0.54400  0.90260  Biso   1.000  H
  H13      1.0000 0.77100  0.95600  0.40260  Biso   1.000  H
  H14      1.0000 0.72900  0.95600  0.59740  Biso   1.000  H
  H15      1.0000 0.27100  0.45600  0.90260  Biso   1.000  H
  H16      1.0000 0.22900  0.45600  0.09740  Biso   1.000  H
  H17      1.0000 0.68700  0.60400  0.31130  Biso   1.000  H
  H18      1.0000 0.81300  0.60400  0.68870  Biso   1.000  H
  H19      1.0000 0.18700  0.10400  0.81130  Biso   1.000  H
  H20      1.0000 0.31300  0.10400  0.18870  Biso   1.000  H
  H21      1.0000 0.31300  0.39600  0.68870  Biso   1.000  H
  H22      1.0000 0.18700  0.39600  0.31130  Biso   1.000  H
  H23      1.0000 0.81300  0.89600  0.18870  Biso   1.000  H
  H24      1.0000 0.68700  0.89600  0.81130  Biso   1.000  H
  H25      1.0000 0.35400  0.18000  0.63700  Biso   1.000  H
  H26      1.0000 0.14600  0.18000  0.36300  Biso   1.000  H
  H27      1.0000 0.85400  0.68000  0.13700  Biso   1.000  H
  H28      1.0000 0.64600  0.68000  0.86300  Biso   1.000  H
  H29      1.0000 0.64600  0.82000  0.36300  Biso   1.000  H
  H30      1.0000 0.85400  0.82000  0.63700  Biso   1.000  H
  H31      1.0000 0.14600  0.32000  0.86300  Biso   1.000  H
  H32      1.0000 0.35400  0.32000  0.13700  Biso   1.000  H
  H33      1.0000 0.84400  0.62600  0.24700  Biso   1.000  H
  H34      1.0000 0.65600  0.62600  0.75300  Biso   1.000  H
  H35      1.0000 0.34400  0.12600  0.74700  Biso   1.000  H
  H36      1.0000 0.15600  0.12600  0.25300  Biso   1.000  H
  H37      1.0000 0.15600  0.37400  0.75300  Biso   1.000  H
  H38      1.0000 0.34400  0.37400  0.24700  Biso   1.000  H
  H39      1.0000 0.65600  0.87400  0.25300  Biso   1.000  H
  H40      1.0000 0.84400  0.87400  0.74700  Biso   1.000  H
  H41      1.0000 0.82000  0.50000  0.23100  Biso   1.000  H
  H42      1.0000 0.68000  0.50000  0.76900  Biso   1.000  H
  H43      1.0000 0.32000  0.00000  0.73100  Biso   1.000  H
  H44      1.0000 0.18000  0.00000  0.26900  Biso   1.000  H
  H45      1.0000 0.18000  0.50000  0.76900  Biso   1.000  H
  H46      1.0000 0.32000  0.50000  0.23100  Biso   1.000  H
  H47      1.0000 0.68000  0.00000  0.26900  Biso   1.000  H
  H48      1.0000 0.82000  0.00000  0.73100  Biso   1.000  H
  H49      1.0000 0.70700  0.59700  0.22000  Biso   1.000  H
  H50      1.0000 0.79300  0.59700  0.78000  Biso   1.000  H
  H51      1.0000 0.20700  0.09700  0.72000  Biso   1.000  H
  H52      1.0000 0.29300  0.09700  0.28000  Biso   1.000  H
  H53      1.0000 0.29300  0.40300  0.78000  Biso   1.000  H
  H54      1.0000 0.20700  0.40300  0.22000  Biso   1.000  H
  H55      1.0000 0.79300  0.90300  0.28000  Biso   1.000  H
  H56      1.0000 0.70700  0.90300  0.72000  Biso   1.000  H
  H57      1.0000 0.57800  0.21100  0.60540  Biso   1.000  H
  H58      1.0000 0.92200  0.21100  0.39460  Biso   1.000  H
  H59      1.0000 0.07800  0.71100  0.10540  Biso   1.000  H
  H60      1.0000 0.42200  0.71100  0.89460  Biso   1.000  H
  H61      1.0000 0.42200  0.78900  0.39460  Biso   1.000  H
  H62      1.0000 0.07800  0.78900  0.60540  Biso   1.000  H
  H63      1.0000 0.92200  0.28900  0.89460  Biso   1.000  H
  H64      1.0000 0.57800  0.28900  0.10540  Biso   1.000  H
  O17      1.0000 0.83710  0.75540  0.48820  Biso   1.000  O
  O18      1.0000 0.66290  0.75540  0.51180  Biso   1.000  O
  O19      1.0000 0.33710  0.25540  0.98820  Biso   1.000  O
  O20      1.0000 0.16290  0.25540  0.01180  Biso   1.000  O
  O21      1.0000 0.16290  0.24460  0.51180  Biso   1.000  O
  O22      1.0000 0.33710  0.24460  0.48820  Biso   1.000  O
  O23      1.0000 0.66290  0.74460  0.01180  Biso   1.000  O
  O24      1.0000 0.83710  0.74460  0.98820  Biso   1.000  O
