data_image0
_cell_length_a       10.1105
_cell_length_b       11.8149
_cell_length_c       24.9214
_cell_angle_alpha    90
_cell_angle_beta     91.839
_cell_angle_gamma    90

_symmetry_space_group_name_H-M    "P 1"
_symmetry_int_tables_number       1

loop_
  _symmetry_equiv_pos_as_xyz
  'x, y, z'

loop_
  _atom_site_label
  _atom_site_occupancy
  _atom_site_fract_x
  _atom_site_fract_y
  _atom_site_fract_z
  _atom_site_thermal_displace_type
  _atom_site_B_iso_or_equiv
  _atom_site_type_symbol
  Cu1      1.0000 0.75000  0.11899  0.50000  Biso   1.000  Cu
  Cu2      1.0000 0.25000  0.61899  0.00000  Biso   1.000  Cu
  Cu3      1.0000 0.25000  0.88101  0.50000  Biso   1.000  Cu
  Cu4      1.0000 0.75000  0.38101  0.00000  Biso   1.000  Cu
  O1       1.0000 0.63259  0.44814  0.28873  Biso   1.000  O
  O2       1.0000 0.86741  0.44814  0.71127  Biso   1.000  O
  O3       1.0000 0.13259  0.94814  0.78873  Biso   1.000  O
  O4       1.0000 0.36741  0.94814  0.21127  Biso   1.000  O
  O5       1.0000 0.36741  0.55186  0.71127  Biso   1.000  O
  O6       1.0000 0.13259  0.55186  0.28873  Biso   1.000  O
  O7       1.0000 0.86741  0.05186  0.21127  Biso   1.000  O
  O8       1.0000 0.63259  0.05186  0.78873  Biso   1.000  O
  O9       1.0000 0.77390  0.75700  0.49740  Biso   1.000  O
  O10      1.0000 0.72610  0.75700  0.50260  Biso   1.000  O
  O11      1.0000 0.27390  0.25700  0.99740  Biso   1.000  O
  O12      1.0000 0.22610  0.25700  0.00260  Biso   1.000  O
  O13      1.0000 0.22610  0.24300  0.50260  Biso   1.000  O
  O14      1.0000 0.27390  0.24300  0.49740  Biso   1.000  O
  O15      1.0000 0.72610  0.74300  0.00260  Biso   1.000  O
  O16      1.0000 0.77390  0.74300  0.99740  Biso   1.000  O
  N1       1.0000 0.46630  0.11284  0.36465  Biso   1.000  N
  N2       1.0000 0.03370  0.11284  0.63535  Biso   1.000  N
  N3       1.0000 0.96630  0.61284  0.86465  Biso   1.000  N
  N4       1.0000 0.53370  0.61284  0.13535  Biso   1.000  N
  N5       1.0000 0.53370  0.88716  0.63535  Biso   1.000  N
  N6       1.0000 0.96630  0.88716  0.36465  Biso   1.000  N
  N7       1.0000 0.03370  0.38716  0.13535  Biso   1.000  N
  N8       1.0000 0.46630  0.38716  0.86465  Biso   1.000  N
  N9       1.0000 0.44139  0.89617  0.45261  Biso   1.000  N
  N10      1.0000 0.05861  0.89617  0.54739  Biso   1.000  N
  N11      1.0000 0.94139  0.39617  0.95261  Biso   1.000  N
  N12      1.0000 0.55861  0.39617  0.04739  Biso   1.000  N
  N13      1.0000 0.55861  0.10383  0.54739  Biso   1.000  N
  N14      1.0000 0.94139  0.10383  0.45261  Biso   1.000  N
  N15      1.0000 0.05861  0.60383  0.04739  Biso   1.000  N
  N16      1.0000 0.44139  0.60383  0.95261  Biso   1.000  N
  N17      1.0000 0.64444  0.99619  0.45934  Biso   1.000  N
  N18      1.0000 0.85556  0.99619  0.54066  Biso   1.000  N
  N19      1.0000 0.14444  0.49619  0.95934  Biso   1.000  N
  N20      1.0000 0.35556  0.49619  0.04066  Biso   1.000  N
  N21      1.0000 0.35556  0.00381  0.54066  Biso   1.000  N
  N22      1.0000 0.14444  0.00381  0.45934  Biso   1.000  N
  N23      1.0000 0.85556  0.50381  0.04066  Biso   1.000  N
  N24      1.0000 0.64444  0.50381  0.95934  Biso   1.000  N
  N25      1.0000 0.58290  0.21764  0.20565  Biso   1.000  N
  N26      1.0000 0.91710  0.21764  0.79435  Biso   1.000  N
  N27      1.0000 0.08290  0.71764  0.70565  Biso   1.000  N
  N28      1.0000 0.41710  0.71764  0.29435  Biso   1.000  N
  N29      1.0000 0.41710  0.78236  0.79435  Biso   1.000  N
  N30      1.0000 0.08290  0.78236  0.20565  Biso   1.000  N
  N31      1.0000 0.91710  0.28236  0.29435  Biso   1.000  N
  N32      1.0000 0.58290  0.28236  0.70565  Biso   1.000  N
  N33      1.0000 0.67871  0.23729  0.45018  Biso   1.000  N
  N34      1.0000 0.82129  0.23729  0.54982  Biso   1.000  N
  N35      1.0000 0.17871  0.73729  0.95018  Biso   1.000  N
  N36      1.0000 0.32129  0.73729  0.04982  Biso   1.000  N
  N37      1.0000 0.32129  0.76271  0.54982  Biso   1.000  N
  N38      1.0000 0.17871  0.76271  0.45018  Biso   1.000  N
  N39      1.0000 0.82129  0.26271  0.04982  Biso   1.000  N
  N40      1.0000 0.67871  0.26271  0.95018  Biso   1.000  N
  C1       1.0000 0.68600  0.94057  0.41603  Biso   1.000  C
  C2       1.0000 0.81400  0.94057  0.58397  Biso   1.000  C
  C3       1.0000 0.18600  0.44057  0.91603  Biso   1.000  C
  C4       1.0000 0.31400  0.44057  0.08397  Biso   1.000  C
  C5       1.0000 0.31400  0.05943  0.58397  Biso   1.000  C
  C6       1.0000 0.18600  0.05943  0.41603  Biso   1.000  C
  C7       1.0000 0.81400  0.55943  0.08397  Biso   1.000  C
  C8       1.0000 0.68600  0.55943  0.91603  Biso   1.000  C
  C9       1.0000 0.65560  0.30719  0.41917  Biso   1.000  C
  C10      1.0000 0.84440  0.30719  0.58083  Biso   1.000  C
  C11      1.0000 0.15560  0.80719  0.91917  Biso   1.000  C
  C12      1.0000 0.34440  0.80719  0.08083  Biso   1.000  C
  C13      1.0000 0.34440  0.69281  0.58083  Biso   1.000  C
  C14      1.0000 0.15560  0.69281  0.41917  Biso   1.000  C
  C15      1.0000 0.84440  0.19281  0.08083  Biso   1.000  C
  C16      1.0000 0.65560  0.19281  0.91917  Biso   1.000  C
  C17      1.0000 0.48480  0.84140  0.40937  Biso   1.000  C
  C18      1.0000 0.01520  0.84140  0.59063  Biso   1.000  C
  C19      1.0000 0.98480  0.34140  0.90937  Biso   1.000  C
  C20      1.0000 0.51520  0.34140  0.09063  Biso   1.000  C
  C21      1.0000 0.51520  0.15860  0.59063  Biso   1.000  C
  C22      1.0000 0.98480  0.15860  0.40937  Biso   1.000  C
  C23      1.0000 0.01520  0.65860  0.09063  Biso   1.000  C
  C24      1.0000 0.48480  0.65860  0.90937  Biso   1.000  C
  C25      1.0000 0.62990  0.39420  0.38184  Biso   1.000  C
  C26      1.0000 0.87010  0.39420  0.61816  Biso   1.000  C
  C27      1.0000 0.12990  0.89420  0.88184  Biso   1.000  C
  C28      1.0000 0.37010  0.89420  0.11816  Biso   1.000  C
  C29      1.0000 0.37010  0.60580  0.61816  Biso   1.000  C
  C30      1.0000 0.12990  0.60580  0.38184  Biso   1.000  C
  C31      1.0000 0.87010  0.10580  0.11816  Biso   1.000  C
  C32      1.0000 0.62990  0.10580  0.88184  Biso   1.000  C
  C33      1.0000 0.61260  0.36960  0.32627  Biso   1.000  C
  C34      1.0000 0.88740  0.36960  0.67373  Biso   1.000  C
  C35      1.0000 0.11260  0.86960  0.82627  Biso   1.000  C
  C36      1.0000 0.38740  0.86960  0.17373  Biso   1.000  C
  C37      1.0000 0.38740  0.63040  0.67373  Biso   1.000  C
  C38      1.0000 0.11260  0.63040  0.32627  Biso   1.000  C
  C39      1.0000 0.88740  0.13040  0.17373  Biso   1.000  C
  C40      1.0000 0.61260  0.13040  0.82627  Biso   1.000  C
  C41      1.0000 0.51380  0.18180  0.33892  Biso   1.000  C
  C42      1.0000 0.98620  0.18180  0.66108  Biso   1.000  C
  C43      1.0000 0.01380  0.68180  0.83892  Biso   1.000  C
  C44      1.0000 0.48620  0.68180  0.16108  Biso   1.000  C
  C45      1.0000 0.48620  0.81820  0.66108  Biso   1.000  C
  C46      1.0000 0.01380  0.81820  0.33892  Biso   1.000  C
  C47      1.0000 0.98620  0.31820  0.16108  Biso   1.000  C
  C48      1.0000 0.51380  0.31820  0.83892  Biso   1.000  C
  C49      1.0000 0.57980  0.24010  0.25034  Biso   1.000  C
  C50      1.0000 0.92020  0.24010  0.74966  Biso   1.000  C
  C51      1.0000 0.07980  0.74010  0.75034  Biso   1.000  C
  C52      1.0000 0.42020  0.74010  0.24966  Biso   1.000  C
  C53      1.0000 0.42020  0.75990  0.74966  Biso   1.000  C
  C54      1.0000 0.07980  0.75990  0.25034  Biso   1.000  C
  C55      1.0000 0.92020  0.25990  0.24966  Biso   1.000  C
  C56      1.0000 0.57980  0.25990  0.75034  Biso   1.000  C
  C57      1.0000 0.57170  0.26556  0.30632  Biso   1.000  C
  C58      1.0000 0.92830  0.26556  0.69368  Biso   1.000  C
  C59      1.0000 0.07170  0.76556  0.80632  Biso   1.000  C
  C60      1.0000 0.42830  0.76556  0.19368  Biso   1.000  C
  C61      1.0000 0.42830  0.73444  0.69368  Biso   1.000  C
  C62      1.0000 0.07170  0.73444  0.30632  Biso   1.000  C
  C63      1.0000 0.92830  0.23444  0.19368  Biso   1.000  C
  C64      1.0000 0.57170  0.23444  0.80632  Biso   1.000  C
  C65      1.0000 0.73180  0.53670  0.29736  Biso   1.000  C
  C66      1.0000 0.76820  0.53670  0.70264  Biso   1.000  C
  C67      1.0000 0.23180  0.03670  0.79736  Biso   1.000  C
  C68      1.0000 0.26820  0.03670  0.20264  Biso   1.000  C
  C69      1.0000 0.26820  0.46330  0.70264  Biso   1.000  C
  C70      1.0000 0.23180  0.46330  0.29736  Biso   1.000  C
  C71      1.0000 0.76820  0.96330  0.20264  Biso   1.000  C
  C72      1.0000 0.73180  0.96330  0.79736  Biso   1.000  C
  C73      1.0000 0.78400  0.56370  0.24293  Biso   1.000  C
  C74      1.0000 0.71600  0.56370  0.75707  Biso   1.000  C
  C75      1.0000 0.28400  0.06370  0.74293  Biso   1.000  C
  C76      1.0000 0.21600  0.06370  0.25707  Biso   1.000  C
  C77      1.0000 0.21600  0.43630  0.75707  Biso   1.000  C
  C78      1.0000 0.28400  0.43630  0.24293  Biso   1.000  C
  C79      1.0000 0.71600  0.93630  0.25707  Biso   1.000  C
  C80      1.0000 0.78400  0.93630  0.74293  Biso   1.000  C
  C81      1.0000 0.52380  0.97051  0.47576  Biso   1.000  C
  C82      1.0000 0.97620  0.97051  0.52424  Biso   1.000  C
  C83      1.0000 0.02380  0.47051  0.97576  Biso   1.000  C
  C84      1.0000 0.47620  0.47051  0.02424  Biso   1.000  C
  C85      1.0000 0.47620  0.02949  0.52424  Biso   1.000  C
  C86      1.0000 0.02380  0.02949  0.47576  Biso   1.000  C
  C87      1.0000 0.97620  0.52949  0.02424  Biso   1.000  C
  C88      1.0000 0.52380  0.52949  0.97576  Biso   1.000  C
  C89      1.0000 0.60790  0.86158  0.39010  Biso   1.000  C
  C90      1.0000 0.89210  0.86158  0.60990  Biso   1.000  C
  C91      1.0000 0.10790  0.36158  0.89010  Biso   1.000  C
  C92      1.0000 0.39210  0.36158  0.10990  Biso   1.000  C
  C93      1.0000 0.39210  0.13842  0.60990  Biso   1.000  C
  C94      1.0000 0.10790  0.13842  0.39010  Biso   1.000  C
  C95      1.0000 0.89210  0.63842  0.10990  Biso   1.000  C
  C96      1.0000 0.60790  0.63842  0.89010  Biso   1.000  C
  N41      1.0000 0.64610  0.59600  0.41951  Biso   1.000  N
  N42      1.0000 0.85390  0.59600  0.58049  Biso   1.000  N
  N43      1.0000 0.14610  0.09600  0.91951  Biso   1.000  N
  N44      1.0000 0.35390  0.09600  0.08049  Biso   1.000  N
  N45      1.0000 0.35390  0.40400  0.58049  Biso   1.000  N
  N46      1.0000 0.14610  0.40400  0.41951  Biso   1.000  N
  N47      1.0000 0.85390  0.90400  0.08049  Biso   1.000  N
  N48      1.0000 0.64610  0.90400  0.91951  Biso   1.000  N
  C97      1.0000 0.64570  0.50690  0.40090  Biso   1.000  C
  C98      1.0000 0.85430  0.50690  0.59910  Biso   1.000  C
  C99      1.0000 0.14570  0.00690  0.90090  Biso   1.000  C
  C100     1.0000 0.35430  0.00690  0.09910  Biso   1.000  C
  C101     1.0000 0.35430  0.49310  0.59910  Biso   1.000  C
  C102     1.0000 0.14570  0.49310  0.40090  Biso   1.000  C
  C103     1.0000 0.85430  0.99310  0.09910  Biso   1.000  C
  C104     1.0000 0.64570  0.99310  0.90090  Biso   1.000  C
  H1       1.0000 0.80400  0.51000  0.32220  Biso   1.000  H
  H2       1.0000 0.69600  0.51000  0.67780  Biso   1.000  H
  H3       1.0000 0.30400  0.01000  0.82220  Biso   1.000  H
  H4       1.0000 0.19600  0.01000  0.17780  Biso   1.000  H
  H5       1.0000 0.19600  0.49000  0.67780  Biso   1.000  H
  H6       1.0000 0.30400  0.49000  0.32220  Biso   1.000  H
  H7       1.0000 0.69600  0.99000  0.17780  Biso   1.000  H
  H8       1.0000 0.80400  0.99000  0.82220  Biso   1.000  H
  H9       1.0000 0.76800  0.95750  0.40450  Biso   1.000  H
  H10      1.0000 0.73200  0.95750  0.59550  Biso   1.000  H
  H11      1.0000 0.26800  0.45750  0.90450  Biso   1.000  H
  H12      1.0000 0.23200  0.45750  0.09550  Biso   1.000  H
  H13      1.0000 0.23200  0.04250  0.59550  Biso   1.000  H
  H14      1.0000 0.26800  0.04250  0.40450  Biso   1.000  H
  H15      1.0000 0.73200  0.54250  0.09550  Biso   1.000  H
  H16      1.0000 0.76800  0.54250  0.90450  Biso   1.000  H
  H17      1.0000 0.68600  0.60200  0.31390  Biso   1.000  H
  H18      1.0000 0.81400  0.60200  0.68610  Biso   1.000  H
  H19      1.0000 0.18600  0.10200  0.81390  Biso   1.000  H
  H20      1.0000 0.31400  0.10200  0.18610  Biso   1.000  H
  H21      1.0000 0.31400  0.39800  0.68610  Biso   1.000  H
  H22      1.0000 0.18600  0.39800  0.31390  Biso   1.000  H
  H23      1.0000 0.81400  0.89800  0.18610  Biso   1.000  H
  H24      1.0000 0.68600  0.89800  0.81390  Biso   1.000  H
  H25      1.0000 0.64100  0.82400  0.36150  Biso   1.000  H
  H26      1.0000 0.85900  0.82400  0.63850  Biso   1.000  H
  H27      1.0000 0.14100  0.32400  0.86150  Biso   1.000  H
  H28      1.0000 0.35900  0.32400  0.13850  Biso   1.000  H
  H29      1.0000 0.35900  0.17600  0.63850  Biso   1.000  H
  H30      1.0000 0.14100  0.17600  0.36150  Biso   1.000  H
  H31      1.0000 0.85900  0.67600  0.13850  Biso   1.000  H
  H32      1.0000 0.64100  0.67600  0.86150  Biso   1.000  H
  H33      1.0000 0.84300  0.62300  0.24640  Biso   1.000  H
  H34      1.0000 0.65700  0.62300  0.75360  Biso   1.000  H
  H35      1.0000 0.34300  0.12300  0.74640  Biso   1.000  H
  H36      1.0000 0.15700  0.12300  0.25360  Biso   1.000  H
  H37      1.0000 0.15700  0.37700  0.75360  Biso   1.000  H
  H38      1.0000 0.34300  0.37700  0.24640  Biso   1.000  H
  H39      1.0000 0.65700  0.87700  0.25360  Biso   1.000  H
  H40      1.0000 0.84300  0.87700  0.74640  Biso   1.000  H
  H41      1.0000 0.83200  0.49400  0.22800  Biso   1.000  H
  H42      1.0000 0.66800  0.49400  0.77200  Biso   1.000  H
  H43      1.0000 0.33200  0.99400  0.72800  Biso   1.000  H
  H44      1.0000 0.16800  0.99400  0.27200  Biso   1.000  H
  H45      1.0000 0.16800  0.50600  0.77200  Biso   1.000  H
  H46      1.0000 0.33200  0.50600  0.22800  Biso   1.000  H
  H47      1.0000 0.66800  0.00600  0.27200  Biso   1.000  H
  H48      1.0000 0.83200  0.00600  0.72800  Biso   1.000  H
  H49      1.0000 0.71400  0.58800  0.21760  Biso   1.000  H
  H50      1.0000 0.78600  0.58800  0.78240  Biso   1.000  H
  H51      1.0000 0.21400  0.08800  0.71760  Biso   1.000  H
  H52      1.0000 0.28600  0.08800  0.28240  Biso   1.000  H
  H53      1.0000 0.28600  0.41200  0.78240  Biso   1.000  H
  H54      1.0000 0.21400  0.41200  0.21760  Biso   1.000  H
  H55      1.0000 0.78600  0.91200  0.28240  Biso   1.000  H
  H56      1.0000 0.71400  0.91200  0.71760  Biso   1.000  H
  H57      1.0000 0.42800  0.79000  0.39390  Biso   1.000  H
  H58      1.0000 0.07200  0.79000  0.60610  Biso   1.000  H
  H59      1.0000 0.92800  0.29000  0.89390  Biso   1.000  H
  H60      1.0000 0.57200  0.29000  0.10610  Biso   1.000  H
  H61      1.0000 0.57200  0.21000  0.60610  Biso   1.000  H
  H62      1.0000 0.92800  0.21000  0.39390  Biso   1.000  H
  H63      1.0000 0.07200  0.71000  0.10610  Biso   1.000  H
  H64      1.0000 0.42800  0.71000  0.89390  Biso   1.000  H
  C105     1.0000 0.59790  0.50310  0.40610  Biso   1.000  C
  C106     1.0000 0.90210  0.50310  0.59390  Biso   1.000  C
  C107     1.0000 0.09790  0.00310  0.90610  Biso   1.000  C
  C108     1.0000 0.40210  0.00310  0.09390  Biso   1.000  C
  C109     1.0000 0.40210  0.49690  0.59390  Biso   1.000  C
  C110     1.0000 0.09790  0.49690  0.40610  Biso   1.000  C
  C111     1.0000 0.90210  0.99690  0.09390  Biso   1.000  C
  C112     1.0000 0.59790  0.99690  0.90610  Biso   1.000  C
  N49      1.0000 0.58420  0.59060  0.42510  Biso   1.000  N
  N50      1.0000 0.91580  0.59060  0.57490  Biso   1.000  N
  N51      1.0000 0.08420  0.09060  0.92510  Biso   1.000  N
  N52      1.0000 0.41580  0.09060  0.07490  Biso   1.000  N
  N53      1.0000 0.41580  0.40940  0.57490  Biso   1.000  N
  N54      1.0000 0.08420  0.40940  0.42510  Biso   1.000  N
  N55      1.0000 0.91580  0.90940  0.07490  Biso   1.000  N
  N56      1.0000 0.58420  0.90940  0.92510  Biso   1.000  N
  O17      1.0000 0.82200  0.75260  0.48770  Biso   1.000  O
  O18      1.0000 0.67800  0.75260  0.51230  Biso   1.000  O
  O19      1.0000 0.32200  0.25260  0.98770  Biso   1.000  O
  O20      1.0000 0.17800  0.25260  0.01230  Biso   1.000  O
  O21      1.0000 0.17800  0.24740  0.51230  Biso   1.000  O
  O22      1.0000 0.32200  0.24740  0.48770  Biso   1.000  O
  O23      1.0000 0.67800  0.74740  0.01230  Biso   1.000  O
  O24      1.0000 0.82200  0.74740  0.98770  Biso   1.000  O
