data_image0
_cell_length_a       10.0792
_cell_length_b       11.9676
_cell_length_c       24.9148
_cell_angle_alpha    90
_cell_angle_beta     89.467
_cell_angle_gamma    90

_symmetry_space_group_name_H-M    "P 1"
_symmetry_int_tables_number       1

loop_
  _symmetry_equiv_pos_as_xyz
  'x, y, z'

loop_
  _atom_site_label
  _atom_site_occupancy
  _atom_site_fract_x
  _atom_site_fract_y
  _atom_site_fract_z
  _atom_site_thermal_displace_type
  _atom_site_B_iso_or_equiv
  _atom_site_type_symbol
  Cu1      1.0000 0.75000  0.11485  0.50000  Biso   1.000  Cu
  Cu2      1.0000 0.25000  0.61485  0.00000  Biso   1.000  Cu
  Cu3      1.0000 0.25000  0.88515  0.50000  Biso   1.000  Cu
  Cu4      1.0000 0.75000  0.38515  0.00000  Biso   1.000  Cu
  O1       1.0000 0.61910  0.45358  0.29388  Biso   1.000  O
  O2       1.0000 0.88090  0.45358  0.70612  Biso   1.000  O
  O3       1.0000 0.11910  0.95358  0.79388  Biso   1.000  O
  O4       1.0000 0.38090  0.95358  0.20612  Biso   1.000  O
  O5       1.0000 0.38090  0.54642  0.70612  Biso   1.000  O
  O6       1.0000 0.11910  0.54642  0.29388  Biso   1.000  O
  O7       1.0000 0.88090  0.04642  0.20612  Biso   1.000  O
  O8       1.0000 0.61910  0.04642  0.79388  Biso   1.000  O
  O9       1.0000 0.78360  0.74680  0.49590  Biso   1.000  O
  O10      1.0000 0.71640  0.74680  0.50410  Biso   1.000  O
  O11      1.0000 0.28360  0.24680  0.99590  Biso   1.000  O
  O12      1.0000 0.21640  0.24680  0.00410  Biso   1.000  O
  O13      1.0000 0.21640  0.25320  0.50410  Biso   1.000  O
  O14      1.0000 0.28360  0.25320  0.49590  Biso   1.000  O
  O15      1.0000 0.71640  0.75320  0.00410  Biso   1.000  O
  O16      1.0000 0.78360  0.75320  0.99590  Biso   1.000  O
  N1       1.0000 0.47490  0.10880  0.36441  Biso   1.000  N
  N2       1.0000 0.02510  0.10880  0.63559  Biso   1.000  N
  N3       1.0000 0.97490  0.60880  0.86441  Biso   1.000  N
  N4       1.0000 0.52510  0.60880  0.13559  Biso   1.000  N
  N5       1.0000 0.52510  0.89120  0.63559  Biso   1.000  N
  N6       1.0000 0.97490  0.89120  0.36441  Biso   1.000  N
  N7       1.0000 0.02510  0.39120  0.13559  Biso   1.000  N
  N8       1.0000 0.47490  0.39120  0.86441  Biso   1.000  N
  N9       1.0000 0.56380  0.10237  0.54524  Biso   1.000  N
  N10      1.0000 0.93620  0.10237  0.45476  Biso   1.000  N
  N11      1.0000 0.06380  0.60237  0.04524  Biso   1.000  N
  N12      1.0000 0.43620  0.60237  0.95476  Biso   1.000  N
  N13      1.0000 0.43620  0.89763  0.45476  Biso   1.000  N
  N14      1.0000 0.06380  0.89763  0.54524  Biso   1.000  N
  N15      1.0000 0.93620  0.39763  0.95476  Biso   1.000  N
  N16      1.0000 0.56380  0.39763  0.04524  Biso   1.000  N
  N17      1.0000 0.35520  0.01059  0.54185  Biso   1.000  N
  N18      1.0000 0.14480  0.01059  0.45815  Biso   1.000  N
  N19      1.0000 0.85520  0.51059  0.04185  Biso   1.000  N
  N20      1.0000 0.64480  0.51059  0.95815  Biso   1.000  N
  N21      1.0000 0.64480  0.98941  0.45815  Biso   1.000  N
  N22      1.0000 0.85520  0.98941  0.54185  Biso   1.000  N
  N23      1.0000 0.14480  0.48941  0.95815  Biso   1.000  N
  N24      1.0000 0.35520  0.48941  0.04185  Biso   1.000  N
  C1       1.0000 0.60500  0.50250  0.41440  Biso   1.000  C
  C2       1.0000 0.89500  0.50250  0.58560  Biso   1.000  C
  C3       1.0000 0.10500  0.00250  0.91440  Biso   1.000  C
  C4       1.0000 0.39500  0.00250  0.08560  Biso   1.000  C
  C5       1.0000 0.39500  0.49750  0.58560  Biso   1.000  C
  C6       1.0000 0.10500  0.49750  0.41440  Biso   1.000  C
  C7       1.0000 0.89500  0.99750  0.08560  Biso   1.000  C
  C8       1.0000 0.60500  0.99750  0.91440  Biso   1.000  C
  N25      1.0000 0.62500  0.59100  0.42730  Biso   1.000  N
  N26      1.0000 0.87500  0.59100  0.57270  Biso   1.000  N
  N27      1.0000 0.12500  0.09100  0.92730  Biso   1.000  N
  N28      1.0000 0.37500  0.09100  0.07270  Biso   1.000  N
  N29      1.0000 0.37500  0.40900  0.57270  Biso   1.000  N
  N30      1.0000 0.12500  0.40900  0.42730  Biso   1.000  N
  N31      1.0000 0.87500  0.90900  0.07270  Biso   1.000  N
  N32      1.0000 0.62500  0.90900  0.92730  Biso   1.000  N
  N33      1.0000 0.58420  0.23370  0.20694  Biso   1.000  N
  N34      1.0000 0.91580  0.23370  0.79306  Biso   1.000  N
  N35      1.0000 0.08420  0.73370  0.70694  Biso   1.000  N
  N36      1.0000 0.41580  0.73370  0.29306  Biso   1.000  N
  N37      1.0000 0.41580  0.76630  0.79306  Biso   1.000  N
  N38      1.0000 0.08420  0.76630  0.20694  Biso   1.000  N
  N39      1.0000 0.91580  0.26630  0.29306  Biso   1.000  N
  N40      1.0000 0.58420  0.26630  0.70694  Biso   1.000  N
  N41      1.0000 0.67800  0.23585  0.44993  Biso   1.000  N
  N42      1.0000 0.82200  0.23585  0.55007  Biso   1.000  N
  N43      1.0000 0.17800  0.73585  0.94993  Biso   1.000  N
  N44      1.0000 0.32200  0.73585  0.05007  Biso   1.000  N
  N45      1.0000 0.32200  0.76415  0.55007  Biso   1.000  N
  N46      1.0000 0.17800  0.76415  0.44993  Biso   1.000  N
  N47      1.0000 0.82200  0.26415  0.05007  Biso   1.000  N
  N48      1.0000 0.67800  0.26415  0.94993  Biso   1.000  N
  C9       1.0000 0.31530  0.06810  0.58453  Biso   1.000  C
  C10      1.0000 0.18470  0.06810  0.41547  Biso   1.000  C
  C11      1.0000 0.81530  0.56810  0.08453  Biso   1.000  C
  C12      1.0000 0.68470  0.56810  0.91547  Biso   1.000  C
  C13      1.0000 0.68470  0.93190  0.41547  Biso   1.000  C
  C14      1.0000 0.81530  0.93190  0.58453  Biso   1.000  C
  C15      1.0000 0.18470  0.43190  0.91547  Biso   1.000  C
  C16      1.0000 0.31530  0.43190  0.08453  Biso   1.000  C
  C17      1.0000 0.64970  0.30520  0.42086  Biso   1.000  C
  C18      1.0000 0.85030  0.30520  0.57914  Biso   1.000  C
  C19      1.0000 0.14970  0.80520  0.92086  Biso   1.000  C
  C20      1.0000 0.35030  0.80520  0.07914  Biso   1.000  C
  C21      1.0000 0.35030  0.69480  0.57914  Biso   1.000  C
  C22      1.0000 0.14970  0.69480  0.42086  Biso   1.000  C
  C23      1.0000 0.85030  0.19480  0.07914  Biso   1.000  C
  C24      1.0000 0.64970  0.19480  0.92086  Biso   1.000  C
  C25      1.0000 0.52090  0.15920  0.58860  Biso   1.000  C
  C26      1.0000 0.97910  0.15920  0.41140  Biso   1.000  C
  C27      1.0000 0.02090  0.65920  0.08860  Biso   1.000  C
  C28      1.0000 0.47910  0.65920  0.91140  Biso   1.000  C
  C29      1.0000 0.47910  0.84080  0.41140  Biso   1.000  C
  C30      1.0000 0.02090  0.84080  0.58860  Biso   1.000  C
  C31      1.0000 0.97910  0.34080  0.91140  Biso   1.000  C
  C32      1.0000 0.52090  0.34080  0.08860  Biso   1.000  C
  C33      1.0000 0.61940  0.39200  0.38541  Biso   1.000  C
  C34      1.0000 0.88060  0.39200  0.61459  Biso   1.000  C
  C35      1.0000 0.11940  0.89200  0.88541  Biso   1.000  C
  C36      1.0000 0.38060  0.89200  0.11459  Biso   1.000  C
  C37      1.0000 0.38060  0.60800  0.61459  Biso   1.000  C
  C38      1.0000 0.11940  0.60800  0.38541  Biso   1.000  C
  C39      1.0000 0.88060  0.10800  0.11459  Biso   1.000  C
  C40      1.0000 0.61940  0.10800  0.88541  Biso   1.000  C
  C41      1.0000 0.60350  0.37170  0.33029  Biso   1.000  C
  C42      1.0000 0.89650  0.37170  0.66971  Biso   1.000  C
  C43      1.0000 0.10350  0.87170  0.83029  Biso   1.000  C
  C44      1.0000 0.39650  0.87170  0.16971  Biso   1.000  C
  C45      1.0000 0.39650  0.62830  0.66971  Biso   1.000  C
  C46      1.0000 0.10350  0.62830  0.33029  Biso   1.000  C
  C47      1.0000 0.89650  0.12830  0.16971  Biso   1.000  C
  C48      1.0000 0.60350  0.12830  0.83029  Biso   1.000  C
  C49      1.0000 0.51690  0.18110  0.33968  Biso   1.000  C
  C50      1.0000 0.98310  0.18110  0.66032  Biso   1.000  C
  C51      1.0000 0.01690  0.68110  0.83968  Biso   1.000  C
  C52      1.0000 0.48310  0.68110  0.16032  Biso   1.000  C
  C53      1.0000 0.48310  0.81890  0.66032  Biso   1.000  C
  C54      1.0000 0.01690  0.81890  0.33968  Biso   1.000  C
  C55      1.0000 0.98310  0.31890  0.16032  Biso   1.000  C
  C56      1.0000 0.51690  0.31890  0.83968  Biso   1.000  C
  C57      1.0000 0.57900  0.25100  0.25193  Biso   1.000  C
  C58      1.0000 0.92100  0.25100  0.74807  Biso   1.000  C
  C59      1.0000 0.07900  0.75100  0.75193  Biso   1.000  C
  C60      1.0000 0.42100  0.75100  0.24807  Biso   1.000  C
  C61      1.0000 0.42100  0.74900  0.74807  Biso   1.000  C
  C62      1.0000 0.07900  0.74900  0.25193  Biso   1.000  C
  C63      1.0000 0.92100  0.24900  0.24807  Biso   1.000  C
  C64      1.0000 0.57900  0.24900  0.75193  Biso   1.000  C
  C65      1.0000 0.56920  0.27040  0.30829  Biso   1.000  C
  C66      1.0000 0.93080  0.27040  0.69171  Biso   1.000  C
  C67      1.0000 0.06920  0.77040  0.80829  Biso   1.000  C
  C68      1.0000 0.43080  0.77040  0.19171  Biso   1.000  C
  C69      1.0000 0.43080  0.72960  0.69171  Biso   1.000  C
  C70      1.0000 0.06920  0.72960  0.30829  Biso   1.000  C
  C71      1.0000 0.93080  0.22960  0.19171  Biso   1.000  C
  C72      1.0000 0.56920  0.22960  0.80829  Biso   1.000  C
  C73      1.0000 0.72260  0.53600  0.29950  Biso   1.000  C
  C74      1.0000 0.77740  0.53600  0.70050  Biso   1.000  C
  C75      1.0000 0.22260  0.03600  0.79950  Biso   1.000  C
  C76      1.0000 0.27740  0.03600  0.20050  Biso   1.000  C
  C77      1.0000 0.27740  0.46400  0.70050  Biso   1.000  C
  C78      1.0000 0.22260  0.46400  0.29950  Biso   1.000  C
  C79      1.0000 0.77740  0.96400  0.20050  Biso   1.000  C
  C80      1.0000 0.72260  0.96400  0.79950  Biso   1.000  C
  C81      1.0000 0.77280  0.56410  0.24570  Biso   1.000  C
  C82      1.0000 0.72720  0.56410  0.75430  Biso   1.000  C
  C83      1.0000 0.27280  0.06410  0.74570  Biso   1.000  C
  C84      1.0000 0.22720  0.06410  0.25430  Biso   1.000  C
  C85      1.0000 0.22720  0.43590  0.75430  Biso   1.000  C
  C86      1.0000 0.27280  0.43590  0.24570  Biso   1.000  C
  C87      1.0000 0.72720  0.93590  0.25430  Biso   1.000  C
  C88      1.0000 0.77280  0.93590  0.74570  Biso   1.000  C
  C89      1.0000 0.47750  0.03094  0.52391  Biso   1.000  C
  C90      1.0000 0.02250  0.03094  0.47609  Biso   1.000  C
  C91      1.0000 0.97750  0.53094  0.02391  Biso   1.000  C
  C92      1.0000 0.52250  0.53094  0.97609  Biso   1.000  C
  C93      1.0000 0.52250  0.96906  0.47609  Biso   1.000  C
  C94      1.0000 0.97750  0.96906  0.52391  Biso   1.000  C
  C95      1.0000 0.02250  0.46906  0.97609  Biso   1.000  C
  C96      1.0000 0.47750  0.46906  0.02391  Biso   1.000  C
  C97      1.0000 0.39610  0.14390  0.60904  Biso   1.000  C
  C98      1.0000 0.10390  0.14390  0.39096  Biso   1.000  C
  C99      1.0000 0.89610  0.64390  0.10904  Biso   1.000  C
  C100     1.0000 0.60390  0.64390  0.89096  Biso   1.000  C
  C101     1.0000 0.60390  0.85610  0.39096  Biso   1.000  C
  C102     1.0000 0.89610  0.85610  0.60904  Biso   1.000  C
  C103     1.0000 0.10390  0.35610  0.89096  Biso   1.000  C
  C104     1.0000 0.39610  0.35610  0.10904  Biso   1.000  C
  H1       1.0000 0.78200  0.51100  0.32400  Biso   1.000  H
  H2       1.0000 0.71800  0.51100  0.67600  Biso   1.000  H
  H3       1.0000 0.28200  0.01100  0.82400  Biso   1.000  H
  H4       1.0000 0.21800  0.01100  0.17600  Biso   1.000  H
  H5       1.0000 0.21800  0.48900  0.67600  Biso   1.000  H
  H6       1.0000 0.28200  0.48900  0.32400  Biso   1.000  H
  H7       1.0000 0.71800  0.98900  0.17600  Biso   1.000  H
  H8       1.0000 0.78200  0.98900  0.82400  Biso   1.000  H
  H9       1.0000 0.22900  0.05200  0.59490  Biso   1.000  H
  H10      1.0000 0.27100  0.05200  0.40510  Biso   1.000  H
  H11      1.0000 0.72900  0.55200  0.09490  Biso   1.000  H
  H12      1.0000 0.77100  0.55200  0.90510  Biso   1.000  H
  H13      1.0000 0.77100  0.94800  0.40510  Biso   1.000  H
  H14      1.0000 0.72900  0.94800  0.59490  Biso   1.000  H
  H15      1.0000 0.27100  0.44800  0.90510  Biso   1.000  H
  H16      1.0000 0.22900  0.44800  0.09490  Biso   1.000  H
  H17      1.0000 0.68100  0.60000  0.31900  Biso   1.000  H
  H18      1.0000 0.81900  0.60000  0.68100  Biso   1.000  H
  H19      1.0000 0.18100  0.10000  0.81900  Biso   1.000  H
  H20      1.0000 0.31900  0.10000  0.18100  Biso   1.000  H
  H21      1.0000 0.31900  0.40000  0.68100  Biso   1.000  H
  H22      1.0000 0.18100  0.40000  0.31900  Biso   1.000  H
  H23      1.0000 0.81900  0.90000  0.18100  Biso   1.000  H
  H24      1.0000 0.68100  0.90000  0.81900  Biso   1.000  H
  H25      1.0000 0.36900  0.18000  0.63730  Biso   1.000  H
  H26      1.0000 0.13100  0.18000  0.36270  Biso   1.000  H
  H27      1.0000 0.86900  0.68000  0.13730  Biso   1.000  H
  H28      1.0000 0.63100  0.68000  0.86270  Biso   1.000  H
  H29      1.0000 0.63100  0.82000  0.36270  Biso   1.000  H
  H30      1.0000 0.86900  0.82000  0.63730  Biso   1.000  H
  H31      1.0000 0.13100  0.32000  0.86270  Biso   1.000  H
  H32      1.0000 0.36900  0.32000  0.13730  Biso   1.000  H
  H33      1.0000 0.78600  0.63600  0.26300  Biso   1.000  H
  H34      1.0000 0.71400  0.63600  0.73700  Biso   1.000  H
  H35      1.0000 0.28600  0.13600  0.76300  Biso   1.000  H
  H36      1.0000 0.21400  0.13600  0.23700  Biso   1.000  H
  H37      1.0000 0.21400  0.36400  0.73700  Biso   1.000  H
  H38      1.0000 0.28600  0.36400  0.26300  Biso   1.000  H
  H39      1.0000 0.71400  0.86400  0.23700  Biso   1.000  H
  H40      1.0000 0.78600  0.86400  0.76300  Biso   1.000  H
  H41      1.0000 0.79900  0.46600  0.23500  Biso   1.000  H
  H42      1.0000 0.70100  0.46600  0.76500  Biso   1.000  H
  H43      1.0000 0.29900  0.96600  0.73500  Biso   1.000  H
  H44      1.0000 0.20100  0.96600  0.26500  Biso   1.000  H
  H45      1.0000 0.20100  0.53400  0.76500  Biso   1.000  H
  H46      1.0000 0.29900  0.53400  0.23500  Biso   1.000  H
  H47      1.0000 0.70100  0.03400  0.26500  Biso   1.000  H
  H48      1.0000 0.79900  0.03400  0.73500  Biso   1.000  H
  H49      1.0000 0.70600  0.58500  0.22200  Biso   1.000  H
  H50      1.0000 0.79400  0.58500  0.77800  Biso   1.000  H
  H51      1.0000 0.20600  0.08500  0.72200  Biso   1.000  H
  H52      1.0000 0.29400  0.08500  0.27800  Biso   1.000  H
  H53      1.0000 0.29400  0.41500  0.77800  Biso   1.000  H
  H54      1.0000 0.20600  0.41500  0.22200  Biso   1.000  H
  H55      1.0000 0.79400  0.91500  0.27800  Biso   1.000  H
  H56      1.0000 0.70600  0.91500  0.72200  Biso   1.000  H
  H57      1.0000 0.58000  0.20600  0.60280  Biso   1.000  H
  H58      1.0000 0.92000  0.20600  0.39720  Biso   1.000  H
  H59      1.0000 0.08000  0.70600  0.10280  Biso   1.000  H
  H60      1.0000 0.42000  0.70600  0.89720  Biso   1.000  H
  H61      1.0000 0.42000  0.79400  0.39720  Biso   1.000  H
  H62      1.0000 0.08000  0.79400  0.60280  Biso   1.000  H
  H63      1.0000 0.92000  0.29400  0.89720  Biso   1.000  H
  H64      1.0000 0.58000  0.29400  0.10280  Biso   1.000  H
  C105     1.0000 0.60600  0.49400  0.39840  Biso   1.000  C
  C106     1.0000 0.89400  0.49400  0.60160  Biso   1.000  C
  C107     1.0000 0.10600  0.99400  0.89840  Biso   1.000  C
  C108     1.0000 0.39400  0.99400  0.10160  Biso   1.000  C
  C109     1.0000 0.39400  0.50600  0.60160  Biso   1.000  C
  C110     1.0000 0.10600  0.50600  0.39840  Biso   1.000  C
  C111     1.0000 0.89400  0.00600  0.10160  Biso   1.000  C
  C112     1.0000 0.60600  0.00600  0.89840  Biso   1.000  C
  N49      1.0000 0.56800  0.58000  0.42570  Biso   1.000  N
  N50      1.0000 0.93200  0.58000  0.57430  Biso   1.000  N
  N51      1.0000 0.06800  0.08000  0.92570  Biso   1.000  N
  N52      1.0000 0.43200  0.08000  0.07430  Biso   1.000  N
  N53      1.0000 0.43200  0.42000  0.57430  Biso   1.000  N
  N54      1.0000 0.06800  0.42000  0.42570  Biso   1.000  N
  N55      1.0000 0.93200  0.92000  0.07430  Biso   1.000  N
  N56      1.0000 0.56800  0.92000  0.92570  Biso   1.000  N
  O17      1.0000 0.83840  0.74060  0.48290  Biso   1.000  O
  O18      1.0000 0.66160  0.74060  0.51710  Biso   1.000  O
  O19      1.0000 0.33840  0.24060  0.98290  Biso   1.000  O
  O20      1.0000 0.16160  0.24060  0.01710  Biso   1.000  O
  O21      1.0000 0.16160  0.25940  0.51710  Biso   1.000  O
  O22      1.0000 0.33840  0.25940  0.48290  Biso   1.000  O
  O23      1.0000 0.66160  0.75940  0.01710  Biso   1.000  O
  O24      1.0000 0.83840  0.75940  0.98290  Biso   1.000  O
