data_image0
_cell_length_a       10.14
_cell_length_b       11.805
_cell_length_c       14.531
_cell_angle_alpha    66.091
_cell_angle_beta     70.285
_cell_angle_gamma    87.905

_symmetry_space_group_name_H-M    "P 1"
_symmetry_int_tables_number       1

loop_
  _symmetry_equiv_pos_as_xyz
  'x, y, z'

loop_
  _atom_site_label
  _atom_site_occupancy
  _atom_site_fract_x
  _atom_site_fract_y
  _atom_site_fract_z
  _atom_site_thermal_displace_type
  _atom_site_B_iso_or_equiv
  _atom_site_type_symbol
  Cu1      1.0000 0.75813  0.38294  0.99907  Biso   1.000  Cu
  Cu2      1.0000 0.24187  0.61706  0.00093  Biso   1.000  Cu
  N1       1.0000 0.99100  0.44870  0.90130  Biso   1.000  N
  N2       1.0000 0.00900  0.55130  0.09870  Biso   1.000  N
  N3       1.0000 0.68540  0.54760  0.92050  Biso   1.000  N
  N4       1.0000 0.31460  0.45240  0.07950  Biso   1.000  N
  N5       1.0000 0.90040  0.24870  0.27550  Biso   1.000  N
  N6       1.0000 0.09960  0.75130  0.72450  Biso   1.000  N
  O1       1.0000 0.66850  0.84220  0.41860  Biso   1.000  O
  O2       1.0000 0.33150  0.15780  0.58140  Biso   1.000  O
  O3       1.0000 0.86240  0.26750  0.57130  Biso   1.000  O
  O4       1.0000 0.13760  0.73250  0.42870  Biso   1.000  O
  N7       1.0000 0.60240  0.51980  0.73500  Biso   1.000  N
  N8       1.0000 0.39760  0.48020  0.26500  Biso   1.000  N
  N9       1.0000 0.48220  0.65130  0.90790  Biso   1.000  N
  N10      1.0000 0.51780  0.34870  0.09210  Biso   1.000  N
  N11      1.0000 0.78370  0.21430  0.09810  Biso   1.000  N
  N12      1.0000 0.21630  0.78570  0.90190  Biso   1.000  N
  C1       1.0000 0.75670  0.27630  0.83490  Biso   1.000  C
  C2       1.0000 0.24330  0.72370  0.16510  Biso   1.000  C
  N13      1.0000 0.74200  0.31520  0.89800  Biso   1.000  N
  N14      1.0000 0.25800  0.68480  0.10200  Biso   1.000  N
  C3       1.0000 0.71020  0.75310  0.78560  Biso   1.000  C
  C4       1.0000 0.28980  0.24690  0.21440  Biso   1.000  C
  H1       1.0000 0.76860  0.82450  0.72690  Biso   1.000  H
  H2       1.0000 0.23140  0.17550  0.27310  Biso   1.000  H
  N15      1.0000 0.61030  0.98920  0.59080  Biso   1.000  N
  N16      1.0000 0.38970  0.01080  0.40920  Biso   1.000  N
  C5       1.0000 0.78220  0.11300  0.15940  Biso   1.000  C
  C6       1.0000 0.21780  0.88700  0.84060  Biso   1.000  C
  N17      1.0000 0.86860  0.57820  0.41220  Biso   1.000  N
  N18      1.0000 0.13140  0.42180  0.58780  Biso   1.000  N
  C7       1.0000 0.22150  0.47980  0.77250  Biso   1.000  C
  C8       1.0000 0.77850  0.52020  0.22750  Biso   1.000  C
  H3       1.0000 0.28310  0.47310  0.70960  Biso   1.000  H
  H4       1.0000 0.71690  0.52690  0.29040  Biso   1.000  H
  C9       1.0000 0.27120  0.52990  0.82720  Biso   1.000  C
  C10      1.0000 0.72880  0.47010  0.17280  Biso   1.000  C
  H5       1.0000 0.36870  0.55860  0.80110  Biso   1.000  H
  H6       1.0000 0.63130  0.44140  0.19890  Biso   1.000  H
  C11      1.0000 0.77490  0.98970  0.23260  Biso   1.000  C
  C12      1.0000 0.22510  0.01030  0.76740  Biso   1.000  C
  N19      1.0000 0.85950  0.83310  0.14860  Biso   1.000  N
  N20      1.0000 0.14050  0.16690  0.85140  Biso   1.000  N
  C13      1.0000 0.07940  0.43990  0.81230  Biso   1.000  C
  C14      1.0000 0.92060  0.56010  0.18770  Biso   1.000  C
  H7       1.0000 0.04290  0.40520  0.77590  Biso   1.000  H
  H8       1.0000 0.95710  0.59480  0.22410  Biso   1.000  H
  C15      1.0000 0.56610  0.75070  0.82290  Biso   1.000  C
  C16      1.0000 0.43390  0.24930  0.17710  Biso   1.000  C
  H9       1.0000 0.52450  0.82100  0.78790  Biso   1.000  H
  H10      1.0000 0.47550  0.17900  0.21210  Biso   1.000  H
  C17      1.0000 0.54720  0.55460  0.95250  Biso   1.000  C
  C18      1.0000 0.45280  0.44540  0.04750  Biso   1.000  C
  C19      1.0000 0.67760  0.47770  0.68150  Biso   1.000  C
  C20      1.0000 0.32240  0.52230  0.31850  Biso   1.000  C
  C21      1.0000 0.04880  0.49630  0.94990  Biso   1.000  C
  C22      1.0000 0.95120  0.50370  0.05010  Biso   1.000  C
  C23      1.0000 0.80350  0.30650  0.64870  Biso   1.000  C
  C24      1.0000 0.19650  0.69350  0.35130  Biso   1.000  C
  C25      1.0000 0.66500  0.01060  0.50080  Biso   1.000  C
  C26      1.0000 0.33500  0.98940  0.49920  Biso   1.000  C
  C27      1.0000 0.72630  0.95790  0.34540  Biso   1.000  C
  C28      1.0000 0.27370  0.04210  0.65460  Biso   1.000  C
  C29      1.0000 0.77000  0.42850  0.61240  Biso   1.000  C
  C30      1.0000 0.23000  0.57150  0.38760  Biso   1.000  C
  C31      1.0000 0.82590  0.51040  0.50090  Biso   1.000  C
  C32      1.0000 0.17410  0.48960  0.49910  Biso   1.000  C
  C33      1.0000 0.76800  0.64760  0.83650  Biso   1.000  C
  C34      1.0000 0.23200  0.35240  0.16350  Biso   1.000  C
  H11      1.0000 0.86730  0.64620  0.81140  Biso   1.000  H
  H12      1.0000 0.13270  0.35380  0.18860  Biso   1.000  H
  N21      1.0000 0.76100  0.98710  0.83260  Biso   1.000  N
  N22      1.0000 0.23900  0.01290  0.16740  Biso   1.000  N
  C35      1.0000 0.82740  0.15630  0.32580  Biso   1.000  C
  C36      1.0000 0.17260  0.84370  0.67420  Biso   1.000  C
  C37      1.0000 0.58820  0.76560  0.39440  Biso   1.000  C
  C38      1.0000 0.41180  0.23440  0.60560  Biso   1.000  C
  H13      1.0000 0.65080  0.71610  0.36070  Biso   1.000  H
  H14      1.0000 0.34920  0.28390  0.63930  Biso   1.000  H
  H15      1.0000 0.54190  0.81860  0.34440  Biso   1.000  H
  H16      1.0000 0.45810  0.18140  0.65560  Biso   1.000  H
  C39      1.0000 0.77720  0.22620  0.75880  Biso   1.000  C
  C40      1.0000 0.22280  0.77380  0.24120  Biso   1.000  C
  C41      1.0000 0.82060  0.90200  0.18710  Biso   1.000  C
  C42      1.0000 0.17940  0.09800  0.81290  Biso   1.000  C
  C43      1.0000 0.96560  0.17690  0.58130  Biso   1.000  C
  C44      1.0000 0.03440  0.82310  0.41870  Biso   1.000  C
  H17      1.0000 0.91840  0.09090  0.61290  Biso   1.000  H
  H18      1.0000 0.08160  0.90910  0.38710  Biso   1.000  H
  H19      1.0000 0.01540  0.18250  0.62760  Biso   1.000  H
  H20      1.0000 0.98460  0.81750  0.37240  Biso   1.000  H
  C45      1.0000 0.73770  0.04100  0.38880  Biso   1.000  C
  C46      1.0000 0.26230  0.95900  0.61120  Biso   1.000  C
  C47      1.0000 0.47950  0.68070  0.49980  Biso   1.000  C
  C48      1.0000 0.52050  0.31930  0.50020  Biso   1.000  C
  H21      1.0000 0.42250  0.62690  0.48740  Biso   1.000  H
  H22      1.0000 0.57750  0.37310  0.51260  Biso   1.000  H
  H23      1.0000 0.41830  0.73090  0.53230  Biso   1.000  H
  H24      1.0000 0.58170  0.26910  0.46770  Biso   1.000  H
  H25      1.0000 0.52680  0.62900  0.54850  Biso   1.000  H
  H26      1.0000 0.47320  0.37100  0.45150  Biso   1.000  H
  C49      1.0000 0.76920  0.09430  0.79840  Biso   1.000  C
  C50      1.0000 0.23080  0.90570  0.20160  Biso   1.000  C
  C51      1.0000 0.06800  0.21090  0.46800  Biso   1.000  C
  C52      1.0000 0.93200  0.78910  0.53200  Biso   1.000  C
  H27      1.0000 0.14000  0.15320  0.46950  Biso   1.000  H
  H28      1.0000 0.86000  0.84680  0.53050  Biso   1.000  H
  H29      1.0000 0.11330  0.29630  0.43790  Biso   1.000  H
  H30      1.0000 0.88670  0.70370  0.56210  Biso   1.000  H
  H31      1.0000 0.01690  0.20520  0.42330  Biso   1.000  H
  H32      1.0000 0.98310  0.79480  0.57670  Biso   1.000  H
  O5       1.0000 0.82830  0.74980  0.98410  Biso   1.000  O
  O6       1.0000 0.17170  0.25020  0.01590  Biso   1.000  O
  N23      1.0000 0.18440  0.53890  0.91680  Biso   1.000  N
  N24      1.0000 0.81560  0.46110  0.08320  Biso   1.000  N
