data_image0
_cell_length_a       17.9174
_cell_length_b       17.9174
_cell_length_c       17.9174
_cell_angle_alpha    90
_cell_angle_beta     90
_cell_angle_gamma    90

_symmetry_space_group_name_H-M    "P 1"
_symmetry_int_tables_number       1

loop_
  _symmetry_equiv_pos_as_xyz
  'x, y, z'

loop_
  _atom_site_label
  _atom_site_occupancy
  _atom_site_fract_x
  _atom_site_fract_y
  _atom_site_fract_z
  _atom_site_thermal_displace_type
  _atom_site_B_iso_or_equiv
  _atom_site_type_symbol
  Cu1      1.0000 0.27407  0.23221  0.12756  Biso   1.000  Cu
  Cu2      1.0000 0.12756  0.27407  0.23221  Biso   1.000  Cu
  Cu3      1.0000 0.23221  0.12756  0.27407  Biso   1.000  Cu
  Cu4      1.0000 0.22593  0.76779  0.62756  Biso   1.000  Cu
  Cu5      1.0000 0.72593  0.73221  0.37244  Biso   1.000  Cu
  Cu6      1.0000 0.77407  0.26779  0.87244  Biso   1.000  Cu
  Cu7      1.0000 0.62756  0.22593  0.76779  Biso   1.000  Cu
  Cu8      1.0000 0.37244  0.72593  0.73221  Biso   1.000  Cu
  Cu9      1.0000 0.87244  0.77407  0.26779  Biso   1.000  Cu
  Cu10     1.0000 0.76779  0.62756  0.22593  Biso   1.000  Cu
  Cu11     1.0000 0.73221  0.37244  0.72593  Biso   1.000  Cu
  Cu12     1.0000 0.26779  0.87244  0.77407  Biso   1.000  Cu
  Cu13     1.0000 0.72593  0.76779  0.87244  Biso   1.000  Cu
  Cu14     1.0000 0.87244  0.72593  0.76779  Biso   1.000  Cu
  Cu15     1.0000 0.76779  0.87244  0.72593  Biso   1.000  Cu
  Cu16     1.0000 0.77407  0.23221  0.37244  Biso   1.000  Cu
  Cu17     1.0000 0.27407  0.26779  0.62756  Biso   1.000  Cu
  Cu18     1.0000 0.22593  0.73221  0.12756  Biso   1.000  Cu
  Cu19     1.0000 0.37244  0.77407  0.23221  Biso   1.000  Cu
  Cu20     1.0000 0.62756  0.27407  0.26779  Biso   1.000  Cu
  Cu21     1.0000 0.12756  0.22593  0.73221  Biso   1.000  Cu
  Cu22     1.0000 0.23221  0.37244  0.77407  Biso   1.000  Cu
  Cu23     1.0000 0.26779  0.62756  0.27407  Biso   1.000  Cu
  Cu24     1.0000 0.73221  0.12756  0.22593  Biso   1.000  Cu
  S1       1.0000 0.28856  0.28856  0.28856  Biso   1.000  S
  S2       1.0000 0.21144  0.71144  0.78856  Biso   1.000  S
  S3       1.0000 0.71144  0.78856  0.21144  Biso   1.000  S
  S4       1.0000 0.78856  0.21144  0.71144  Biso   1.000  S
  S5       1.0000 0.71144  0.71144  0.71144  Biso   1.000  S
  S6       1.0000 0.78856  0.28856  0.21144  Biso   1.000  S
  S7       1.0000 0.28856  0.21144  0.78856  Biso   1.000  S
  S8       1.0000 0.21144  0.78856  0.28856  Biso   1.000  S
  O1       1.0000 0.28160  0.07780  0.04220  Biso   1.000  O
  O2       1.0000 0.04220  0.28160  0.07780  Biso   1.000  O
  O3       1.0000 0.07780  0.04220  0.28160  Biso   1.000  O
  O4       1.0000 0.21840  0.92220  0.54220  Biso   1.000  O
  O5       1.0000 0.71840  0.57780  0.45780  Biso   1.000  O
  O6       1.0000 0.78160  0.42220  0.95780  Biso   1.000  O
  O7       1.0000 0.54220  0.21840  0.92220  Biso   1.000  O
  O8       1.0000 0.45780  0.71840  0.57780  Biso   1.000  O
  O9       1.0000 0.95780  0.78160  0.42220  Biso   1.000  O
  O10      1.0000 0.92220  0.54220  0.21840  Biso   1.000  O
  O11      1.0000 0.57780  0.45780  0.71840  Biso   1.000  O
  O12      1.0000 0.42220  0.95780  0.78160  Biso   1.000  O
  O13      1.0000 0.71840  0.92220  0.95780  Biso   1.000  O
  O14      1.0000 0.95780  0.71840  0.92220  Biso   1.000  O
  O15      1.0000 0.92220  0.95780  0.71840  Biso   1.000  O
  O16      1.0000 0.78160  0.07780  0.45780  Biso   1.000  O
  O17      1.0000 0.28160  0.42220  0.54220  Biso   1.000  O
  O18      1.0000 0.21840  0.57780  0.04220  Biso   1.000  O
  O19      1.0000 0.45780  0.78160  0.07780  Biso   1.000  O
  O20      1.0000 0.54220  0.28160  0.42220  Biso   1.000  O
  O21      1.0000 0.04220  0.21840  0.57780  Biso   1.000  O
  O22      1.0000 0.07780  0.45780  0.78160  Biso   1.000  O
  O23      1.0000 0.42220  0.54220  0.28160  Biso   1.000  O
  O24      1.0000 0.57780  0.04220  0.21840  Biso   1.000  O
  O25      1.0000 0.22620  0.18670  0.04220  Biso   1.000  O
  O26      1.0000 0.04220  0.22620  0.18670  Biso   1.000  O
  O27      1.0000 0.18670  0.04220  0.22620  Biso   1.000  O
  O28      1.0000 0.27380  0.81330  0.54220  Biso   1.000  O
  O29      1.0000 0.77380  0.68670  0.45780  Biso   1.000  O
  O30      1.0000 0.72620  0.31330  0.95780  Biso   1.000  O
  O31      1.0000 0.54220  0.27380  0.81330  Biso   1.000  O
  O32      1.0000 0.45780  0.77380  0.68670  Biso   1.000  O
  O33      1.0000 0.95780  0.72620  0.31330  Biso   1.000  O
  O34      1.0000 0.81330  0.54220  0.27380  Biso   1.000  O
  O35      1.0000 0.68670  0.45780  0.77380  Biso   1.000  O
  O36      1.0000 0.31330  0.95780  0.72620  Biso   1.000  O
  O37      1.0000 0.77380  0.81330  0.95780  Biso   1.000  O
  O38      1.0000 0.95780  0.77380  0.81330  Biso   1.000  O
  O39      1.0000 0.81330  0.95780  0.77380  Biso   1.000  O
  O40      1.0000 0.72620  0.18670  0.45780  Biso   1.000  O
  O41      1.0000 0.22620  0.31330  0.54220  Biso   1.000  O
  O42      1.0000 0.27380  0.68670  0.04220  Biso   1.000  O
  O43      1.0000 0.45780  0.72620  0.18670  Biso   1.000  O
  O44      1.0000 0.54220  0.22620  0.31330  Biso   1.000  O
  O45      1.0000 0.04220  0.27380  0.68670  Biso   1.000  O
  O46      1.0000 0.18670  0.45780  0.72620  Biso   1.000  O
  O47      1.0000 0.31330  0.54220  0.22620  Biso   1.000  O
  O48      1.0000 0.68670  0.04220  0.27380  Biso   1.000  O
  O49      1.0000 0.19413  0.19413  0.19413  Biso   1.000  O
  O50      1.0000 0.30587  0.80587  0.69413  Biso   1.000  O
  O51      1.0000 0.80587  0.69413  0.30587  Biso   1.000  O
  O52      1.0000 0.69413  0.30587  0.80587  Biso   1.000  O
  O53      1.0000 0.80587  0.80587  0.80587  Biso   1.000  O
  O54      1.0000 0.69413  0.19413  0.30587  Biso   1.000  O
  O55      1.0000 0.19413  0.30587  0.69413  Biso   1.000  O
  O56      1.0000 0.30587  0.69413  0.19413  Biso   1.000  O
  H1       1.0000 0.16750  0.16750  0.16750  Biso   1.000  H
  H2       1.0000 0.33250  0.83250  0.66750  Biso   1.000  H
  H3       1.0000 0.83250  0.66750  0.33250  Biso   1.000  H
  H4       1.0000 0.66750  0.33250  0.83250  Biso   1.000  H
  H5       1.0000 0.83250  0.83250  0.83250  Biso   1.000  H
  H6       1.0000 0.66750  0.16750  0.33250  Biso   1.000  H
  H7       1.0000 0.16750  0.33250  0.66750  Biso   1.000  H
  H8       1.0000 0.33250  0.66750  0.16750  Biso   1.000  H
  O57      1.0000 0.31804  0.28862  0.21105  Biso   1.000  O
  O58      1.0000 0.21105  0.31804  0.28862  Biso   1.000  O
  O59      1.0000 0.28862  0.21105  0.31804  Biso   1.000  O
  O60      1.0000 0.18196  0.71138  0.71105  Biso   1.000  O
  O61      1.0000 0.68196  0.78862  0.28895  Biso   1.000  O
  O62      1.0000 0.81804  0.21138  0.78895  Biso   1.000  O
  O63      1.0000 0.71105  0.18196  0.71138  Biso   1.000  O
  O64      1.0000 0.28895  0.68196  0.78862  Biso   1.000  O
  O65      1.0000 0.78895  0.81804  0.21138  Biso   1.000  O
  O66      1.0000 0.71138  0.71105  0.18196  Biso   1.000  O
  O67      1.0000 0.78862  0.28895  0.68196  Biso   1.000  O
  O68      1.0000 0.21138  0.78895  0.81804  Biso   1.000  O
  O69      1.0000 0.68196  0.71138  0.78895  Biso   1.000  O
  O70      1.0000 0.78895  0.68196  0.71138  Biso   1.000  O
  O71      1.0000 0.71138  0.78895  0.68196  Biso   1.000  O
  O72      1.0000 0.81804  0.28862  0.28895  Biso   1.000  O
  O73      1.0000 0.31804  0.21138  0.71105  Biso   1.000  O
  O74      1.0000 0.18196  0.78862  0.21105  Biso   1.000  O
  O75      1.0000 0.28895  0.81804  0.28862  Biso   1.000  O
  O76      1.0000 0.71105  0.31804  0.21138  Biso   1.000  O
  O77      1.0000 0.21105  0.18196  0.78862  Biso   1.000  O
  O78      1.0000 0.28862  0.28895  0.81804  Biso   1.000  O
  O79      1.0000 0.21138  0.71105  0.31804  Biso   1.000  O
  O80      1.0000 0.78862  0.21105  0.18196  Biso   1.000  O
  O81      1.0000 0.33517  0.33517  0.33517  Biso   1.000  O
  O82      1.0000 0.16483  0.66483  0.83517  Biso   1.000  O
  O83      1.0000 0.66483  0.83517  0.16483  Biso   1.000  O
  O84      1.0000 0.83517  0.16483  0.66483  Biso   1.000  O
  O85      1.0000 0.66483  0.66483  0.66483  Biso   1.000  O
  O86      1.0000 0.83517  0.33517  0.16483  Biso   1.000  O
  O87      1.0000 0.33517  0.16483  0.83517  Biso   1.000  O
  O88      1.0000 0.16483  0.83517  0.33517  Biso   1.000  O
  N1       1.0000 0.23180  0.93820  0.85710  Biso   1.000  N
  N2       1.0000 0.85710  0.23180  0.93820  Biso   1.000  N
  N3       1.0000 0.93820  0.85710  0.23180  Biso   1.000  N
  N4       1.0000 0.26820  0.06180  0.35710  Biso   1.000  N
  N5       1.0000 0.76820  0.43820  0.64290  Biso   1.000  N
  N6       1.0000 0.73180  0.56180  0.14290  Biso   1.000  N
  N7       1.0000 0.35710  0.26820  0.06180  Biso   1.000  N
  N8       1.0000 0.64290  0.76820  0.43820  Biso   1.000  N
  N9       1.0000 0.14290  0.73180  0.56180  Biso   1.000  N
  N10      1.0000 0.06180  0.35710  0.26820  Biso   1.000  N
  N11      1.0000 0.43820  0.64290  0.76820  Biso   1.000  N
  N12      1.0000 0.56180  0.14290  0.73180  Biso   1.000  N
  N13      1.0000 0.76820  0.06180  0.14290  Biso   1.000  N
  N14      1.0000 0.14290  0.76820  0.06180  Biso   1.000  N
  N15      1.0000 0.06180  0.14290  0.76820  Biso   1.000  N
  N16      1.0000 0.73180  0.93820  0.64290  Biso   1.000  N
  N17      1.0000 0.23180  0.56180  0.35710  Biso   1.000  N
  N18      1.0000 0.26820  0.43820  0.85710  Biso   1.000  N
  N19      1.0000 0.64290  0.73180  0.93820  Biso   1.000  N
  N20      1.0000 0.35710  0.23180  0.56180  Biso   1.000  N
  N21      1.0000 0.85710  0.26820  0.43820  Biso   1.000  N
  N22      1.0000 0.93820  0.64290  0.73180  Biso   1.000  N
  N23      1.0000 0.56180  0.35710  0.23180  Biso   1.000  N
  N24      1.0000 0.43820  0.85710  0.26820  Biso   1.000  N
  N25      1.0000 0.19590  0.91180  0.91910  Biso   1.000  N
  N26      1.0000 0.91910  0.19590  0.91180  Biso   1.000  N
  N27      1.0000 0.91180  0.91910  0.19590  Biso   1.000  N
  N28      1.0000 0.30410  0.08820  0.41910  Biso   1.000  N
  N29      1.0000 0.80410  0.41180  0.58090  Biso   1.000  N
  N30      1.0000 0.69590  0.58820  0.08090  Biso   1.000  N
  N31      1.0000 0.41910  0.30410  0.08820  Biso   1.000  N
  N32      1.0000 0.58090  0.80410  0.41180  Biso   1.000  N
  N33      1.0000 0.08090  0.69590  0.58820  Biso   1.000  N
  N34      1.0000 0.08820  0.41910  0.30410  Biso   1.000  N
  N35      1.0000 0.41180  0.58090  0.80410  Biso   1.000  N
  N36      1.0000 0.58820  0.08090  0.69590  Biso   1.000  N
  N37      1.0000 0.80410  0.08820  0.08090  Biso   1.000  N
  N38      1.0000 0.08090  0.80410  0.08820  Biso   1.000  N
  N39      1.0000 0.08820  0.08090  0.80410  Biso   1.000  N
  N40      1.0000 0.69590  0.91180  0.58090  Biso   1.000  N
  N41      1.0000 0.19590  0.58820  0.41910  Biso   1.000  N
  N42      1.0000 0.30410  0.41180  0.91910  Biso   1.000  N
  N43      1.0000 0.58090  0.69590  0.91180  Biso   1.000  N
  N44      1.0000 0.41910  0.19590  0.58820  Biso   1.000  N
  N45      1.0000 0.91910  0.30410  0.41180  Biso   1.000  N
  N46      1.0000 0.91180  0.58090  0.69590  Biso   1.000  N
  N47      1.0000 0.58820  0.41910  0.19590  Biso   1.000  N
  N48      1.0000 0.41180  0.91910  0.30410  Biso   1.000  N
  N49      1.0000 0.17480  0.96650  0.96040  Biso   1.000  N
  N50      1.0000 0.96040  0.17480  0.96650  Biso   1.000  N
  N51      1.0000 0.96650  0.96040  0.17480  Biso   1.000  N
  N52      1.0000 0.32520  0.03350  0.46040  Biso   1.000  N
  N53      1.0000 0.82520  0.46650  0.53960  Biso   1.000  N
  N54      1.0000 0.67480  0.53350  0.03960  Biso   1.000  N
  N55      1.0000 0.46040  0.32520  0.03350  Biso   1.000  N
  N56      1.0000 0.53960  0.82520  0.46650  Biso   1.000  N
  N57      1.0000 0.03960  0.67480  0.53350  Biso   1.000  N
  N58      1.0000 0.03350  0.46040  0.32520  Biso   1.000  N
  N59      1.0000 0.46650  0.53960  0.82520  Biso   1.000  N
  N60      1.0000 0.53350  0.03960  0.67480  Biso   1.000  N
  N61      1.0000 0.82520  0.03350  0.03960  Biso   1.000  N
  N62      1.0000 0.03960  0.82520  0.03350  Biso   1.000  N
  N63      1.0000 0.03350  0.03960  0.82520  Biso   1.000  N
  N64      1.0000 0.67480  0.96650  0.53960  Biso   1.000  N
  N65      1.0000 0.17480  0.53350  0.46040  Biso   1.000  N
  N66      1.0000 0.32520  0.46650  0.96040  Biso   1.000  N
  N67      1.0000 0.53960  0.67480  0.96650  Biso   1.000  N
  N68      1.0000 0.46040  0.17480  0.53350  Biso   1.000  N
  N69      1.0000 0.96040  0.32520  0.46650  Biso   1.000  N
  N70      1.0000 0.96650  0.53960  0.67480  Biso   1.000  N
  N71      1.0000 0.53350  0.46040  0.17480  Biso   1.000  N
  N72      1.0000 0.46650  0.96040  0.32520  Biso   1.000  N
  N73      1.0000 0.19700  0.02950  0.92550  Biso   1.000  N
  N74      1.0000 0.92550  0.19700  0.02950  Biso   1.000  N
  N75      1.0000 0.02950  0.92550  0.19700  Biso   1.000  N
  N76      1.0000 0.30300  0.97050  0.42550  Biso   1.000  N
  N77      1.0000 0.80300  0.52950  0.57450  Biso   1.000  N
  N78      1.0000 0.69700  0.47050  0.07450  Biso   1.000  N
  N79      1.0000 0.42550  0.30300  0.97050  Biso   1.000  N
  N80      1.0000 0.57450  0.80300  0.52950  Biso   1.000  N
  N81      1.0000 0.07450  0.69700  0.47050  Biso   1.000  N
  N82      1.0000 0.97050  0.42550  0.30300  Biso   1.000  N
  N83      1.0000 0.52950  0.57450  0.80300  Biso   1.000  N
  N84      1.0000 0.47050  0.07450  0.69700  Biso   1.000  N
  N85      1.0000 0.80300  0.97050  0.07450  Biso   1.000  N
  N86      1.0000 0.07450  0.80300  0.97050  Biso   1.000  N
  N87      1.0000 0.97050  0.07450  0.80300  Biso   1.000  N
  N88      1.0000 0.69700  0.02950  0.57450  Biso   1.000  N
  N89      1.0000 0.19700  0.47050  0.42550  Biso   1.000  N
  N90      1.0000 0.30300  0.52950  0.92550  Biso   1.000  N
  N91      1.0000 0.57450  0.69700  0.02950  Biso   1.000  N
  N92      1.0000 0.42550  0.19700  0.47050  Biso   1.000  N
  N93      1.0000 0.92550  0.30300  0.52950  Biso   1.000  N
  N94      1.0000 0.02950  0.57450  0.69700  Biso   1.000  N
  N95      1.0000 0.47050  0.42550  0.19700  Biso   1.000  N
  N96      1.0000 0.52950  0.92550  0.30300  Biso   1.000  N
  C1       1.0000 0.23520  0.12240  0.02030  Biso   1.000  C
  C2       1.0000 0.02030  0.23520  0.12240  Biso   1.000  C
  C3       1.0000 0.12240  0.02030  0.23520  Biso   1.000  C
  C4       1.0000 0.26480  0.87760  0.52030  Biso   1.000  C
  C5       1.0000 0.76480  0.62240  0.47970  Biso   1.000  C
  C6       1.0000 0.73520  0.37760  0.97970  Biso   1.000  C
  C7       1.0000 0.52030  0.26480  0.87760  Biso   1.000  C
  C8       1.0000 0.47970  0.76480  0.62240  Biso   1.000  C
  C9       1.0000 0.97970  0.73520  0.37760  Biso   1.000  C
  C10      1.0000 0.87760  0.52030  0.26480  Biso   1.000  C
  C11      1.0000 0.62240  0.47970  0.76480  Biso   1.000  C
  C12      1.0000 0.37760  0.97970  0.73520  Biso   1.000  C
  C13      1.0000 0.76480  0.87760  0.97970  Biso   1.000  C
  C14      1.0000 0.97970  0.76480  0.87760  Biso   1.000  C
  C15      1.0000 0.87760  0.97970  0.76480  Biso   1.000  C
  C16      1.0000 0.73520  0.12240  0.47970  Biso   1.000  C
  C17      1.0000 0.23520  0.37760  0.52030  Biso   1.000  C
  C18      1.0000 0.26480  0.62240  0.02030  Biso   1.000  C
  C19      1.0000 0.47970  0.73520  0.12240  Biso   1.000  C
  C20      1.0000 0.52030  0.23520  0.37760  Biso   1.000  C
  C21      1.0000 0.02030  0.26480  0.62240  Biso   1.000  C
  C22      1.0000 0.12240  0.47970  0.73520  Biso   1.000  C
  C23      1.0000 0.37760  0.52030  0.23520  Biso   1.000  C
  C24      1.0000 0.62240  0.02030  0.26480  Biso   1.000  C
  C25      1.0000 0.18050  0.10290  0.95600  Biso   1.000  C
  C26      1.0000 0.95600  0.18050  0.10290  Biso   1.000  C
  C27      1.0000 0.10290  0.95600  0.18050  Biso   1.000  C
  C28      1.0000 0.31950  0.89710  0.45600  Biso   1.000  C
  C29      1.0000 0.81950  0.60290  0.54400  Biso   1.000  C
  C30      1.0000 0.68050  0.39710  0.04400  Biso   1.000  C
  C31      1.0000 0.45600  0.31950  0.89710  Biso   1.000  C
  C32      1.0000 0.54400  0.81950  0.60290  Biso   1.000  C
  C33      1.0000 0.04400  0.68050  0.39710  Biso   1.000  C
  C34      1.0000 0.89710  0.45600  0.31950  Biso   1.000  C
  C35      1.0000 0.60290  0.54400  0.81950  Biso   1.000  C
  C36      1.0000 0.39710  0.04400  0.68050  Biso   1.000  C
  C37      1.0000 0.81950  0.89710  0.04400  Biso   1.000  C
  C38      1.0000 0.04400  0.81950  0.89710  Biso   1.000  C
  C39      1.0000 0.89710  0.04400  0.81950  Biso   1.000  C
  C40      1.0000 0.68050  0.10290  0.54400  Biso   1.000  C
  C41      1.0000 0.18050  0.39710  0.45600  Biso   1.000  C
  C42      1.0000 0.31950  0.60290  0.95600  Biso   1.000  C
  C43      1.0000 0.54400  0.68050  0.10290  Biso   1.000  C
  C44      1.0000 0.45600  0.18050  0.39710  Biso   1.000  C
  C45      1.0000 0.95600  0.31950  0.60290  Biso   1.000  C
  C46      1.0000 0.10290  0.54400  0.68050  Biso   1.000  C
  C47      1.0000 0.39710  0.45600  0.18050  Biso   1.000  C
  C48      1.0000 0.60290  0.95600  0.31950  Biso   1.000  C
  H9       1.0000 0.12970  0.10380  0.97460  Biso   1.000  H
  H10      1.0000 0.97460  0.12970  0.10380  Biso   1.000  H
  H11      1.0000 0.10380  0.97460  0.12970  Biso   1.000  H
  H12      1.0000 0.37030  0.89620  0.47460  Biso   1.000  H
  H13      1.0000 0.87030  0.60380  0.52540  Biso   1.000  H
  H14      1.0000 0.62970  0.39620  0.02540  Biso   1.000  H
  H15      1.0000 0.47460  0.37030  0.89620  Biso   1.000  H
  H16      1.0000 0.52540  0.87030  0.60380  Biso   1.000  H
  H17      1.0000 0.02540  0.62970  0.39620  Biso   1.000  H
  H18      1.0000 0.89620  0.47460  0.37030  Biso   1.000  H
  H19      1.0000 0.60380  0.52540  0.87030  Biso   1.000  H
  H20      1.0000 0.39620  0.02540  0.62970  Biso   1.000  H
  H21      1.0000 0.87030  0.89620  0.02540  Biso   1.000  H
  H22      1.0000 0.02540  0.87030  0.89620  Biso   1.000  H
  H23      1.0000 0.89620  0.02540  0.87030  Biso   1.000  H
  H24      1.0000 0.62970  0.10380  0.52540  Biso   1.000  H
  H25      1.0000 0.12970  0.39620  0.47460  Biso   1.000  H
  H26      1.0000 0.37030  0.60380  0.97460  Biso   1.000  H
  H27      1.0000 0.52540  0.62970  0.10380  Biso   1.000  H
  H28      1.0000 0.47460  0.12970  0.39620  Biso   1.000  H
  H29      1.0000 0.97460  0.37030  0.60380  Biso   1.000  H
  H30      1.0000 0.10380  0.52540  0.62970  Biso   1.000  H
  H31      1.0000 0.39620  0.47460  0.12970  Biso   1.000  H
  H32      1.0000 0.60380  0.97460  0.37030  Biso   1.000  H
  H33      1.0000 0.18470  0.14010  0.91690  Biso   1.000  H
  H34      1.0000 0.91690  0.18470  0.14010  Biso   1.000  H
  H35      1.0000 0.14010  0.91690  0.18470  Biso   1.000  H
  H36      1.0000 0.31530  0.85990  0.41690  Biso   1.000  H
  H37      1.0000 0.81530  0.64010  0.58310  Biso   1.000  H
  H38      1.0000 0.68470  0.35990  0.08310  Biso   1.000  H
  H39      1.0000 0.41690  0.31530  0.85990  Biso   1.000  H
  H40      1.0000 0.58310  0.81530  0.64010  Biso   1.000  H
  H41      1.0000 0.08310  0.68470  0.35990  Biso   1.000  H
  H42      1.0000 0.85990  0.41690  0.31530  Biso   1.000  H
  H43      1.0000 0.64010  0.58310  0.81530  Biso   1.000  H
  H44      1.0000 0.35990  0.08310  0.68470  Biso   1.000  H
  H45      1.0000 0.81530  0.85990  0.08310  Biso   1.000  H
  H46      1.0000 0.08310  0.81530  0.85990  Biso   1.000  H
  H47      1.0000 0.85990  0.08310  0.81530  Biso   1.000  H
  H48      1.0000 0.68470  0.14010  0.58310  Biso   1.000  H
  H49      1.0000 0.18470  0.35990  0.41690  Biso   1.000  H
  H50      1.0000 0.31530  0.64010  0.91690  Biso   1.000  H
  H51      1.0000 0.58310  0.68470  0.14010  Biso   1.000  H
  H52      1.0000 0.41690  0.18470  0.35990  Biso   1.000  H
  H53      1.0000 0.91690  0.31530  0.64010  Biso   1.000  H
  H54      1.0000 0.14010  0.58310  0.68470  Biso   1.000  H
  H55      1.0000 0.35990  0.41690  0.18470  Biso   1.000  H
  H56      1.0000 0.64010  0.91690  0.31530  Biso   1.000  H
  C49      1.0000 0.23130  0.01090  0.86310  Biso   1.000  C
  C50      1.0000 0.86310  0.23130  0.01090  Biso   1.000  C
  C51      1.0000 0.01090  0.86310  0.23130  Biso   1.000  C
  C52      1.0000 0.26870  0.98910  0.36310  Biso   1.000  C
  C53      1.0000 0.76870  0.51090  0.63690  Biso   1.000  C
  C54      1.0000 0.73130  0.48910  0.13690  Biso   1.000  C
  C55      1.0000 0.36310  0.26870  0.98910  Biso   1.000  C
  C56      1.0000 0.63690  0.76870  0.51090  Biso   1.000  C
  C57      1.0000 0.13690  0.73130  0.48910  Biso   1.000  C
  C58      1.0000 0.98910  0.36310  0.26870  Biso   1.000  C
  C59      1.0000 0.51090  0.63690  0.76870  Biso   1.000  C
  C60      1.0000 0.48910  0.13690  0.73130  Biso   1.000  C
  C61      1.0000 0.76870  0.98910  0.13690  Biso   1.000  C
  C62      1.0000 0.13690  0.76870  0.98910  Biso   1.000  C
  C63      1.0000 0.98910  0.13690  0.76870  Biso   1.000  C
  C64      1.0000 0.73130  0.01090  0.63690  Biso   1.000  C
  C65      1.0000 0.23130  0.48910  0.36310  Biso   1.000  C
  C66      1.0000 0.26870  0.51090  0.86310  Biso   1.000  C
  C67      1.0000 0.63690  0.73130  0.01090  Biso   1.000  C
  C68      1.0000 0.36310  0.23130  0.48910  Biso   1.000  C
  C69      1.0000 0.86310  0.26870  0.51090  Biso   1.000  C
  C70      1.0000 0.01090  0.63690  0.73130  Biso   1.000  C
  C71      1.0000 0.48910  0.36310  0.23130  Biso   1.000  C
  C72      1.0000 0.51090  0.86310  0.26870  Biso   1.000  C
  H57      1.0000 0.25180  0.04410  0.82890  Biso   1.000  H
  H58      1.0000 0.82890  0.25180  0.04410  Biso   1.000  H
  H59      1.0000 0.04410  0.82890  0.25180  Biso   1.000  H
  H60      1.0000 0.24820  0.95590  0.32890  Biso   1.000  H
  H61      1.0000 0.74820  0.54410  0.67110  Biso   1.000  H
  H62      1.0000 0.75180  0.45590  0.17110  Biso   1.000  H
  H63      1.0000 0.32890  0.24820  0.95590  Biso   1.000  H
  H64      1.0000 0.67110  0.74820  0.54410  Biso   1.000  H
  H65      1.0000 0.17110  0.75180  0.45590  Biso   1.000  H
  H66      1.0000 0.95590  0.32890  0.24820  Biso   1.000  H
  H67      1.0000 0.54410  0.67110  0.74820  Biso   1.000  H
  H68      1.0000 0.45590  0.17110  0.75180  Biso   1.000  H
  H69      1.0000 0.74820  0.95590  0.17110  Biso   1.000  H
  H70      1.0000 0.17110  0.74820  0.95590  Biso   1.000  H
  H71      1.0000 0.95590  0.17110  0.74820  Biso   1.000  H
  H72      1.0000 0.75180  0.04410  0.67110  Biso   1.000  H
  H73      1.0000 0.25180  0.45590  0.32890  Biso   1.000  H
  H74      1.0000 0.24820  0.54410  0.82890  Biso   1.000  H
  H75      1.0000 0.67110  0.75180  0.04410  Biso   1.000  H
  H76      1.0000 0.32890  0.25180  0.45590  Biso   1.000  H
  H77      1.0000 0.82890  0.24820  0.54410  Biso   1.000  H
  H78      1.0000 0.04410  0.67110  0.75180  Biso   1.000  H
  H79      1.0000 0.45590  0.32890  0.25180  Biso   1.000  H
  H80      1.0000 0.54410  0.82890  0.24820  Biso   1.000  H
  O89      1.0000 0.33410  0.11690  0.17860  Biso   1.000  O
  O90      1.0000 0.17860  0.33410  0.11690  Biso   1.000  O
  O91      1.0000 0.11690  0.17860  0.33410  Biso   1.000  O
  O92      1.0000 0.16590  0.88310  0.67860  Biso   1.000  O
  O93      1.0000 0.66590  0.61690  0.32140  Biso   1.000  O
  O94      1.0000 0.83410  0.38310  0.82140  Biso   1.000  O
  O95      1.0000 0.67860  0.16590  0.88310  Biso   1.000  O
  O96      1.0000 0.32140  0.66590  0.61690  Biso   1.000  O
  O97      1.0000 0.82140  0.83410  0.38310  Biso   1.000  O
  O98      1.0000 0.88310  0.67860  0.16590  Biso   1.000  O
  O99      1.0000 0.61690  0.32140  0.66590  Biso   1.000  O
  O100     1.0000 0.38310  0.82140  0.83410  Biso   1.000  O
  O101     1.0000 0.66590  0.88310  0.82140  Biso   1.000  O
  O102     1.0000 0.82140  0.66590  0.88310  Biso   1.000  O
  O103     1.0000 0.88310  0.82140  0.66590  Biso   1.000  O
  O104     1.0000 0.83410  0.11690  0.32140  Biso   1.000  O
  O105     1.0000 0.33410  0.38310  0.67860  Biso   1.000  O
  O106     1.0000 0.16590  0.61690  0.17860  Biso   1.000  O
  O107     1.0000 0.32140  0.83410  0.11690  Biso   1.000  O
  O108     1.0000 0.67860  0.33410  0.38310  Biso   1.000  O
  O109     1.0000 0.17860  0.16590  0.61690  Biso   1.000  O
  O110     1.0000 0.11690  0.32140  0.83410  Biso   1.000  O
  O111     1.0000 0.38310  0.67860  0.33410  Biso   1.000  O
  O112     1.0000 0.61690  0.17860  0.16590  Biso   1.000  O
  H81      1.0000 0.32490  0.11290  0.13390  Biso   1.000  H
  H82      1.0000 0.13390  0.32490  0.11290  Biso   1.000  H
  H83      1.0000 0.11290  0.13390  0.32490  Biso   1.000  H
  H84      1.0000 0.17510  0.88710  0.63390  Biso   1.000  H
  H85      1.0000 0.67510  0.61290  0.36610  Biso   1.000  H
  H86      1.0000 0.82490  0.38710  0.86610  Biso   1.000  H
  H87      1.0000 0.63390  0.17510  0.88710  Biso   1.000  H
  H88      1.0000 0.36610  0.67510  0.61290  Biso   1.000  H
  H89      1.0000 0.86610  0.82490  0.38710  Biso   1.000  H
  H90      1.0000 0.88710  0.63390  0.17510  Biso   1.000  H
  H91      1.0000 0.61290  0.36610  0.67510  Biso   1.000  H
  H92      1.0000 0.38710  0.86610  0.82490  Biso   1.000  H
  H93      1.0000 0.67510  0.88710  0.86610  Biso   1.000  H
  H94      1.0000 0.86610  0.67510  0.88710  Biso   1.000  H
  H95      1.0000 0.88710  0.86610  0.67510  Biso   1.000  H
  H96      1.0000 0.82490  0.11290  0.36610  Biso   1.000  H
  H97      1.0000 0.32490  0.38710  0.63390  Biso   1.000  H
  H98      1.0000 0.17510  0.61290  0.13390  Biso   1.000  H
  H99      1.0000 0.36610  0.82490  0.11290  Biso   1.000  H
  H100     1.0000 0.63390  0.32490  0.38710  Biso   1.000  H
  H101     1.0000 0.13390  0.17510  0.61290  Biso   1.000  H
  H102     1.0000 0.11290  0.36610  0.82490  Biso   1.000  H
  H103     1.0000 0.38710  0.63390  0.32490  Biso   1.000  H
  H104     1.0000 0.61290  0.13390  0.17510  Biso   1.000  H
  C73      1.0000 0.41180  0.11440  0.19000  Biso   1.000  C
  C74      1.0000 0.19000  0.41180  0.11440  Biso   1.000  C
  C75      1.0000 0.11440  0.19000  0.41180  Biso   1.000  C
  C76      1.0000 0.08820  0.88560  0.69000  Biso   1.000  C
  C77      1.0000 0.58820  0.61440  0.31000  Biso   1.000  C
  C78      1.0000 0.91180  0.38560  0.81000  Biso   1.000  C
  C79      1.0000 0.69000  0.08820  0.88560  Biso   1.000  C
  C80      1.0000 0.31000  0.58820  0.61440  Biso   1.000  C
  C81      1.0000 0.81000  0.91180  0.38560  Biso   1.000  C
  C82      1.0000 0.88560  0.69000  0.08820  Biso   1.000  C
  C83      1.0000 0.61440  0.31000  0.58820  Biso   1.000  C
  C84      1.0000 0.38560  0.81000  0.91180  Biso   1.000  C
  C85      1.0000 0.58820  0.88560  0.81000  Biso   1.000  C
  C86      1.0000 0.81000  0.58820  0.88560  Biso   1.000  C
  C87      1.0000 0.88560  0.81000  0.58820  Biso   1.000  C
  C88      1.0000 0.91180  0.11440  0.31000  Biso   1.000  C
  C89      1.0000 0.41180  0.38560  0.69000  Biso   1.000  C
  C90      1.0000 0.08820  0.61440  0.19000  Biso   1.000  C
  C91      1.0000 0.31000  0.91180  0.11440  Biso   1.000  C
  C92      1.0000 0.69000  0.41180  0.38560  Biso   1.000  C
  C93      1.0000 0.19000  0.08820  0.61440  Biso   1.000  C
  C94      1.0000 0.11440  0.31000  0.91180  Biso   1.000  C
  C95      1.0000 0.38560  0.69000  0.41180  Biso   1.000  C
  C96      1.0000 0.61440  0.19000  0.08820  Biso   1.000  C
  H105     1.0000 0.42640  0.15480  0.22200  Biso   1.000  H
  H106     1.0000 0.22200  0.42640  0.15480  Biso   1.000  H
  H107     1.0000 0.15480  0.22200  0.42640  Biso   1.000  H
  H108     1.0000 0.07360  0.84520  0.72200  Biso   1.000  H
  H109     1.0000 0.57360  0.65480  0.27800  Biso   1.000  H
  H110     1.0000 0.92640  0.34520  0.77800  Biso   1.000  H
  H111     1.0000 0.72200  0.07360  0.84520  Biso   1.000  H
  H112     1.0000 0.27800  0.57360  0.65480  Biso   1.000  H
  H113     1.0000 0.77800  0.92640  0.34520  Biso   1.000  H
  H114     1.0000 0.84520  0.72200  0.07360  Biso   1.000  H
  H115     1.0000 0.65480  0.27800  0.57360  Biso   1.000  H
  H116     1.0000 0.34520  0.77800  0.92640  Biso   1.000  H
  H117     1.0000 0.57360  0.84520  0.77800  Biso   1.000  H
  H118     1.0000 0.77800  0.57360  0.84520  Biso   1.000  H
  H119     1.0000 0.84520  0.77800  0.57360  Biso   1.000  H
  H120     1.0000 0.92640  0.15480  0.27800  Biso   1.000  H
  H121     1.0000 0.42640  0.34520  0.72200  Biso   1.000  H
  H122     1.0000 0.07360  0.65480  0.22200  Biso   1.000  H
  H123     1.0000 0.27800  0.92640  0.15480  Biso   1.000  H
  H124     1.0000 0.72200  0.42640  0.34520  Biso   1.000  H
  H125     1.0000 0.22200  0.07360  0.65480  Biso   1.000  H
  H126     1.0000 0.15480  0.27800  0.92640  Biso   1.000  H
  H127     1.0000 0.34520  0.72200  0.42640  Biso   1.000  H
  H128     1.0000 0.65480  0.22200  0.07360  Biso   1.000  H
  H129     1.0000 0.43690  0.11890  0.14290  Biso   1.000  H
  H130     1.0000 0.14290  0.43690  0.11890  Biso   1.000  H
  H131     1.0000 0.11890  0.14290  0.43690  Biso   1.000  H
  H132     1.0000 0.06310  0.88110  0.64290  Biso   1.000  H
  H133     1.0000 0.56310  0.61890  0.35710  Biso   1.000  H
  H134     1.0000 0.93690  0.38110  0.85710  Biso   1.000  H
  H135     1.0000 0.64290  0.06310  0.88110  Biso   1.000  H
  H136     1.0000 0.35710  0.56310  0.61890  Biso   1.000  H
  H137     1.0000 0.85710  0.93690  0.38110  Biso   1.000  H
  H138     1.0000 0.88110  0.64290  0.06310  Biso   1.000  H
  H139     1.0000 0.61890  0.35710  0.56310  Biso   1.000  H
  H140     1.0000 0.38110  0.85710  0.93690  Biso   1.000  H
  H141     1.0000 0.56310  0.88110  0.85710  Biso   1.000  H
  H142     1.0000 0.85710  0.56310  0.88110  Biso   1.000  H
  H143     1.0000 0.88110  0.85710  0.56310  Biso   1.000  H
  H144     1.0000 0.93690  0.11890  0.35710  Biso   1.000  H
  H145     1.0000 0.43690  0.38110  0.64290  Biso   1.000  H
  H146     1.0000 0.06310  0.61890  0.14290  Biso   1.000  H
  H147     1.0000 0.35710  0.93690  0.11890  Biso   1.000  H
  H148     1.0000 0.64290  0.43690  0.38110  Biso   1.000  H
  H149     1.0000 0.14290  0.06310  0.61890  Biso   1.000  H
  H150     1.0000 0.11890  0.35710  0.93690  Biso   1.000  H
  H151     1.0000 0.38110  0.64290  0.43690  Biso   1.000  H
  H152     1.0000 0.61890  0.14290  0.06310  Biso   1.000  H
  H153     1.0000 0.42500  0.06780  0.21290  Biso   1.000  H
  H154     1.0000 0.21290  0.42500  0.06780  Biso   1.000  H
  H155     1.0000 0.06780  0.21290  0.42500  Biso   1.000  H
  H156     1.0000 0.07500  0.93220  0.71290  Biso   1.000  H
  H157     1.0000 0.57500  0.56780  0.28710  Biso   1.000  H
  H158     1.0000 0.92500  0.43220  0.78710  Biso   1.000  H
  H159     1.0000 0.71290  0.07500  0.93220  Biso   1.000  H
  H160     1.0000 0.28710  0.57500  0.56780  Biso   1.000  H
  H161     1.0000 0.78710  0.92500  0.43220  Biso   1.000  H
  H162     1.0000 0.93220  0.71290  0.07500  Biso   1.000  H
  H163     1.0000 0.56780  0.28710  0.57500  Biso   1.000  H
  H164     1.0000 0.43220  0.78710  0.92500  Biso   1.000  H
  H165     1.0000 0.57500  0.93220  0.78710  Biso   1.000  H
  H166     1.0000 0.78710  0.57500  0.93220  Biso   1.000  H
  H167     1.0000 0.93220  0.78710  0.57500  Biso   1.000  H
  H168     1.0000 0.92500  0.06780  0.28710  Biso   1.000  H
  H169     1.0000 0.42500  0.43220  0.71290  Biso   1.000  H
  H170     1.0000 0.07500  0.56780  0.21290  Biso   1.000  H
  H171     1.0000 0.28710  0.92500  0.06780  Biso   1.000  H
  H172     1.0000 0.71290  0.42500  0.43220  Biso   1.000  H
  H173     1.0000 0.21290  0.07500  0.56780  Biso   1.000  H
  H174     1.0000 0.06780  0.28710  0.92500  Biso   1.000  H
  H175     1.0000 0.43220  0.71290  0.42500  Biso   1.000  H
  H176     1.0000 0.56780  0.21290  0.07500  Biso   1.000  H
  O113     1.0000 0.45470  0.45470  0.45470  Biso   1.000  O
  O114     1.0000 0.04530  0.54530  0.95470  Biso   1.000  O
  O115     1.0000 0.54530  0.95470  0.04530  Biso   1.000  O
  O116     1.0000 0.95470  0.04530  0.54530  Biso   1.000  O
  O117     1.0000 0.54530  0.54530  0.54530  Biso   1.000  O
  O118     1.0000 0.95470  0.45470  0.04530  Biso   1.000  O
  O119     1.0000 0.45470  0.04530  0.95470  Biso   1.000  O
  O120     1.0000 0.04530  0.95470  0.45470  Biso   1.000  O
