data_image0
_cell_length_a       10.1285
_cell_length_b       12.0669
_cell_length_c       7.277
_cell_angle_alpha    90
_cell_angle_beta     101.584
_cell_angle_gamma    90

_symmetry_space_group_name_H-M    "P 1"
_symmetry_int_tables_number       1

loop_
  _symmetry_equiv_pos_as_xyz
  'x, y, z'

loop_
  _atom_site_label
  _atom_site_occupancy
  _atom_site_fract_x
  _atom_site_fract_y
  _atom_site_fract_z
  _atom_site_thermal_displace_type
  _atom_site_B_iso_or_equiv
  _atom_site_type_symbol
  Cu1      1.0000 0.50000  0.16047  0.25000  Biso   1.000  Cu
  Cu2      1.0000 0.00000  0.66047  0.25000  Biso   1.000  Cu
  Cu3      1.0000 0.50000  0.83953  0.75000  Biso   1.000  Cu
  Cu4      1.0000 0.00000  0.33953  0.75000  Biso   1.000  Cu
  O1       1.0000 0.47710  0.16110  0.97550  Biso   1.000  O
  O2       1.0000 0.52290  0.16110  0.52450  Biso   1.000  O
  O3       1.0000 0.97710  0.66110  0.97550  Biso   1.000  O
  O4       1.0000 0.02290  0.66110  0.52450  Biso   1.000  O
  O5       1.0000 0.52290  0.83890  0.02450  Biso   1.000  O
  O6       1.0000 0.47710  0.83890  0.47550  Biso   1.000  O
  O7       1.0000 0.02290  0.33890  0.02450  Biso   1.000  O
  O8       1.0000 0.97710  0.33890  0.47550  Biso   1.000  O
  H1       1.0000 0.52160  0.11610  0.92180  Biso   1.000  H
  H2       1.0000 0.47840  0.11610  0.57820  Biso   1.000  H
  H3       1.0000 0.02160  0.61610  0.92180  Biso   1.000  H
  H4       1.0000 0.97840  0.61610  0.57820  Biso   1.000  H
  H5       1.0000 0.47840  0.88390  0.07820  Biso   1.000  H
  H6       1.0000 0.52160  0.88390  0.42180  Biso   1.000  H
  H7       1.0000 0.97840  0.38390  0.07820  Biso   1.000  H
  H8       1.0000 0.02160  0.38390  0.42180  Biso   1.000  H
  H9       1.0000 0.42260  0.20650  0.91040  Biso   1.000  H
  H10      1.0000 0.57740  0.20650  0.58960  Biso   1.000  H
  H11      1.0000 0.92260  0.70650  0.91040  Biso   1.000  H
  H12      1.0000 0.07740  0.70650  0.58960  Biso   1.000  H
  H13      1.0000 0.57740  0.79350  0.08960  Biso   1.000  H
  H14      1.0000 0.42260  0.79350  0.41040  Biso   1.000  H
  H15      1.0000 0.07740  0.29350  0.08960  Biso   1.000  H
  H16      1.0000 0.92260  0.29350  0.41040  Biso   1.000  H
  O9       1.0000 0.65030  0.02320  0.26670  Biso   1.000  O
  O10      1.0000 0.34970  0.02320  0.23330  Biso   1.000  O
  O11      1.0000 0.15030  0.52320  0.26670  Biso   1.000  O
  O12      1.0000 0.84970  0.52320  0.23330  Biso   1.000  O
  O13      1.0000 0.34970  0.97680  0.73330  Biso   1.000  O
  O14      1.0000 0.65030  0.97680  0.76670  Biso   1.000  O
  O15      1.0000 0.84970  0.47680  0.73330  Biso   1.000  O
  O16      1.0000 0.15030  0.47680  0.76670  Biso   1.000  O
  O17      1.0000 0.76470  0.17610  0.27770  Biso   1.000  O
  O18      1.0000 0.23530  0.17610  0.22230  Biso   1.000  O
  O19      1.0000 0.26470  0.67610  0.27770  Biso   1.000  O
  O20      1.0000 0.73530  0.67610  0.22230  Biso   1.000  O
  O21      1.0000 0.23530  0.82390  0.72230  Biso   1.000  O
  O22      1.0000 0.76470  0.82390  0.77770  Biso   1.000  O
  O23      1.0000 0.73530  0.32390  0.72230  Biso   1.000  O
  O24      1.0000 0.26470  0.32390  0.77770  Biso   1.000  O
  C1       1.0000 0.75620  0.07480  0.26910  Biso   1.000  C
  C2       1.0000 0.24380  0.07480  0.23090  Biso   1.000  C
  C3       1.0000 0.25620  0.57480  0.26910  Biso   1.000  C
  C4       1.0000 0.74380  0.57480  0.23090  Biso   1.000  C
  C5       1.0000 0.24380  0.92520  0.73090  Biso   1.000  C
  C6       1.0000 0.75620  0.92520  0.76910  Biso   1.000  C
  C7       1.0000 0.74380  0.42520  0.73090  Biso   1.000  C
  C8       1.0000 0.25620  0.42520  0.76910  Biso   1.000  C
  C9       1.0000 0.88370  0.01040  0.26100  Biso   1.000  C
  C10      1.0000 0.11630  0.01040  0.23900  Biso   1.000  C
  C11      1.0000 0.38370  0.51040  0.26100  Biso   1.000  C
  C12      1.0000 0.61630  0.51040  0.23900  Biso   1.000  C
  C13      1.0000 0.11630  0.98960  0.73900  Biso   1.000  C
  C14      1.0000 0.88370  0.98960  0.76100  Biso   1.000  C
  C15      1.0000 0.61630  0.48960  0.73900  Biso   1.000  C
  C16      1.0000 0.38370  0.48960  0.76100  Biso   1.000  C
  C17      1.0000 0.00000  0.06720  0.25000  Biso   1.000  C
  C18      1.0000 0.50000  0.56720  0.25000  Biso   1.000  C
  C19      1.0000 0.00000  0.93280  0.75000  Biso   1.000  C
  C20      1.0000 0.50000  0.43280  0.75000  Biso   1.000  C
  H17      1.0000 0.00000  0.14430  0.25000  Biso   1.000  H
  H18      1.0000 0.50000  0.64430  0.25000  Biso   1.000  H
  H19      1.0000 0.00000  0.85570  0.75000  Biso   1.000  H
  H20      1.0000 0.50000  0.35570  0.75000  Biso   1.000  H
  C21      1.0000 0.88850  0.89630  0.26200  Biso   1.000  C
  C22      1.0000 0.11150  0.89630  0.23800  Biso   1.000  C
  C23      1.0000 0.38850  0.39630  0.26200  Biso   1.000  C
  C24      1.0000 0.61150  0.39630  0.23800  Biso   1.000  C
  C25      1.0000 0.11150  0.10370  0.73800  Biso   1.000  C
  C26      1.0000 0.88850  0.10370  0.76200  Biso   1.000  C
  C27      1.0000 0.61150  0.60370  0.73800  Biso   1.000  C
  C28      1.0000 0.38850  0.60370  0.76200  Biso   1.000  C
  H21      1.0000 0.81090  0.85740  0.27130  Biso   1.000  H
  H22      1.0000 0.18910  0.85740  0.22870  Biso   1.000  H
  H23      1.0000 0.31090  0.35740  0.27130  Biso   1.000  H
  H24      1.0000 0.68910  0.35740  0.22870  Biso   1.000  H
  H25      1.0000 0.18910  0.14260  0.72870  Biso   1.000  H
  H26      1.0000 0.81090  0.14260  0.77130  Biso   1.000  H
  H27      1.0000 0.68910  0.64260  0.72870  Biso   1.000  H
  H28      1.0000 0.31090  0.64260  0.77130  Biso   1.000  H
  N1       1.0000 0.00000  0.83860  0.25000  Biso   1.000  N
  N2       1.0000 0.50000  0.33860  0.25000  Biso   1.000  N
  N3       1.0000 0.00000  0.16140  0.75000  Biso   1.000  N
  N4       1.0000 0.50000  0.66140  0.75000  Biso   1.000  N
