data_image0
_cell_length_a       9.3285
_cell_length_b       12.55
_cell_length_c       18.9817
_cell_angle_alpha    92.6312
_cell_angle_beta     93.559
_cell_angle_gamma    101.924

_symmetry_space_group_name_H-M    "P 1"
_symmetry_int_tables_number       1

loop_
  _symmetry_equiv_pos_as_xyz
  'x, y, z'

loop_
  _atom_site_label
  _atom_site_occupancy
  _atom_site_fract_x
  _atom_site_fract_y
  _atom_site_fract_z
  _atom_site_thermal_displace_type
  _atom_site_B_iso_or_equiv
  _atom_site_type_symbol
  Cu1      1.0000 0.50000  0.50000  0.00000  Biso   1.000  Cu
  Cu2      1.0000 0.50000  0.50000  0.50000  Biso   1.000  Cu
  C1       1.0000 0.63850  0.33173  0.95512  Biso   1.000  C
  C2       1.0000 0.36150  0.66827  0.04488  Biso   1.000  C
  H1       1.0000 0.63390  0.34200  0.90480  Biso   1.000  H
  H2       1.0000 0.36610  0.65800  0.09520  Biso   1.000  H
  H3       1.0000 0.65840  0.26000  0.96230  Biso   1.000  H
  H4       1.0000 0.34160  0.74000  0.03770  Biso   1.000  H
  C3       1.0000 0.36800  0.27733  0.94011  Biso   1.000  C
  C4       1.0000 0.63200  0.72267  0.05989  Biso   1.000  C
  H5       1.0000 0.36430  0.30580  0.89350  Biso   1.000  H
  H6       1.0000 0.63570  0.69420  0.10650  Biso   1.000  H
  H7       1.0000 0.37500  0.20140  0.93460  Biso   1.000  H
  H8       1.0000 0.62500  0.79860  0.06540  Biso   1.000  H
  C5       1.0000 0.19000  0.38738  0.96574  Biso   1.000  C
  C6       1.0000 0.81000  0.61262  0.03426  Biso   1.000  C
  H9       1.0000 0.08780  0.37860  0.97610  Biso   1.000  H
  H10      1.0000 0.91220  0.62140  0.02390  Biso   1.000  H
  H11      1.0000 0.19820  0.40740  0.91720  Biso   1.000  H
  H12      1.0000 0.80180  0.59260  0.08280  Biso   1.000  H
  C7       1.0000 0.24120  0.58145  0.00705  Biso   1.000  C
  C8       1.0000 0.75880  0.41855  0.99295  Biso   1.000  C
  H13      1.0000 0.14870  0.58130  0.02780  Biso   1.000  H
  H14      1.0000 0.85130  0.41870  0.97220  Biso   1.000  H
  H15      1.0000 0.22970  0.59620  0.95750  Biso   1.000  H
  H16      1.0000 0.77030  0.40380  0.04250  Biso   1.000  H
  C9       1.0000 0.12070  0.18719  0.97232  Biso   1.000  C
  C10      1.0000 0.87930  0.81281  0.02768  Biso   1.000  C
  H17      1.0000 0.16240  0.12360  0.96360  Biso   1.000  H
  H18      1.0000 0.83760  0.87640  0.03640  Biso   1.000  H
  H19      1.0000 0.04820  0.18910  0.93370  Biso   1.000  H
  H20      1.0000 0.95180  0.81090  0.06630  Biso   1.000  H
  C11      1.0000 0.04670  0.17780  0.04106  Biso   1.000  C
  C12      1.0000 0.95330  0.82220  0.95894  Biso   1.000  C
  H21      1.0000 0.98930  0.23360  0.04580  Biso   1.000  H
  H22      1.0000 0.01070  0.76640  0.95420  Biso   1.000  H
  H23      1.0000 0.98070  0.10700  0.04130  Biso   1.000  H
  H24      1.0000 0.01930  0.89300  0.95870  Biso   1.000  H
  C13      1.0000 0.14150  0.13060  0.15625  Biso   1.000  C
  C14      1.0000 0.85850  0.86940  0.84375  Biso   1.000  C
  C15      1.0000 0.29240  0.09778  0.26189  Biso   1.000  C
  C16      1.0000 0.70760  0.90222  0.73811  Biso   1.000  C
  C17      1.0000 0.18070  0.03010  0.29455  Biso   1.000  C
  C18      1.0000 0.81930  0.96990  0.70545  Biso   1.000  C
  H25      1.0000 0.08300  0.02420  0.27840  Biso   1.000  H
  H26      1.0000 0.91700  0.97580  0.72160  Biso   1.000  H
  C19      1.0000 0.21580  0.97210  0.35068  Biso   1.000  C
  C20      1.0000 0.78420  0.02790  0.64932  Biso   1.000  C
  H27      1.0000 0.14170  0.92700  0.37250  Biso   1.000  H
  H28      1.0000 0.85830  0.07300  0.62750  Biso   1.000  H
  C21      1.0000 0.36060  0.98078  0.37462  Biso   1.000  C
  C22      1.0000 0.63940  0.01922  0.62538  Biso   1.000  C
  C23      1.0000 0.47240  0.05103  0.34587  Biso   1.000  C
  C24      1.0000 0.52760  0.94897  0.65413  Biso   1.000  C
  H29      1.0000 0.56940  0.05860  0.36370  Biso   1.000  H
  H30      1.0000 0.43060  0.94140  0.63630  Biso   1.000  H
  C25      1.0000 0.43720  0.10976  0.29014  Biso   1.000  C
  C26      1.0000 0.56280  0.89024  0.70986  Biso   1.000  C
  H31      1.0000 0.51150  0.15850  0.27090  Biso   1.000  H
  H32      1.0000 0.48850  0.84150  0.72910  Biso   1.000  H
  C27      1.0000 0.73600  0.39990  0.47336  Biso   1.000  C
  C28      1.0000 0.26400  0.60010  0.52664  Biso   1.000  C
  H33      1.0000 0.75930  0.38350  0.52170  Biso   1.000  H
  H34      1.0000 0.24070  0.61650  0.47830  Biso   1.000  H
  H35      1.0000 0.81890  0.39420  0.44600  Biso   1.000  H
  H36      1.0000 0.18110  0.60580  0.55400  Biso   1.000  H
  C29      1.0000 0.81870  0.59454  0.51291  Biso   1.000  C
  C30      1.0000 0.18130  0.40546  0.48709  Biso   1.000  C
  H37      1.0000 0.82110  0.57830  0.56240  Biso   1.000  H
  H38      1.0000 0.17890  0.42170  0.43760  Biso   1.000  H
  H39      1.0000 0.91490  0.59450  0.49620  Biso   1.000  H
  H40      1.0000 0.08510  0.40550  0.50380  Biso   1.000  H
  C31      1.0000 0.66810  0.72183  0.54867  Biso   1.000  C
  C32      1.0000 0.33190  0.27817  0.45133  Biso   1.000  C
  H41      1.0000 0.67050  0.79950  0.55240  Biso   1.000  H
  H42      1.0000 0.32950  0.20050  0.44760  Biso   1.000  H
  H43      1.0000 0.68410  0.69810  0.59590  Biso   1.000  H
  H44      1.0000 0.31590  0.30190  0.40410  Biso   1.000  H
  C33      1.0000 0.40020  0.67953  0.55766  Biso   1.000  C
  C34      1.0000 0.59980  0.32047  0.44234  Biso   1.000  C
  H45      1.0000 0.38680  0.75390  0.55480  Biso   1.000  H
  H46      1.0000 0.61320  0.24610  0.44520  Biso   1.000  H
  H47      1.0000 0.41980  0.66650  0.60700  Biso   1.000  H
  H48      1.0000 0.58020  0.33350  0.39300  Biso   1.000  H
  C35      1.0000 0.91020  0.79221  0.50497  Biso   1.000  C
  C36      1.0000 0.08980  0.20779  0.49503  Biso   1.000  C
  H49      1.0000 0.99240  0.76610  0.48680  Biso   1.000  H
  H50      1.0000 0.00760  0.23390  0.51320  Biso   1.000  H
  H51      1.0000 0.93900  0.82180  0.55310  Biso   1.000  H
  H52      1.0000 0.06100  0.17820  0.44690  Biso   1.000  H
  C37      1.0000 0.87490  0.88150  0.46011  Biso   1.000  C
  C38      1.0000 0.12510  0.11850  0.53989  Biso   1.000  C
  H53      1.0000 0.81000  0.91990  0.48410  Biso   1.000  H
  H54      1.0000 0.19000  0.08010  0.51590  Biso   1.000  H
  H55      1.0000 0.96450  0.93350  0.45290  Biso   1.000  H
  H56      1.0000 0.03550  0.06650  0.54710  Biso   1.000  H
  C39      1.0000 0.77390  0.89911  0.34095  Biso   1.000  C
  C40      1.0000 0.22610  0.10089  0.65905  Biso   1.000  C
  C41      1.0000 0.60360  0.89026  0.23484  Biso   1.000  C
  C42      1.0000 0.39640  0.10974  0.76516  Biso   1.000  C
  C43      1.0000 0.68680  0.96922  0.19585  Biso   1.000  C
  C44      1.0000 0.31320  0.03078  0.80415  Biso   1.000  C
  H57      1.0000 0.78710  0.99320  0.20720  Biso   1.000  H
  H58      1.0000 0.21290  0.00680  0.79280  Biso   1.000  H
  C45      1.0000 0.61790  0.01137  0.14008  Biso   1.000  C
  C46      1.0000 0.38210  0.98863  0.85992  Biso   1.000  C
  H59      1.0000 0.67170  0.06440  0.11390  Biso   1.000  H
  H60      1.0000 0.32830  0.93560  0.88610  Biso   1.000  H
  C47      1.0000 0.46980  0.97475  0.12345  Biso   1.000  C
  C48      1.0000 0.53020  0.02525  0.87655  Biso   1.000  C
  C49      1.0000 0.38640  0.89492  0.16035  Biso   1.000  C
  C50      1.0000 0.61360  0.10508  0.83965  Biso   1.000  C
  H61      1.0000 0.28660  0.87020  0.14800  Biso   1.000  H
  H62      1.0000 0.71340  0.12980  0.85200  Biso   1.000  H
  C51      1.0000 0.45430  0.85297  0.21557  Biso   1.000  C
  C52      1.0000 0.54570  0.14703  0.78443  Biso   1.000  C
  H63      1.0000 0.39970  0.79870  0.24060  Biso   1.000  H
  H64      1.0000 0.60030  0.20130  0.75940  Biso   1.000  H
  N1       1.0000 0.49773  0.34040  0.98377  Biso   1.000  N
  N2       1.0000 0.50227  0.65960  0.01623  Biso   1.000  N
  H65      1.0000 0.49500  0.31300  0.02890  Biso   1.000  H
  H66      1.0000 0.50500  0.68700  0.97110  Biso   1.000  H
  N3       1.0000 0.23720  0.28601  0.97429  Biso   1.000  N
  N4       1.0000 0.76280  0.71399  0.02571  Biso   1.000  N
  N5       1.0000 0.28157  0.47450  0.01381  Biso   1.000  N
  N6       1.0000 0.71843  0.52550  0.98619  Biso   1.000  N
  H67      1.0000 0.27200  0.45190  0.06020  Biso   1.000  H
  H68      1.0000 0.72800  0.54810  0.93980  Biso   1.000  H
  N7       1.0000 0.15730  0.19057  0.09955  Biso   1.000  N
  N8       1.0000 0.84270  0.80943  0.90045  Biso   1.000  N
  H69      1.0000 0.25110  0.23510  0.09340  Biso   1.000  H
  H70      1.0000 0.74890  0.76490  0.90660  Biso   1.000  H
  N9       1.0000 0.26700  0.15359  0.20291  Biso   1.000  N
  N10      1.0000 0.73300  0.84641  0.79709  Biso   1.000  N
  H71      1.0000 0.34500  0.20490  0.18660  Biso   1.000  H
  H72      1.0000 0.65500  0.79510  0.81340  Biso   1.000  H
  N11      1.0000 0.39370  0.91259  0.43086  Biso   1.000  N
  N12      1.0000 0.60630  0.08741  0.56914  Biso   1.000  N
  N13      1.0000 0.70707  0.51113  0.47167  Biso   1.000  N
  N14      1.0000 0.29293  0.48887  0.52833  Biso   1.000  N
  H73      1.0000 0.70700  0.53100  0.42480  Biso   1.000  H
  H74      1.0000 0.29300  0.46900  0.57520  Biso   1.000  H
  N15      1.0000 0.78337  0.70040  0.50514  Biso   1.000  N
  N16      1.0000 0.21663  0.29960  0.49486  Biso   1.000  N
  N17      1.0000 0.52387  0.66288  0.51658  Biso   1.000  N
  N18      1.0000 0.47613  0.33712  0.48342  Biso   1.000  N
  H75      1.0000 0.51000  0.68450  0.47050  Biso   1.000  H
  H76      1.0000 0.49000  0.31550  0.52950  Biso   1.000  H
  N19      1.0000 0.80460  0.83370  0.39259  Biso   1.000  N
  N20      1.0000 0.19540  0.16630  0.60741  Biso   1.000  N
  H77      1.0000 0.73000  0.77090  0.39680  Biso   1.000  H
  H78      1.0000 0.27000  0.22910  0.60320  Biso   1.000  H
  N21      1.0000 0.66360  0.84407  0.29193  Biso   1.000  N
  N22      1.0000 0.33640  0.15593  0.70807  Biso   1.000  N
  H79      1.0000 0.60200  0.78560  0.31150  Biso   1.000  H
  H80      1.0000 0.39800  0.21440  0.68850  Biso   1.000  H
  N23      1.0000 0.39650  0.01916  0.06458  Biso   1.000  N
  N24      1.0000 0.60350  0.98084  0.93542  Biso   1.000  N
  O1       1.0000 0.03070  0.06366  0.16534  Biso   1.000  O
  O2       1.0000 0.96930  0.93634  0.83466  Biso   1.000  O
  O3       1.0000 0.29080  0.85680  0.45852  Biso   1.000  O
  O4       1.0000 0.70920  0.14320  0.54148  Biso   1.000  O
  O5       1.0000 0.52290  0.91243  0.44832  Biso   1.000  O
  O6       1.0000 0.47710  0.08757  0.55168  Biso   1.000  O
  O7       1.0000 0.83726  0.99368  0.33762  Biso   1.000  O
  O8       1.0000 0.16274  0.00632  0.66238  Biso   1.000  O
  O9       1.0000 0.46570  0.10046  0.03939  Biso   1.000  O
  O10      1.0000 0.53430  0.89954  0.96061  Biso   1.000  O
  O11      1.0000 0.27170  0.97244  0.04295  Biso   1.000  O
  O12      1.0000 0.72830  0.02756  0.95705  Biso   1.000  O
  C53      1.0000 0.50170  0.41345  0.16243  Biso   1.000  C
  C54      1.0000 0.49830  0.58655  0.83757  Biso   1.000  C
  C55      1.0000 0.48850  0.43786  0.24095  Biso   1.000  C
  C56      1.0000 0.51150  0.56214  0.75905  Biso   1.000  C
  H81      1.0000 0.40670  0.38520  0.25640  Biso   1.000  H
  H82      1.0000 0.59330  0.61480  0.74360  Biso   1.000  H
  H83      1.0000 0.57700  0.42790  0.26710  Biso   1.000  H
  H84      1.0000 0.42300  0.57210  0.73290  Biso   1.000  H
  C57      1.0000 0.46580  0.55131  0.25943  Biso   1.000  C
  C58      1.0000 0.53420  0.44869  0.74057  Biso   1.000  C
  H85      1.0000 0.37490  0.56010  0.23500  Biso   1.000  H
  H86      1.0000 0.62510  0.43990  0.76500  Biso   1.000  H
  H87      1.0000 0.54520  0.60390  0.24210  Biso   1.000  H
  H88      1.0000 0.45480  0.39610  0.75790  Biso   1.000  H
  C59      1.0000 0.45950  0.57747  0.33808  Biso   1.000  C
  C60      1.0000 0.54050  0.42253  0.66192  Biso   1.000  C
  O13      1.0000 0.55080  0.49142  0.12625  Biso   1.000  O
  O14      1.0000 0.44920  0.50858  0.87375  Biso   1.000  O
  O15      1.0000 0.46651  0.31544  0.13921  Biso   1.000  O
  O16      1.0000 0.53349  0.68456  0.86079  Biso   1.000  O
  O17      1.0000 0.41380  0.50156  0.37605  Biso   1.000  O
  O18      1.0000 0.58620  0.49844  0.62395  Biso   1.000  O
  O19      1.0000 0.49820  0.67624  0.36023  Biso   1.000  O
  O20      1.0000 0.50180  0.32376  0.63977  Biso   1.000  O
  C61      1.0000 0.07930  0.39940  0.19410  Biso   1.000  C
  C62      1.0000 0.92070  0.60060  0.80590  Biso   1.000  C
  H89      1.0000 0.17170  0.41050  0.21800  Biso   1.000  H
  H90      1.0000 0.82830  0.58950  0.78200  Biso   1.000  H
  C63      1.0000 0.83000  0.30960  0.19300  Biso   1.000  C
  C64      1.0000 0.17000  0.69040  0.80700  Biso   1.000  C
  H91      1.0000 0.81110  0.36920  0.16640  Biso   1.000  H
  H92      1.0000 0.18890  0.63080  0.83360  Biso   1.000  H
  H93      1.0000 0.76060  0.29520  0.22840  Biso   1.000  H
  H94      1.0000 0.23940  0.70480  0.77160  Biso   1.000  H
  H95      1.0000 0.82050  0.24580  0.16180  Biso   1.000  H
  H96      1.0000 0.17950  0.75420  0.83820  Biso   1.000  H
  C65      1.0000 0.99970  0.29200  0.29170  Biso   1.000  C
  C66      1.0000 0.00030  0.70800  0.70830  Biso   1.000  C
  H97      1.0000 0.09690  0.32520  0.31130  Biso   1.000  H
  H98      1.0000 0.90310  0.67480  0.68870  Biso   1.000  H
  H99      1.0000 0.99150  0.21470  0.28450  Biso   1.000  H
  H100     1.0000 0.00850  0.78530  0.71550  Biso   1.000  H
  H101     1.0000 0.92920  0.30600  0.32370  Biso   1.000  H
  H102     1.0000 0.07080  0.69400  0.67630  Biso   1.000  H
  N25      1.0000 0.97220  0.33690  0.22545  Biso   1.000  N
  N26      1.0000 0.02780  0.66310  0.77455  Biso   1.000  N
  O21      1.0000 0.07510  0.44260  0.14098  Biso   1.000  O
  O22      1.0000 0.92490  0.55740  0.85902  Biso   1.000  O
  C67      1.0000 0.86200  0.59360  0.28695  Biso   1.000  C
  C68      1.0000 0.13800  0.40640  0.71305  Biso   1.000  C
  H103     1.0000 0.78390  0.59680  0.25470  Biso   1.000  H
  H104     1.0000 0.21610  0.40320  0.74530  Biso   1.000  H
  C69      1.0000 0.11260  0.65550  0.32500  Biso   1.000  C
  C70      1.0000 0.88740  0.34450  0.67500  Biso   1.000  C
  H105     1.0000 0.10680  0.70180  0.36600  Biso   1.000  H
  H106     1.0000 0.89320  0.29820  0.63400  Biso   1.000  H
  H107     1.0000 0.20160  0.68310  0.30300  Biso   1.000  H
  H108     1.0000 0.79840  0.31690  0.69700  Biso   1.000  H
  H109     1.0000 0.11250  0.58290  0.33900  Biso   1.000  H
  H110     1.0000 0.88750  0.41710  0.66100  Biso   1.000  H
  C71      1.0000 0.00780  0.72170  0.21710  Biso   1.000  C
  C72      1.0000 0.99220  0.27830  0.78290  Biso   1.000  C
  H111     1.0000 0.91540  0.71370  0.19010  Biso   1.000  H
  H112     1.0000 0.08460  0.28630  0.80990  Biso   1.000  H
  H113     1.0000 0.07850  0.70040  0.18780  Biso   1.000  H
  H114     1.0000 0.92150  0.29960  0.81220  Biso   1.000  H
  H115     1.0000 0.04170  0.79650  0.23410  Biso   1.000  H
  H116     1.0000 0.95830  0.20350  0.76590  Biso   1.000  H
  N27      1.0000 0.98980  0.65340  0.27638  Biso   1.000  N
  N28      1.0000 0.01020  0.34660  0.72362  Biso   1.000  N
  O23      1.0000 0.83610  0.53400  0.33548  Biso   1.000  O
  O24      1.0000 0.16390  0.46600  0.66452  Biso   1.000  O
