data_image0
_cell_length_a       7.478
_cell_length_b       11.463
_cell_length_c       11.434
_cell_angle_alpha    90
_cell_angle_beta     102.655
_cell_angle_gamma    90

_symmetry_space_group_name_H-M    "P 1"
_symmetry_int_tables_number       1

loop_
  _symmetry_equiv_pos_as_xyz
  'x, y, z'

loop_
  _atom_site_label
  _atom_site_occupancy
  _atom_site_fract_x
  _atom_site_fract_y
  _atom_site_fract_z
  _atom_site_thermal_displace_type
  _atom_site_B_iso_or_equiv
  _atom_site_type_symbol
  Cu1      1.0000 0.75000  0.75000  0.25000  Biso   1.000  Cu
  Cu2      1.0000 0.75000  0.75000  0.75000  Biso   1.000  Cu
  Cu3      1.0000 0.25000  0.25000  0.75000  Biso   1.000  Cu
  Cu4      1.0000 0.25000  0.25000  0.25000  Biso   1.000  Cu
  O1       1.0000 0.91933  0.63605  0.35216  Biso   1.000  O
  O2       1.0000 0.58067  0.63605  0.64784  Biso   1.000  O
  O3       1.0000 0.41933  0.13605  0.85216  Biso   1.000  O
  O4       1.0000 0.08067  0.13605  0.14784  Biso   1.000  O
  O5       1.0000 0.08067  0.36395  0.64784  Biso   1.000  O
  O6       1.0000 0.41933  0.36395  0.35216  Biso   1.000  O
  O7       1.0000 0.58067  0.86395  0.14784  Biso   1.000  O
  O8       1.0000 0.91933  0.86395  0.85216  Biso   1.000  O
  O9       1.0000 0.52808  0.62851  0.30151  Biso   1.000  O
  O10      1.0000 0.97192  0.62851  0.69849  Biso   1.000  O
  O11      1.0000 0.02808  0.12851  0.80151  Biso   1.000  O
  O12      1.0000 0.47192  0.12851  0.19849  Biso   1.000  O
  O13      1.0000 0.47192  0.37149  0.69849  Biso   1.000  O
  O14      1.0000 0.02808  0.37149  0.30151  Biso   1.000  O
  O15      1.0000 0.97192  0.87149  0.19849  Biso   1.000  O
  O16      1.0000 0.52808  0.87149  0.80151  Biso   1.000  O
  O17      1.0000 0.28310  0.58521  0.36469  Biso   1.000  O
  O18      1.0000 0.21690  0.58521  0.63531  Biso   1.000  O
  O19      1.0000 0.78310  0.08521  0.86469  Biso   1.000  O
  O20      1.0000 0.71690  0.08521  0.13531  Biso   1.000  O
  O21      1.0000 0.71690  0.41479  0.63531  Biso   1.000  O
  O22      1.0000 0.78310  0.41479  0.36469  Biso   1.000  O
  O23      1.0000 0.21690  0.91479  0.13531  Biso   1.000  O
  O24      1.0000 0.28310  0.91479  0.86469  Biso   1.000  O
  O25      1.0000 0.37259  0.76596  0.36588  Biso   1.000  O
  O26      1.0000 0.12741  0.76596  0.63412  Biso   1.000  O
  O27      1.0000 0.87259  0.26596  0.86588  Biso   1.000  O
  O28      1.0000 0.62741  0.26596  0.13412  Biso   1.000  O
  O29      1.0000 0.62741  0.23404  0.63412  Biso   1.000  O
  O30      1.0000 0.87259  0.23404  0.36588  Biso   1.000  O
  O31      1.0000 0.12741  0.73404  0.13412  Biso   1.000  O
  O32      1.0000 0.37259  0.73404  0.86588  Biso   1.000  O
  N1       1.0000 0.76470  0.84800  0.39900  Biso   1.000  N
  N2       1.0000 0.73530  0.84800  0.60100  Biso   1.000  N
  N3       1.0000 0.26470  0.34800  0.89900  Biso   1.000  N
  N4       1.0000 0.23530  0.34800  0.10100  Biso   1.000  N
  N5       1.0000 0.23530  0.15200  0.60100  Biso   1.000  N
  N6       1.0000 0.26470  0.15200  0.39900  Biso   1.000  N
  N7       1.0000 0.73530  0.65200  0.10100  Biso   1.000  N
  N8       1.0000 0.76470  0.65200  0.89900  Biso   1.000  N
  N9       1.0000 0.39469  0.66213  0.34434  Biso   1.000  N
  N10      1.0000 0.10531  0.66213  0.65566  Biso   1.000  N
  N11      1.0000 0.89469  0.16213  0.84434  Biso   1.000  N
  N12      1.0000 0.60531  0.16213  0.15566  Biso   1.000  N
  N13      1.0000 0.60531  0.33787  0.65566  Biso   1.000  N
  N14      1.0000 0.89469  0.33787  0.34434  Biso   1.000  N
  N15      1.0000 0.10531  0.83787  0.15566  Biso   1.000  N
  N16      1.0000 0.39469  0.83787  0.84434  Biso   1.000  N
  C1       1.0000 0.75000  0.02806  0.50000  Biso   1.000  C
  C2       1.0000 0.25000  0.52806  0.00000  Biso   1.000  C
  C3       1.0000 0.25000  0.97194  0.50000  Biso   1.000  C
  C4       1.0000 0.75000  0.47194  0.00000  Biso   1.000  C
  H1       1.0000 0.75000  0.10580  0.50000  Biso   1.000  H
  H2       1.0000 0.25000  0.60580  0.00000  Biso   1.000  H
  H3       1.0000 0.25000  0.89420  0.50000  Biso   1.000  H
  H4       1.0000 0.75000  0.39420  0.00000  Biso   1.000  H
  C5       1.0000 0.75000  0.79400  0.50000  Biso   1.000  C
  C6       1.0000 0.25000  0.29400  0.00000  Biso   1.000  C
  C7       1.0000 0.25000  0.20600  0.50000  Biso   1.000  C
  C8       1.0000 0.75000  0.70600  0.00000  Biso   1.000  C
  H5       1.0000 0.75000  0.71200  0.50000  Biso   1.000  H
  H6       1.0000 0.25000  0.21200  0.00000  Biso   1.000  H
  H7       1.0000 0.25000  0.28800  0.50000  Biso   1.000  H
  H8       1.0000 0.75000  0.78800  0.00000  Biso   1.000  H
  C9       1.0000 0.76852  0.96543  0.39977  Biso   1.000  C
  C10      1.0000 0.73148  0.96543  0.60023  Biso   1.000  C
  C11      1.0000 0.26852  0.46543  0.89977  Biso   1.000  C
  C12      1.0000 0.23148  0.46543  0.10023  Biso   1.000  C
  C13      1.0000 0.23148  0.03457  0.60023  Biso   1.000  C
  C14      1.0000 0.26852  0.03457  0.39977  Biso   1.000  C
  C15      1.0000 0.73148  0.53457  0.10023  Biso   1.000  C
  C16      1.0000 0.76852  0.53457  0.89977  Biso   1.000  C
  H9       1.0000 0.78220  0.00310  0.33110  Biso   1.000  H
  H10      1.0000 0.71780  0.00310  0.66890  Biso   1.000  H
  H11      1.0000 0.28220  0.50310  0.83110  Biso   1.000  H
  H12      1.0000 0.21780  0.50310  0.16890  Biso   1.000  H
  H13      1.0000 0.21780  0.99690  0.66890  Biso   1.000  H
  H14      1.0000 0.28220  0.99690  0.33110  Biso   1.000  H
  H15      1.0000 0.71780  0.49690  0.16890  Biso   1.000  H
  H16      1.0000 0.78220  0.49690  0.83110  Biso   1.000  H
  H17      1.0000 0.88200  0.57220  0.35680  Biso   1.000  H
  H18      1.0000 0.61800  0.57220  0.64320  Biso   1.000  H
  H19      1.0000 0.38200  0.07220  0.85680  Biso   1.000  H
  H20      1.0000 0.11800  0.07220  0.14320  Biso   1.000  H
  H21      1.0000 0.11800  0.42780  0.64320  Biso   1.000  H
  H22      1.0000 0.38200  0.42780  0.35680  Biso   1.000  H
  H23      1.0000 0.61800  0.92780  0.14320  Biso   1.000  H
  H24      1.0000 0.88200  0.92780  0.85680  Biso   1.000  H
  H25      1.0000 0.03200  0.63370  0.35420  Biso   1.000  H
  H26      1.0000 0.46800  0.63370  0.64580  Biso   1.000  H
  H27      1.0000 0.53200  0.13370  0.85420  Biso   1.000  H
  H28      1.0000 0.96800  0.13370  0.14580  Biso   1.000  H
  H29      1.0000 0.96800  0.36630  0.64580  Biso   1.000  H
  H30      1.0000 0.53200  0.36630  0.35420  Biso   1.000  H
  H31      1.0000 0.46800  0.86630  0.14580  Biso   1.000  H
  H32      1.0000 0.03200  0.86630  0.85420  Biso   1.000  H
