data_image0
_cell_length_a       12.408
_cell_length_b       11.511
_cell_length_c       7.518
_cell_angle_alpha    90
_cell_angle_beta     114.99
_cell_angle_gamma    90

_symmetry_space_group_name_H-M    "P 1"
_symmetry_int_tables_number       1

loop_
  _symmetry_equiv_pos_as_xyz
  'x, y, z'

loop_
  _atom_site_label
  _atom_site_occupancy
  _atom_site_fract_x
  _atom_site_fract_y
  _atom_site_fract_z
  _atom_site_thermal_displace_type
  _atom_site_B_iso_or_equiv
  _atom_site_type_symbol
  Cu1      1.0000 0.25000  0.25000  0.00000  Biso   1.000  Cu
  Cu2      1.0000 0.75000  0.75000  0.00000  Biso   1.000  Cu
  Cu3      1.0000 0.75000  0.25000  0.50000  Biso   1.000  Cu
  Cu4      1.0000 0.25000  0.75000  0.50000  Biso   1.000  Cu
  O1       1.0000 0.30255  0.12893  0.27400  Biso   1.000  O
  O2       1.0000 0.80255  0.62893  0.27400  Biso   1.000  O
  O3       1.0000 0.69745  0.12893  0.22600  Biso   1.000  O
  O4       1.0000 0.19745  0.62893  0.22600  Biso   1.000  O
  O5       1.0000 0.69745  0.87107  0.72600  Biso   1.000  O
  O6       1.0000 0.19745  0.37107  0.72600  Biso   1.000  O
  O7       1.0000 0.30255  0.87107  0.77400  Biso   1.000  O
  O8       1.0000 0.80255  0.37107  0.77400  Biso   1.000  O
  O9       1.0000 0.36590  0.26462  0.49420  Biso   1.000  O
  O10      1.0000 0.86590  0.76462  0.49420  Biso   1.000  O
  O11      1.0000 0.63410  0.26462  0.00580  Biso   1.000  O
  O12      1.0000 0.13410  0.76462  0.00580  Biso   1.000  O
  O13      1.0000 0.63410  0.73538  0.50580  Biso   1.000  O
  O14      1.0000 0.13410  0.23538  0.50580  Biso   1.000  O
  O15      1.0000 0.36590  0.73538  0.99420  Biso   1.000  O
  O16      1.0000 0.86590  0.23538  0.99420  Biso   1.000  O
  O17      1.0000 0.36386  0.08531  0.58062  Biso   1.000  O
  O18      1.0000 0.86386  0.58531  0.58062  Biso   1.000  O
  O19      1.0000 0.63614  0.08531  0.91938  Biso   1.000  O
  O20      1.0000 0.13614  0.58531  0.91938  Biso   1.000  O
  O21      1.0000 0.63614  0.91469  0.41938  Biso   1.000  O
  O22      1.0000 0.13614  0.41469  0.41938  Biso   1.000  O
  O23      1.0000 0.36386  0.91469  0.08062  Biso   1.000  O
  O24      1.0000 0.86386  0.41469  0.08062  Biso   1.000  O
  O25      1.0000 0.34933  0.13604  0.93130  Biso   1.000  O
  O26      1.0000 0.84933  0.63604  0.93130  Biso   1.000  O
  O27      1.0000 0.65067  0.13604  0.56870  Biso   1.000  O
  O28      1.0000 0.15067  0.63604  0.56870  Biso   1.000  O
  O29      1.0000 0.65067  0.86396  0.06870  Biso   1.000  O
  O30      1.0000 0.15067  0.36396  0.06870  Biso   1.000  O
  O31      1.0000 0.34933  0.86396  0.43130  Biso   1.000  O
  O32      1.0000 0.84933  0.36396  0.43130  Biso   1.000  O
  N1       1.0000 0.34458  0.16213  0.45010  Biso   1.000  N
  N2       1.0000 0.84458  0.66213  0.45010  Biso   1.000  N
  N3       1.0000 0.65542  0.16213  0.04990  Biso   1.000  N
  N4       1.0000 0.15542  0.66213  0.04990  Biso   1.000  N
  N5       1.0000 0.65542  0.83787  0.54990  Biso   1.000  N
  N6       1.0000 0.15542  0.33787  0.54990  Biso   1.000  N
  N7       1.0000 0.34458  0.83787  0.95010  Biso   1.000  N
  N8       1.0000 0.84458  0.33787  0.95010  Biso   1.000  N
  N9       1.0000 0.39930  0.34724  0.13540  Biso   1.000  N
  N10      1.0000 0.89930  0.84724  0.13540  Biso   1.000  N
  N11      1.0000 0.60070  0.34724  0.36460  Biso   1.000  N
  N12      1.0000 0.10070  0.84724  0.36460  Biso   1.000  N
  N13      1.0000 0.60070  0.65276  0.86460  Biso   1.000  N
  N14      1.0000 0.10070  0.15276  0.86460  Biso   1.000  N
  N15      1.0000 0.39930  0.65276  0.63540  Biso   1.000  N
  N16      1.0000 0.89930  0.15276  0.63540  Biso   1.000  N
  C1       1.0000 0.50000  0.29390  0.25000  Biso   1.000  C
  C2       1.0000 0.00000  0.79390  0.25000  Biso   1.000  C
  C3       1.0000 0.50000  0.70610  0.75000  Biso   1.000  C
  C4       1.0000 0.00000  0.20610  0.75000  Biso   1.000  C
  C5       1.0000 0.40005  0.46374  0.13270  Biso   1.000  C
  C6       1.0000 0.90005  0.96374  0.13270  Biso   1.000  C
  C7       1.0000 0.59995  0.46374  0.36730  Biso   1.000  C
  C8       1.0000 0.09995  0.96374  0.36730  Biso   1.000  C
  C9       1.0000 0.59995  0.53626  0.86730  Biso   1.000  C
  C10      1.0000 0.09995  0.03626  0.86730  Biso   1.000  C
  C11      1.0000 0.40005  0.53626  0.63270  Biso   1.000  C
  C12      1.0000 0.90005  0.03626  0.63270  Biso   1.000  C
  C13      1.0000 0.50000  0.52620  0.25000  Biso   1.000  C
  C14      1.0000 0.00000  0.02620  0.25000  Biso   1.000  C
  C15      1.0000 0.50000  0.47380  0.75000  Biso   1.000  C
  C16      1.0000 0.00000  0.97380  0.75000  Biso   1.000  C
  H1       1.0000 0.50000  0.20700  0.25000  Biso   1.000  H
  H2       1.0000 0.00000  0.70700  0.25000  Biso   1.000  H
  H3       1.0000 0.50000  0.79300  0.75000  Biso   1.000  H
  H4       1.0000 0.00000  0.29300  0.75000  Biso   1.000  H
  H5       1.0000 0.33100  0.50200  0.05300  Biso   1.000  H
  H6       1.0000 0.83100  0.00200  0.05300  Biso   1.000  H
  H7       1.0000 0.66900  0.50200  0.44700  Biso   1.000  H
  H8       1.0000 0.16900  0.00200  0.44700  Biso   1.000  H
  H9       1.0000 0.66900  0.49800  0.94700  Biso   1.000  H
  H10      1.0000 0.16900  0.99800  0.94700  Biso   1.000  H
  H11      1.0000 0.33100  0.49800  0.55300  Biso   1.000  H
  H12      1.0000 0.83100  0.99800  0.55300  Biso   1.000  H
  H13      1.0000 0.50000  0.60000  0.25000  Biso   1.000  H
  H14      1.0000 0.00000  0.10000  0.25000  Biso   1.000  H
  H15      1.0000 0.50000  0.40000  0.75000  Biso   1.000  H
  H16      1.0000 0.00000  0.90000  0.75000  Biso   1.000  H
  H17      1.0000 0.35400  0.06800  0.97100  Biso   1.000  H
  H18      1.0000 0.85400  0.56800  0.97100  Biso   1.000  H
  H19      1.0000 0.64600  0.06800  0.52900  Biso   1.000  H
  H20      1.0000 0.14600  0.56800  0.52900  Biso   1.000  H
  H21      1.0000 0.64600  0.93200  0.02900  Biso   1.000  H
  H22      1.0000 0.14600  0.43200  0.02900  Biso   1.000  H
  H23      1.0000 0.35400  0.93200  0.47100  Biso   1.000  H
  H24      1.0000 0.85400  0.43200  0.47100  Biso   1.000  H
  H25      1.0000 0.34900  0.13200  0.82800  Biso   1.000  H
  H26      1.0000 0.84900  0.63200  0.82800  Biso   1.000  H
  H27      1.0000 0.65100  0.13200  0.67200  Biso   1.000  H
  H28      1.0000 0.15100  0.63200  0.67200  Biso   1.000  H
  H29      1.0000 0.65100  0.86800  0.17200  Biso   1.000  H
  H30      1.0000 0.15100  0.36800  0.17200  Biso   1.000  H
  H31      1.0000 0.34900  0.86800  0.32800  Biso   1.000  H
  H32      1.0000 0.84900  0.36800  0.32800  Biso   1.000  H
