data_image0
_cell_length_a       13.662
_cell_length_b       23.197
_cell_length_c       18.914
_cell_angle_alpha    90
_cell_angle_beta     110.074
_cell_angle_gamma    90

_symmetry_space_group_name_H-M    "P 1"
_symmetry_int_tables_number       1

loop_
  _symmetry_equiv_pos_as_xyz
  'x, y, z'

loop_
  _atom_site_label
  _atom_site_occupancy
  _atom_site_fract_x
  _atom_site_fract_y
  _atom_site_fract_z
  _atom_site_thermal_displace_type
  _atom_site_B_iso_or_equiv
  _atom_site_type_symbol
  Cu1      1.0000 0.37282  0.21187  0.99364  Biso   1.000  Cu
  Cu2      1.0000 0.37282  0.28813  0.49364  Biso   1.000  Cu
  Cu3      1.0000 0.62718  0.78813  0.00636  Biso   1.000  Cu
  Cu4      1.0000 0.62718  0.71187  0.50636  Biso   1.000  Cu
  Cu5      1.0000 0.00000  0.50000  0.50000  Biso   1.000  Cu
  Cu6      1.0000 0.00000  0.00000  0.00000  Biso   1.000  Cu
  N1       1.0000 0.55750  0.18220  0.21270  Biso   1.000  N
  N2       1.0000 0.55750  0.31780  0.71270  Biso   1.000  N
  N3       1.0000 0.44250  0.81780  0.78730  Biso   1.000  N
  N4       1.0000 0.44250  0.68220  0.28730  Biso   1.000  N
  N5       1.0000 0.44380  0.20800  0.10420  Biso   1.000  N
  N6       1.0000 0.44380  0.29200  0.60420  Biso   1.000  N
  N7       1.0000 0.55620  0.79200  0.89580  Biso   1.000  N
  N8       1.0000 0.55620  0.70800  0.39580  Biso   1.000  N
  N9       1.0000 0.82510  0.39140  0.33240  Biso   1.000  N
  N10      1.0000 0.82510  0.10860  0.83240  Biso   1.000  N
  N11      1.0000 0.17490  0.60860  0.66760  Biso   1.000  N
  N12      1.0000 0.17490  0.89140  0.16760  Biso   1.000  N
  N13      1.0000 0.89310  0.44910  0.42960  Biso   1.000  N
  N14      1.0000 0.89310  0.05090  0.92960  Biso   1.000  N
  N15      1.0000 0.10690  0.55090  0.57040  Biso   1.000  N
  N16      1.0000 0.10690  0.94910  0.07040  Biso   1.000  N
  N17      1.0000 0.51080  0.27230  0.48200  Biso   1.000  N
  N18      1.0000 0.51080  0.22770  0.98200  Biso   1.000  N
  N19      1.0000 0.48920  0.72770  0.51800  Biso   1.000  N
  N20      1.0000 0.48920  0.77230  0.01800  Biso   1.000  N
  N21      1.0000 0.65870  0.22860  0.49880  Biso   1.000  N
  N22      1.0000 0.65870  0.27140  0.99880  Biso   1.000  N
  N23      1.0000 0.34130  0.77140  0.50120  Biso   1.000  N
  N24      1.0000 0.34130  0.72860  0.00120  Biso   1.000  N
  N25      1.0000 0.30180  0.21520  0.88310  Biso   1.000  N
  N26      1.0000 0.30180  0.28480  0.38310  Biso   1.000  N
  N27      1.0000 0.69820  0.78480  0.11690  Biso   1.000  N
  N28      1.0000 0.69820  0.71520  0.61690  Biso   1.000  N
  N29      1.0000 0.19160  0.19490  0.77160  Biso   1.000  N
  N30      1.0000 0.19160  0.30510  0.27160  Biso   1.000  N
  N31      1.0000 0.80840  0.80510  0.22840  Biso   1.000  N
  N32      1.0000 0.80840  0.69490  0.72840  Biso   1.000  N
  N33      1.0000 0.23390  0.27560  0.50510  Biso   1.000  N
  N34      1.0000 0.23390  0.22440  0.00510  Biso   1.000  N
  N35      1.0000 0.76610  0.72440  0.49490  Biso   1.000  N
  N36      1.0000 0.76610  0.77560  0.99490  Biso   1.000  N
  N37      1.0000 0.08350  0.23220  0.48760  Biso   1.000  N
  N38      1.0000 0.08350  0.26780  0.98760  Biso   1.000  N
  N39      1.0000 0.91650  0.76780  0.51240  Biso   1.000  N
  N40      1.0000 0.91650  0.73220  0.01240  Biso   1.000  N
  N41      1.0000 0.01570  0.44720  0.58620  Biso   1.000  N
  N42      1.0000 0.01570  0.05280  0.08620  Biso   1.000  N
  N43      1.0000 0.98430  0.55280  0.41380  Biso   1.000  N
  N44      1.0000 0.98430  0.94720  0.91380  Biso   1.000  N
  N45      1.0000 0.97810  0.39260  0.66850  Biso   1.000  N
  N46      1.0000 0.97810  0.10740  0.16850  Biso   1.000  N
  N47      1.0000 0.02190  0.60740  0.33150  Biso   1.000  N
  N48      1.0000 0.02190  0.89260  0.83150  Biso   1.000  N
  C1       1.0000 0.82390  0.17740  0.35990  Biso   1.000  C
  C2       1.0000 0.82390  0.32260  0.85990  Biso   1.000  C
  C3       1.0000 0.17610  0.82260  0.64010  Biso   1.000  C
  C4       1.0000 0.17610  0.67740  0.14010  Biso   1.000  C
  H1       1.0000 0.82220  0.13060  0.38350  Biso   1.000  H
  H2       1.0000 0.82220  0.36940  0.88350  Biso   1.000  H
  H3       1.0000 0.17780  0.86940  0.61650  Biso   1.000  H
  H4       1.0000 0.17780  0.63060  0.11650  Biso   1.000  H
  C5       1.0000 0.90860  0.21450  0.39140  Biso   1.000  C
  C6       1.0000 0.90860  0.28550  0.89140  Biso   1.000  C
  C7       1.0000 0.09140  0.78550  0.60860  Biso   1.000  C
  C8       1.0000 0.09140  0.71450  0.10860  Biso   1.000  C
  C9       1.0000 0.90620  0.26970  0.36360  Biso   1.000  C
  C10      1.0000 0.90620  0.23030  0.86360  Biso   1.000  C
  C11      1.0000 0.09380  0.73030  0.63640  Biso   1.000  C
  C12      1.0000 0.09380  0.76970  0.13640  Biso   1.000  C
  H5       1.0000 0.97290  0.29490  0.38260  Biso   1.000  H
  H6       1.0000 0.97290  0.20510  0.88260  Biso   1.000  H
  H7       1.0000 0.02710  0.70510  0.61740  Biso   1.000  H
  H8       1.0000 0.02710  0.79490  0.11740  Biso   1.000  H
  C13      1.0000 0.82190  0.28880  0.30440  Biso   1.000  C
  C14      1.0000 0.82190  0.21120  0.80440  Biso   1.000  C
  C15      1.0000 0.17810  0.71120  0.69560  Biso   1.000  C
  C16      1.0000 0.17810  0.78880  0.19560  Biso   1.000  C
  C17      1.0000 0.73780  0.25130  0.27140  Biso   1.000  C
  C18      1.0000 0.73780  0.24870  0.77140  Biso   1.000  C
  C19      1.0000 0.26220  0.74870  0.72860  Biso   1.000  C
  C20      1.0000 0.26220  0.75130  0.22860  Biso   1.000  C
  H9       1.0000 0.67860  0.27580  0.23220  Biso   1.000  H
  H10      1.0000 0.67860  0.22420  0.73220  Biso   1.000  H
  H11      1.0000 0.32140  0.72420  0.76780  Biso   1.000  H
  H12      1.0000 0.32140  0.77580  0.26780  Biso   1.000  H
  C21      1.0000 0.73800  0.19680  0.29930  Biso   1.000  C
  C22      1.0000 0.73800  0.30320  0.79930  Biso   1.000  C
  C23      1.0000 0.26200  0.80320  0.70070  Biso   1.000  C
  C24      1.0000 0.26200  0.69680  0.20070  Biso   1.000  C
  C25      1.0000 0.64920  0.15460  0.26720  Biso   1.000  C
  C26      1.0000 0.64920  0.34540  0.76720  Biso   1.000  C
  C27      1.0000 0.35080  0.84540  0.73280  Biso   1.000  C
  C28      1.0000 0.35080  0.65460  0.23280  Biso   1.000  C
  H13      1.0000 0.67220  0.12330  0.24280  Biso   1.000  H
  H14      1.0000 0.67220  0.37670  0.74280  Biso   1.000  H
  H15      1.0000 0.32780  0.87670  0.75720  Biso   1.000  H
  H16      1.0000 0.32780  0.62330  0.25720  Biso   1.000  H
  H17      1.0000 0.63000  0.13840  0.30790  Biso   1.000  H
  H18      1.0000 0.63000  0.36160  0.80790  Biso   1.000  H
  H19      1.0000 0.37000  0.86160  0.69210  Biso   1.000  H
  H20      1.0000 0.37000  0.63840  0.19210  Biso   1.000  H
  C29      1.0000 0.52560  0.17560  0.13900  Biso   1.000  C
  C30      1.0000 0.52560  0.32440  0.63900  Biso   1.000  C
  C31      1.0000 0.47440  0.82440  0.86100  Biso   1.000  C
  C32      1.0000 0.47440  0.67560  0.36100  Biso   1.000  C
  H21      1.0000 0.55700  0.15100  0.11440  Biso   1.000  H
  H22      1.0000 0.55700  0.34900  0.61440  Biso   1.000  H
  H23      1.0000 0.44300  0.84900  0.88560  Biso   1.000  H
  H24      1.0000 0.44300  0.65100  0.38560  Biso   1.000  H
  C33      1.0000 0.42340  0.23620  0.16130  Biso   1.000  C
  C34      1.0000 0.42340  0.26380  0.66130  Biso   1.000  C
  C35      1.0000 0.57660  0.76380  0.83870  Biso   1.000  C
  C36      1.0000 0.57660  0.73620  0.33870  Biso   1.000  C
  H25      1.0000 0.36870  0.26190  0.15440  Biso   1.000  H
  H26      1.0000 0.36870  0.23810  0.65440  Biso   1.000  H
  H27      1.0000 0.63130  0.73810  0.84560  Biso   1.000  H
  H28      1.0000 0.63130  0.76190  0.34560  Biso   1.000  H
  C37      1.0000 0.49250  0.22180  0.22820  Biso   1.000  C
  C38      1.0000 0.49250  0.27820  0.72820  Biso   1.000  C
  C39      1.0000 0.50750  0.77820  0.77180  Biso   1.000  C
  C40      1.0000 0.50750  0.72180  0.27180  Biso   1.000  C
  H29      1.0000 0.49600  0.23930  0.28870  Biso   1.000  H
  H30      1.0000 0.49600  0.26070  0.78870  Biso   1.000  H
  H31      1.0000 0.50400  0.76070  0.71130  Biso   1.000  H
  H32      1.0000 0.50400  0.73930  0.21130  Biso   1.000  H
  C41      1.0000 0.81870  0.35030  0.27460  Biso   1.000  C
  C42      1.0000 0.81870  0.14970  0.77460  Biso   1.000  C
  C43      1.0000 0.18130  0.64970  0.72540  Biso   1.000  C
  C44      1.0000 0.18130  0.85030  0.22540  Biso   1.000  C
  H33      1.0000 0.87640  0.35610  0.25660  Biso   1.000  H
  H34      1.0000 0.87640  0.14390  0.75660  Biso   1.000  H
  H35      1.0000 0.12360  0.64390  0.74340  Biso   1.000  H
  H36      1.0000 0.12360  0.85610  0.24340  Biso   1.000  H
  H37      1.0000 0.75440  0.35610  0.23270  Biso   1.000  H
  H38      1.0000 0.75440  0.14390  0.73270  Biso   1.000  H
  H39      1.0000 0.24560  0.64390  0.76730  Biso   1.000  H
  H40      1.0000 0.24560  0.85610  0.26730  Biso   1.000  H
  C45      1.0000 0.91070  0.41850  0.37610  Biso   1.000  C
  C46      1.0000 0.91070  0.08150  0.87610  Biso   1.000  C
  C47      1.0000 0.08930  0.58150  0.62390  Biso   1.000  C
  C48      1.0000 0.08930  0.91850  0.12390  Biso   1.000  C
  H41      1.0000 0.97510  0.41610  0.36970  Biso   1.000  H
  H42      1.0000 0.97510  0.08390  0.86970  Biso   1.000  H
  H43      1.0000 0.02490  0.58390  0.63030  Biso   1.000  H
  H44      1.0000 0.02490  0.91610  0.13030  Biso   1.000  H
  C49      1.0000 0.78840  0.44180  0.41840  Biso   1.000  C
  C50      1.0000 0.78840  0.05820  0.91840  Biso   1.000  C
  C51      1.0000 0.21160  0.55820  0.58160  Biso   1.000  C
  C52      1.0000 0.21160  0.94180  0.08160  Biso   1.000  C
  H45      1.0000 0.75240  0.45850  0.44690  Biso   1.000  H
  H46      1.0000 0.75240  0.04150  0.94690  Biso   1.000  H
  H47      1.0000 0.24760  0.54150  0.55310  Biso   1.000  H
  H48      1.0000 0.24760  0.95850  0.05310  Biso   1.000  H
  C53      1.0000 0.74720  0.40590  0.35840  Biso   1.000  C
  C54      1.0000 0.74720  0.09410  0.85840  Biso   1.000  C
  C55      1.0000 0.25280  0.59410  0.64160  Biso   1.000  C
  C56      1.0000 0.25280  0.90590  0.14160  Biso   1.000  C
  H49      1.0000 0.67830  0.39360  0.33880  Biso   1.000  H
  H50      1.0000 0.67830  0.10640  0.83880  Biso   1.000  H
  H51      1.0000 0.32170  0.60640  0.66120  Biso   1.000  H
  H52      1.0000 0.32170  0.89360  0.16120  Biso   1.000  H
  C57      1.0000 0.99780  0.19160  0.45820  Biso   1.000  C
  C58      1.0000 0.99780  0.30840  0.95820  Biso   1.000  C
  C59      1.0000 0.00220  0.80840  0.54180  Biso   1.000  C
  C60      1.0000 0.00220  0.69160  0.04180  Biso   1.000  C
  H53      1.0000 0.97130  0.18180  0.49810  Biso   1.000  H
  H54      1.0000 0.97130  0.31820  0.99810  Biso   1.000  H
  H55      1.0000 0.02870  0.81820  0.50190  Biso   1.000  H
  H56      1.0000 0.02870  0.68180  0.00190  Biso   1.000  H
  H57      1.0000 0.02420  0.15660  0.44330  Biso   1.000  H
  H58      1.0000 0.02420  0.34340  0.94330  Biso   1.000  H
  H59      1.0000 0.97580  0.84340  0.55670  Biso   1.000  H
  H60      1.0000 0.97580  0.65660  0.05670  Biso   1.000  H
  C61      1.0000 0.57520  0.23240  0.52070  Biso   1.000  C
  C62      1.0000 0.57520  0.26760  0.02070  Biso   1.000  C
  C63      1.0000 0.42480  0.76760  0.47930  Biso   1.000  C
  C64      1.0000 0.42480  0.73240  0.97930  Biso   1.000  C
  H61      1.0000 0.56450  0.20990  0.55810  Biso   1.000  H
  H62      1.0000 0.56450  0.29010  0.05810  Biso   1.000  H
  H63      1.0000 0.43550  0.79010  0.44190  Biso   1.000  H
  H64      1.0000 0.43550  0.70990  0.94190  Biso   1.000  H
  C65      1.0000 0.55670  0.29580  0.43420  Biso   1.000  C
  C66      1.0000 0.55670  0.20420  0.93420  Biso   1.000  C
  C67      1.0000 0.44330  0.70420  0.56580  Biso   1.000  C
  C68      1.0000 0.44330  0.79580  0.06580  Biso   1.000  C
  H65      1.0000 0.51660  0.33490  0.39650  Biso   1.000  H
  H66      1.0000 0.51660  0.16510  0.89650  Biso   1.000  H
  H67      1.0000 0.48340  0.66510  0.60350  Biso   1.000  H
  H68      1.0000 0.48340  0.83490  0.10350  Biso   1.000  H
  C69      1.0000 0.64890  0.26830  0.44540  Biso   1.000  C
  C70      1.0000 0.64890  0.23170  0.94540  Biso   1.000  C
  C71      1.0000 0.35110  0.73170  0.55460  Biso   1.000  C
  C72      1.0000 0.35110  0.76830  0.05460  Biso   1.000  C
  H69      1.0000 0.71360  0.27170  0.42380  Biso   1.000  H
  H70      1.0000 0.71360  0.22830  0.92380  Biso   1.000  H
  H71      1.0000 0.28640  0.72830  0.57620  Biso   1.000  H
  H72      1.0000 0.28640  0.77170  0.07620  Biso   1.000  H
  C73      1.0000 0.74620  0.18950  0.53120  Biso   1.000  C
  C74      1.0000 0.74620  0.31050  0.03120  Biso   1.000  C
  C75      1.0000 0.25380  0.81050  0.46880  Biso   1.000  C
  C76      1.0000 0.25380  0.68950  0.96880  Biso   1.000  C
  H73      1.0000 0.72200  0.15570  0.55070  Biso   1.000  H
  H74      1.0000 0.72200  0.34430  0.05070  Biso   1.000  H
  H75      1.0000 0.27800  0.84430  0.44930  Biso   1.000  H
  H76      1.0000 0.27800  0.65570  0.94930  Biso   1.000  H
  H77      1.0000 0.77170  0.17680  0.49180  Biso   1.000  H
  H78      1.0000 0.77170  0.32320  0.99180  Biso   1.000  H
  H79      1.0000 0.22830  0.82320  0.50820  Biso   1.000  H
  H80      1.0000 0.22830  0.67680  0.00820  Biso   1.000  H
  H81      1.0000 0.66800  0.20700  0.38900  Biso   1.000  H
  H82      1.0000 0.66800  0.29300  0.88900  Biso   1.000  H
  H83      1.0000 0.33200  0.79300  0.61100  Biso   1.000  H
  H84      1.0000 0.33200  0.70700  0.11100  Biso   1.000  H
  C77      1.0000 0.83640  0.21680  0.59470  Biso   1.000  C
  C78      1.0000 0.83640  0.28320  0.09470  Biso   1.000  C
  C79      1.0000 0.16360  0.78320  0.40530  Biso   1.000  C
  C80      1.0000 0.16360  0.71680  0.90530  Biso   1.000  C
  C81      1.0000 0.83250  0.27220  0.61940  Biso   1.000  C
  C82      1.0000 0.83250  0.22780  0.11940  Biso   1.000  C
  C83      1.0000 0.16750  0.72780  0.38060  Biso   1.000  C
  C84      1.0000 0.16750  0.77220  0.88060  Biso   1.000  C
  H85      1.0000 0.76500  0.29480  0.59570  Biso   1.000  H
  H86      1.0000 0.76500  0.20520  0.09570  Biso   1.000  H
  H87      1.0000 0.23500  0.70520  0.40430  Biso   1.000  H
  H88      1.0000 0.23500  0.79480  0.90430  Biso   1.000  H
  C85      1.0000 0.91780  0.29500  0.67790  Biso   1.000  C
  C86      1.0000 0.91780  0.20500  0.17790  Biso   1.000  C
  C87      1.0000 0.08220  0.70500  0.32210  Biso   1.000  C
  C88      1.0000 0.08220  0.79500  0.82210  Biso   1.000  C
  C89      1.0000 0.00690  0.25980  0.71000  Biso   1.000  C
  C90      1.0000 0.00690  0.24020  0.21000  Biso   1.000  C
  C91      1.0000 0.99310  0.74020  0.29000  Biso   1.000  C
  C92      1.0000 0.99310  0.75980  0.79000  Biso   1.000  C
  H89      1.0000 0.07830  0.27900  0.74980  Biso   1.000  H
  H90      1.0000 0.07830  0.22100  0.24980  Biso   1.000  H
  H91      1.0000 0.92170  0.72100  0.25020  Biso   1.000  H
  H92      1.0000 0.92170  0.77900  0.75020  Biso   1.000  H
  C93      1.0000 0.01090  0.20570  0.68380  Biso   1.000  C
  C94      1.0000 0.01090  0.29430  0.18380  Biso   1.000  C
  C95      1.0000 0.98910  0.79430  0.31620  Biso   1.000  C
  C96      1.0000 0.98910  0.70570  0.81620  Biso   1.000  C
  C97      1.0000 0.92450  0.18270  0.62620  Biso   1.000  C
  C98      1.0000 0.92450  0.31730  0.12620  Biso   1.000  C
  C99      1.0000 0.07550  0.81730  0.37380  Biso   1.000  C
  C100     1.0000 0.07550  0.68270  0.87380  Biso   1.000  C
  H93      1.0000 0.92190  0.13300  0.60100  Biso   1.000  H
  H94      1.0000 0.92190  0.36700  0.10100  Biso   1.000  H
  H95      1.0000 0.07810  0.86700  0.39900  Biso   1.000  H
  H96      1.0000 0.07810  0.63300  0.89900  Biso   1.000  H
  C101     1.0000 0.10500  0.16650  0.71230  Biso   1.000  C
  C102     1.0000 0.10500  0.33350  0.21230  Biso   1.000  C
  C103     1.0000 0.89500  0.83350  0.28770  Biso   1.000  C
  C104     1.0000 0.89500  0.66650  0.78770  Biso   1.000  C
  H97      1.0000 0.12780  0.15600  0.67070  Biso   1.000  H
  H98      1.0000 0.12780  0.34400  0.17070  Biso   1.000  H
  H99      1.0000 0.87220  0.84400  0.32930  Biso   1.000  H
  H100     1.0000 0.87220  0.65600  0.82930  Biso   1.000  H
  H101     1.0000 0.08590  0.13150  0.73220  Biso   1.000  H
  H102     1.0000 0.08590  0.36850  0.23220  Biso   1.000  H
  H103     1.0000 0.91410  0.86850  0.26780  Biso   1.000  H
  H104     1.0000 0.91410  0.63150  0.76780  Biso   1.000  H
  C105     1.0000 0.31710  0.25220  0.83070  Biso   1.000  C
  C106     1.0000 0.31710  0.24780  0.33070  Biso   1.000  C
  C107     1.0000 0.68290  0.74780  0.16930  Biso   1.000  C
  C108     1.0000 0.68290  0.75220  0.66930  Biso   1.000  C
  H105     1.0000 0.36730  0.28110  0.84190  Biso   1.000  H
  H106     1.0000 0.36730  0.21890  0.34190  Biso   1.000  H
  H107     1.0000 0.63270  0.71890  0.15810  Biso   1.000  H
  H108     1.0000 0.63270  0.78110  0.65810  Biso   1.000  H
  C109     1.0000 0.25020  0.24110  0.76210  Biso   1.000  C
  C110     1.0000 0.25020  0.25890  0.26210  Biso   1.000  C
  C111     1.0000 0.74980  0.75890  0.23790  Biso   1.000  C
  C112     1.0000 0.74980  0.74110  0.73790  Biso   1.000  C
  H109     1.0000 0.22810  0.25970  0.69880  Biso   1.000  H
  H110     1.0000 0.22810  0.24030  0.19880  Biso   1.000  H
  H111     1.0000 0.77190  0.74030  0.30120  Biso   1.000  H
  H112     1.0000 0.77190  0.75970  0.80120  Biso   1.000  H
  C113     1.0000 0.22460  0.17980  0.84460  Biso   1.000  C
  C114     1.0000 0.22460  0.32020  0.34460  Biso   1.000  C
  C115     1.0000 0.77540  0.82020  0.15540  Biso   1.000  C
  C116     1.0000 0.77540  0.67980  0.65540  Biso   1.000  C
  H113     1.0000 0.19810  0.14970  0.86510  Biso   1.000  H
  H114     1.0000 0.19810  0.35030  0.36510  Biso   1.000  H
  H115     1.0000 0.80190  0.85030  0.13490  Biso   1.000  H
  H116     1.0000 0.80190  0.64970  0.63490  Biso   1.000  H
  C117     1.0000 0.17000  0.23250  0.47080  Biso   1.000  C
  C118     1.0000 0.17000  0.26750  0.97080  Biso   1.000  C
  C119     1.0000 0.83000  0.76750  0.52920  Biso   1.000  C
  C120     1.0000 0.83000  0.73250  0.02920  Biso   1.000  C
  H117     1.0000 0.18470  0.20600  0.43900  Biso   1.000  H
  H118     1.0000 0.18470  0.29400  0.93900  Biso   1.000  H
  H119     1.0000 0.81530  0.79400  0.56100  Biso   1.000  H
  H120     1.0000 0.81530  0.70600  0.06100  Biso   1.000  H
  C121     1.0000 0.09190  0.27820  0.53560  Biso   1.000  C
  C122     1.0000 0.09190  0.22180  0.03560  Biso   1.000  C
  C123     1.0000 0.90810  0.72180  0.46440  Biso   1.000  C
  C124     1.0000 0.90810  0.77820  0.96440  Biso   1.000  C
  H121     1.0000 0.04380  0.27530  0.55540  Biso   1.000  H
  H122     1.0000 0.04380  0.22470  0.05540  Biso   1.000  H
  H123     1.0000 0.95620  0.72470  0.44460  Biso   1.000  H
  H124     1.0000 0.95620  0.77530  0.94460  Biso   1.000  H
  C125     1.0000 0.18250  0.30360  0.54690  Biso   1.000  C
  C126     1.0000 0.18250  0.19640  0.04690  Biso   1.000  C
  C127     1.0000 0.81750  0.69640  0.45310  Biso   1.000  C
  C128     1.0000 0.81750  0.80360  0.95310  Biso   1.000  C
  H125     1.0000 0.22330  0.34200  0.58330  Biso   1.000  H
  H126     1.0000 0.22330  0.15800  0.08330  Biso   1.000  H
  H127     1.0000 0.77670  0.65800  0.41670  Biso   1.000  H
  H128     1.0000 0.77670  0.84200  0.91670  Biso   1.000  H
  C129     1.0000 0.10640  0.43410  0.64250  Biso   1.000  C
  C130     1.0000 0.10640  0.06590  0.14250  Biso   1.000  C
  C131     1.0000 0.89360  0.56590  0.35750  Biso   1.000  C
  C132     1.0000 0.89360  0.93410  0.85750  Biso   1.000  C
  H129     1.0000 0.19330  0.43990  0.65430  Biso   1.000  H
  H130     1.0000 0.19330  0.06010  0.15430  Biso   1.000  H
  H131     1.0000 0.80670  0.56010  0.34570  Biso   1.000  H
  H132     1.0000 0.80670  0.93990  0.84570  Biso   1.000  H
  C133     1.0000 0.08420  0.39930  0.69400  Biso   1.000  C
  C134     1.0000 0.08420  0.10070  0.19400  Biso   1.000  C
  C135     1.0000 0.91580  0.60070  0.30600  Biso   1.000  C
  C136     1.0000 0.91580  0.89930  0.80600  Biso   1.000  C
  H133     1.0000 0.13890  0.37510  0.73940  Biso   1.000  H
  H134     1.0000 0.13890  0.12490  0.23940  Biso   1.000  H
  H135     1.0000 0.86110  0.62490  0.26060  Biso   1.000  H
  H136     1.0000 0.86110  0.87510  0.76060  Biso   1.000  H
  C137     1.0000 0.94000  0.42130  0.60390  Biso   1.000  C
  C138     1.0000 0.94000  0.07870  0.10390  Biso   1.000  C
  C139     1.0000 0.06000  0.57870  0.39610  Biso   1.000  C
  C140     1.0000 0.06000  0.92130  0.89610  Biso   1.000  C
  H137     1.0000 0.86170  0.42410  0.57940  Biso   1.000  H
  H138     1.0000 0.86170  0.07590  0.07940  Biso   1.000  H
  H139     1.0000 0.13830  0.57590  0.42060  Biso   1.000  H
  H140     1.0000 0.13830  0.92410  0.92060  Biso   1.000  H
  C141     1.0000 0.91830  0.35660  0.70200  Biso   1.000  C
  C142     1.0000 0.91830  0.14340  0.20200  Biso   1.000  C
  C143     1.0000 0.08170  0.64340  0.29800  Biso   1.000  C
  C144     1.0000 0.08170  0.85660  0.79800  Biso   1.000  C
  H141     1.0000 0.94830  0.35900  0.75640  Biso   1.000  H
  H142     1.0000 0.94830  0.14100  0.25640  Biso   1.000  H
  H143     1.0000 0.05170  0.64100  0.24360  Biso   1.000  H
  H144     1.0000 0.05170  0.85900  0.74360  Biso   1.000  H
  H145     1.0000 0.84720  0.37070  0.68690  Biso   1.000  H
  H146     1.0000 0.84720  0.12930  0.18690  Biso   1.000  H
  H147     1.0000 0.15280  0.62930  0.31310  Biso   1.000  H
  H148     1.0000 0.15280  0.87070  0.81310  Biso   1.000  H
  C145     1.0000 0.14600  0.03600  0.81990  Biso   1.000  C
  C146     1.0000 0.14600  0.46400  0.31990  Biso   1.000  C
  C147     1.0000 0.85400  0.96400  0.18010  Biso   1.000  C
  C148     1.0000 0.85400  0.53600  0.68010  Biso   1.000  C
  O1       1.0000 0.25420  0.01150  0.81250  Biso   1.000  O
  O2       1.0000 0.25420  0.48850  0.31250  Biso   1.000  O
  O3       1.0000 0.74580  0.98850  0.18750  Biso   1.000  O
  O4       1.0000 0.74580  0.51150  0.68750  Biso   1.000  O
  O5       1.0000 0.36810  0.11030  0.99000  Biso   1.000  O
  O6       1.0000 0.36810  0.38970  0.49000  Biso   1.000  O
  O7       1.0000 0.63190  0.88970  0.01000  Biso   1.000  O
  O8       1.0000 0.63190  0.61030  0.51000  Biso   1.000  O
  O9       1.0000 0.14730  0.05100  0.96170  Biso   1.000  O
  O10      1.0000 0.14730  0.44900  0.46170  Biso   1.000  O
  O11      1.0000 0.85270  0.94900  0.03830  Biso   1.000  O
  O12      1.0000 0.85270  0.55100  0.53830  Biso   1.000  O
  O13      1.0000 0.32210  0.90850  0.92920  Biso   1.000  O
  O14      1.0000 0.32210  0.59150  0.42920  Biso   1.000  O
  O15      1.0000 0.67790  0.09150  0.07080  Biso   1.000  O
  O16      1.0000 0.67790  0.40850  0.57080  Biso   1.000  O
  O17      1.0000 0.37700  0.15330  0.50650  Biso   1.000  O
  O18      1.0000 0.37700  0.34670  0.00650  Biso   1.000  O
  O19      1.0000 0.62300  0.84670  0.49350  Biso   1.000  O
  O20      1.0000 0.62300  0.65330  0.99350  Biso   1.000  O
  O21      1.0000 0.94600  0.03950  0.71250  Biso   1.000  O
  O22      1.0000 0.94600  0.46050  0.21250  Biso   1.000  O
  O23      1.0000 0.05400  0.96050  0.28750  Biso   1.000  O
  O24      1.0000 0.05400  0.53950  0.78750  Biso   1.000  O
  O25      1.0000 0.26360  0.12890  0.61450  Biso   1.000  O
  O26      1.0000 0.26360  0.37110  0.11450  Biso   1.000  O
  O27      1.0000 0.73640  0.87110  0.38550  Biso   1.000  O
  O28      1.0000 0.73640  0.62890  0.88550  Biso   1.000  O
  O29      1.0000 0.56650  0.12720  0.64980  Biso   1.000  O
  O30      1.0000 0.56650  0.37280  0.14980  Biso   1.000  O
  O31      1.0000 0.43350  0.87280  0.35020  Biso   1.000  O
  O32      1.0000 0.43350  0.62720  0.85020  Biso   1.000  O
  O33      1.0000 0.49180  0.12670  0.38240  Biso   1.000  O
  O34      1.0000 0.49180  0.37330  0.88240  Biso   1.000  O
  O35      1.0000 0.50820  0.87330  0.61760  Biso   1.000  O
  O36      1.0000 0.50820  0.62670  0.11760  Biso   1.000  O
  O37      1.0000 0.63300  0.93500  0.87340  Biso   1.000  O
  O38      1.0000 0.63300  0.56500  0.37340  Biso   1.000  O
  O39      1.0000 0.36700  0.06500  0.12660  Biso   1.000  O
  O40      1.0000 0.36700  0.43500  0.62660  Biso   1.000  O
  O41      1.0000 0.46600  0.38080  0.26470  Biso   1.000  O
  O42      1.0000 0.46600  0.11920  0.76470  Biso   1.000  O
  O43      1.0000 0.53400  0.61920  0.73530  Biso   1.000  O
  O44      1.0000 0.53400  0.88080  0.23530  Biso   1.000  O
  O45      1.0000 0.14400  0.10380  0.38000  Biso   1.000  O
  O46      1.0000 0.14400  0.39620  0.88000  Biso   1.000  O
  O47      1.0000 0.85600  0.89620  0.62000  Biso   1.000  O
  O48      1.0000 0.85600  0.60380  0.12000  Biso   1.000  O
  O49      1.0000 0.89400  0.06320  0.51700  Biso   1.000  O
  O50      1.0000 0.89400  0.43680  0.01700  Biso   1.000  O
  O51      1.0000 0.10600  0.93680  0.48300  Biso   1.000  O
  O52      1.0000 0.10600  0.56320  0.98300  Biso   1.000  O
  O53      1.0000 0.72400  0.00750  0.67890  Biso   1.000  O
  O54      1.0000 0.72400  0.49250  0.17890  Biso   1.000  O
  O55      1.0000 0.27600  0.99250  0.32110  Biso   1.000  O
  O56      1.0000 0.27600  0.50750  0.82110  Biso   1.000  O
  O57      1.0000 0.61330  0.93040  0.74420  Biso   1.000  O
  O58      1.0000 0.61330  0.56960  0.24420  Biso   1.000  O
  O59      1.0000 0.38670  0.06960  0.25580  Biso   1.000  O
  O60      1.0000 0.38670  0.43040  0.75580  Biso   1.000  O
