data_image0
_cell_length_a       20.685
_cell_length_b       7.337
_cell_length_c       11.692
_cell_angle_alpha    90
_cell_angle_beta     95.73
_cell_angle_gamma    90

_symmetry_space_group_name_H-M    "P 1"
_symmetry_int_tables_number       1

loop_
  _symmetry_equiv_pos_as_xyz
  'x, y, z'

loop_
  _atom_site_label
  _atom_site_occupancy
  _atom_site_fract_x
  _atom_site_fract_y
  _atom_site_fract_z
  _atom_site_thermal_displace_type
  _atom_site_B_iso_or_equiv
  _atom_site_type_symbol
  Cu1      1.0000 0.69828  0.21790  0.57338  Biso   1.000  Cu
  Cu2      1.0000 0.19828  0.28210  0.07338  Biso   1.000  Cu
  Cu3      1.0000 0.30172  0.78210  0.42662  Biso   1.000  Cu
  Cu4      1.0000 0.80172  0.71790  0.92662  Biso   1.000  Cu
  Cl1      1.0000 0.60710  0.43210  0.32530  Biso   1.000  Cl
  Cl2      1.0000 0.10710  0.06790  0.82530  Biso   1.000  Cl
  Cl3      1.0000 0.39290  0.56790  0.67470  Biso   1.000  Cl
  Cl4      1.0000 0.89290  0.93210  0.17470  Biso   1.000  Cl
  O1       1.0000 0.56230  0.46600  0.41020  Biso   1.000  O
  O2       1.0000 0.06230  0.03400  0.91020  Biso   1.000  O
  O3       1.0000 0.43770  0.53400  0.58980  Biso   1.000  O
  O4       1.0000 0.93770  0.96600  0.08980  Biso   1.000  O
  O5       1.0000 0.57220  0.41200  0.21620  Biso   1.000  O
  O6       1.0000 0.07220  0.08800  0.71620  Biso   1.000  O
  O7       1.0000 0.42780  0.58800  0.78380  Biso   1.000  O
  O8       1.0000 0.92780  0.91200  0.28380  Biso   1.000  O
  O9       1.0000 0.64890  0.58510  0.32450  Biso   1.000  O
  O10      1.0000 0.14890  0.91490  0.82450  Biso   1.000  O
  O11      1.0000 0.35110  0.41490  0.67550  Biso   1.000  O
  O12      1.0000 0.85110  0.08510  0.17550  Biso   1.000  O
  O13      1.0000 0.64270  0.27180  0.35800  Biso   1.000  O
  O14      1.0000 0.14270  0.22820  0.85800  Biso   1.000  O
  O15      1.0000 0.35730  0.72820  0.64200  Biso   1.000  O
  O16      1.0000 0.85730  0.77180  0.14200  Biso   1.000  O
  N1       1.0000 0.60810  0.14800  0.61670  Biso   1.000  N
  N2       1.0000 0.10810  0.35200  0.11670  Biso   1.000  N
  N3       1.0000 0.39190  0.85200  0.38330  Biso   1.000  N
  N4       1.0000 0.89190  0.64800  0.88330  Biso   1.000  N
  N5       1.0000 0.69390  0.96640  0.51970  Biso   1.000  N
  N6       1.0000 0.19390  0.53360  0.01970  Biso   1.000  N
  N7       1.0000 0.30610  0.03360  0.48030  Biso   1.000  N
  N8       1.0000 0.80610  0.46640  0.98030  Biso   1.000  N
  N9       1.0000 0.78800  0.21380  0.50740  Biso   1.000  N
  N10      1.0000 0.28800  0.28620  0.00740  Biso   1.000  N
  N11      1.0000 0.21200  0.78620  0.49260  Biso   1.000  N
  N12      1.0000 0.71200  0.71380  0.99260  Biso   1.000  N
  N13      1.0000 0.69080  0.47180  0.61510  Biso   1.000  N
  N14      1.0000 0.19080  0.02820  0.11510  Biso   1.000  N
  N15      1.0000 0.30920  0.52820  0.38490  Biso   1.000  N
  N16      1.0000 0.80920  0.97180  0.88490  Biso   1.000  N
  N17      1.0000 0.73180  0.55950  0.66920  Biso   1.000  N
  N18      1.0000 0.23180  0.94050  0.16920  Biso   1.000  N
  N19      1.0000 0.26820  0.44050  0.33080  Biso   1.000  N
  N20      1.0000 0.76820  0.05950  0.83080  Biso   1.000  N
  N21      1.0000 0.77000  0.65100  0.72020  Biso   1.000  N
  N22      1.0000 0.27000  0.84900  0.22020  Biso   1.000  N
  N23      1.0000 0.23000  0.34900  0.27980  Biso   1.000  N
  N24      1.0000 0.73000  0.15100  0.77980  Biso   1.000  N
  C1       1.0000 0.59400  0.97100  0.59430  Biso   1.000  C
  C2       1.0000 0.09400  0.52900  0.09430  Biso   1.000  C
  C3       1.0000 0.40600  0.02900  0.40570  Biso   1.000  C
  C4       1.0000 0.90600  0.47100  0.90570  Biso   1.000  C
  C5       1.0000 0.53840  0.88900  0.62480  Biso   1.000  C
  C6       1.0000 0.03840  0.61100  0.12480  Biso   1.000  C
  C7       1.0000 0.46160  0.11100  0.37520  Biso   1.000  C
  C8       1.0000 0.96160  0.38900  0.87520  Biso   1.000  C
  C9       1.0000 0.49650  0.99200  0.68400  Biso   1.000  C
  C10      1.0000 0.99650  0.50800  0.18400  Biso   1.000  C
  C11      1.0000 0.50350  0.00800  0.31600  Biso   1.000  C
  C12      1.0000 0.00350  0.49200  0.81600  Biso   1.000  C
  C13      1.0000 0.51050  0.17100  0.70760  Biso   1.000  C
  C14      1.0000 0.01050  0.32900  0.20760  Biso   1.000  C
  C15      1.0000 0.48950  0.82900  0.29240  Biso   1.000  C
  C16      1.0000 0.98950  0.67100  0.79240  Biso   1.000  C
  C17      1.0000 0.56630  0.24500  0.67120  Biso   1.000  C
  C18      1.0000 0.06630  0.25500  0.17120  Biso   1.000  C
  C19      1.0000 0.43370  0.75500  0.32880  Biso   1.000  C
  C20      1.0000 0.93370  0.74500  0.82880  Biso   1.000  C
  C21      1.0000 0.64290  0.87520  0.53380  Biso   1.000  C
  C22      1.0000 0.14290  0.62480  0.03380  Biso   1.000  C
  C23      1.0000 0.35710  0.12480  0.46620  Biso   1.000  C
  C24      1.0000 0.85710  0.37520  0.96620  Biso   1.000  C
  C25      1.0000 0.74900  0.90100  0.46240  Biso   1.000  C
  C26      1.0000 0.24900  0.59900  0.96240  Biso   1.000  C
  C27      1.0000 0.25100  0.09900  0.53760  Biso   1.000  C
  C28      1.0000 0.75100  0.40100  0.03760  Biso   1.000  C
  C29      1.0000 0.78120  0.06800  0.41760  Biso   1.000  C
  C30      1.0000 0.28120  0.43200  0.91760  Biso   1.000  C
  C31      1.0000 0.21880  0.93200  0.58240  Biso   1.000  C
  C32      1.0000 0.71880  0.56800  0.08240  Biso   1.000  C
  C33      1.0000 0.84010  0.16800  0.60110  Biso   1.000  C
  C34      1.0000 0.34010  0.33200  0.10110  Biso   1.000  C
  C35      1.0000 0.15990  0.83200  0.39890  Biso   1.000  C
  C36      1.0000 0.65990  0.66800  0.89890  Biso   1.000  C
  C37      1.0000 0.90780  0.17000  0.56280  Biso   1.000  C
  C38      1.0000 0.40780  0.33000  0.06280  Biso   1.000  C
  C39      1.0000 0.09220  0.83000  0.43720  Biso   1.000  C
  C40      1.0000 0.59220  0.67000  0.93720  Biso   1.000  C
  C41      1.0000 0.92270  0.34900  0.50800  Biso   1.000  C
  C42      1.0000 0.42270  0.15100  0.00800  Biso   1.000  C
  C43      1.0000 0.07730  0.65100  0.49200  Biso   1.000  C
  C44      1.0000 0.57730  0.84900  0.99200  Biso   1.000  C
  C45      1.0000 0.87110  0.39600  0.41190  Biso   1.000  C
  C46      1.0000 0.37110  0.10400  0.91190  Biso   1.000  C
  C47      1.0000 0.12890  0.60400  0.58810  Biso   1.000  C
  C48      1.0000 0.62890  0.89600  0.08810  Biso   1.000  C
  C49      1.0000 0.80390  0.39100  0.45430  Biso   1.000  C
  C50      1.0000 0.30390  0.10900  0.95430  Biso   1.000  C
  C51      1.0000 0.19610  0.60900  0.54570  Biso   1.000  C
  C52      1.0000 0.69610  0.89100  0.04570  Biso   1.000  C
  H1       1.0000 0.52900  0.76490  0.60590  Biso   1.000  H
  H2       1.0000 0.02900  0.73510  0.10590  Biso   1.000  H
  H3       1.0000 0.47100  0.23510  0.39410  Biso   1.000  H
  H4       1.0000 0.97100  0.26490  0.89410  Biso   1.000  H
  H5       1.0000 0.45830  0.93900  0.70810  Biso   1.000  H
  H6       1.0000 0.95830  0.56100  0.20810  Biso   1.000  H
  H7       1.0000 0.54170  0.06100  0.29190  Biso   1.000  H
  H8       1.0000 0.04170  0.43900  0.79190  Biso   1.000  H
  H9       1.0000 0.48230  0.24340  0.74830  Biso   1.000  H
  H10      1.0000 0.98230  0.25660  0.24830  Biso   1.000  H
  H11      1.0000 0.51770  0.75660  0.25170  Biso   1.000  H
  H12      1.0000 0.01770  0.74340  0.75170  Biso   1.000  H
  H13      1.0000 0.57530  0.37070  0.68570  Biso   1.000  H
  H14      1.0000 0.07530  0.12930  0.18570  Biso   1.000  H
  H15      1.0000 0.42470  0.62930  0.31430  Biso   1.000  H
  H16      1.0000 0.92470  0.87070  0.81430  Biso   1.000  H
  H17      1.0000 0.63690  0.75350  0.50700  Biso   1.000  H
  H18      1.0000 0.13690  0.74650  0.00700  Biso   1.000  H
  H19      1.0000 0.36310  0.24650  0.49300  Biso   1.000  H
  H20      1.0000 0.86310  0.25350  0.99300  Biso   1.000  H
  H21      1.0000 0.77870  0.83700  0.51530  Biso   1.000  H
  H22      1.0000 0.27870  0.66300  0.01530  Biso   1.000  H
  H23      1.0000 0.22130  0.16300  0.48470  Biso   1.000  H
  H24      1.0000 0.72130  0.33700  0.98470  Biso   1.000  H
  H25      1.0000 0.73440  0.82210  0.40060  Biso   1.000  H
  H26      1.0000 0.23440  0.67790  0.90060  Biso   1.000  H
  H27      1.0000 0.26560  0.17790  0.59940  Biso   1.000  H
  H28      1.0000 0.76560  0.32210  0.09940  Biso   1.000  H
  H29      1.0000 0.75530  0.11310  0.35180  Biso   1.000  H
  H30      1.0000 0.25530  0.38690  0.85180  Biso   1.000  H
  H31      1.0000 0.24470  0.88690  0.64820  Biso   1.000  H
  H32      1.0000 0.74470  0.61310  0.14820  Biso   1.000  H
  H33      1.0000 0.82300  0.03650  0.39710  Biso   1.000  H
  H34      1.0000 0.32300  0.46350  0.89710  Biso   1.000  H
  H35      1.0000 0.17700  0.96350  0.60290  Biso   1.000  H
  H36      1.0000 0.67700  0.53650  0.10290  Biso   1.000  H
  H37      1.0000 0.83840  0.25430  0.66130  Biso   1.000  H
  H38      1.0000 0.33840  0.24570  0.16130  Biso   1.000  H
  H39      1.0000 0.16160  0.74570  0.33870  Biso   1.000  H
  H40      1.0000 0.66160  0.75430  0.83870  Biso   1.000  H
  H41      1.0000 0.83170  0.04960  0.62910  Biso   1.000  H
  H42      1.0000 0.33170  0.45040  0.12910  Biso   1.000  H
  H43      1.0000 0.16830  0.95040  0.37090  Biso   1.000  H
  H44      1.0000 0.66830  0.54960  0.87090  Biso   1.000  H
  H45      1.0000 0.93840  0.15020  0.62780  Biso   1.000  H
  H46      1.0000 0.43840  0.34980  0.12780  Biso   1.000  H
  H47      1.0000 0.06160  0.84980  0.37220  Biso   1.000  H
  H48      1.0000 0.56160  0.65020  0.87220  Biso   1.000  H
  H49      1.0000 0.91130  0.07490  0.50860  Biso   1.000  H
  H50      1.0000 0.41130  0.42510  0.00860  Biso   1.000  H
  H51      1.0000 0.08870  0.92510  0.49140  Biso   1.000  H
  H52      1.0000 0.58870  0.57490  0.99140  Biso   1.000  H
  H53      1.0000 0.92440  0.44180  0.56480  Biso   1.000  H
  H54      1.0000 0.42440  0.05820  0.06480  Biso   1.000  H
  H55      1.0000 0.07560  0.55820  0.43520  Biso   1.000  H
  H56      1.0000 0.57560  0.94180  0.93520  Biso   1.000  H
  H57      1.0000 0.96360  0.33990  0.47800  Biso   1.000  H
  H58      1.0000 0.46360  0.16010  0.97800  Biso   1.000  H
  H59      1.0000 0.03640  0.66010  0.52200  Biso   1.000  H
  H60      1.0000 0.53640  0.83990  0.02200  Biso   1.000  H
  H61      1.0000 0.87910  0.51490  0.38440  Biso   1.000  H
  H62      1.0000 0.37910  0.98510  0.88440  Biso   1.000  H
  H63      1.0000 0.12090  0.48510  0.61560  Biso   1.000  H
  H64      1.0000 0.62090  0.01490  0.11560  Biso   1.000  H
  H65      1.0000 0.87270  0.31060  0.35110  Biso   1.000  H
  H66      1.0000 0.37270  0.18940  0.85110  Biso   1.000  H
  H67      1.0000 0.12730  0.68940  0.64890  Biso   1.000  H
  H68      1.0000 0.62730  0.81060  0.14890  Biso   1.000  H
  H69      1.0000 0.77260  0.41320  0.39080  Biso   1.000  H
  H70      1.0000 0.27260  0.08680  0.89080  Biso   1.000  H
  H71      1.0000 0.22740  0.58680  0.60920  Biso   1.000  H
  H72      1.0000 0.72740  0.91320  0.10920  Biso   1.000  H
  H73      1.0000 0.80160  0.48420  0.51000  Biso   1.000  H
  H74      1.0000 0.30160  0.01580  0.01000  Biso   1.000  H
  H75      1.0000 0.19840  0.51580  0.49000  Biso   1.000  H
  H76      1.0000 0.69840  0.98420  0.99000  Biso   1.000  H
