data_image0
_cell_length_a       8.176
_cell_length_b       14.718
_cell_length_c       15.952
_cell_angle_alpha    90
_cell_angle_beta     101.6
_cell_angle_gamma    90

_symmetry_space_group_name_H-M    "P 1"
_symmetry_int_tables_number       1

loop_
  _symmetry_equiv_pos_as_xyz
  'x, y, z'

loop_
  _atom_site_label
  _atom_site_occupancy
  _atom_site_fract_x
  _atom_site_fract_y
  _atom_site_fract_z
  _atom_site_thermal_displace_type
  _atom_site_B_iso_or_equiv
  _atom_site_type_symbol
  Cu1      1.0000 0.22008  0.78418  0.72133  Biso   1.000  Cu
  Cu2      1.0000 0.22008  0.71582  0.22133  Biso   1.000  Cu
  Cu3      1.0000 0.77992  0.21582  0.27867  Biso   1.000  Cu
  Cu4      1.0000 0.77992  0.28418  0.77867  Biso   1.000  Cu
  Cr1      1.0000 0.02373  0.62813  0.83874  Biso   1.000  Cr
  Cr2      1.0000 0.02373  0.87187  0.33874  Biso   1.000  Cr
  Cr3      1.0000 0.97627  0.37187  0.16126  Biso   1.000  Cr
  Cr4      1.0000 0.97627  0.12813  0.66126  Biso   1.000  Cr
  Cr5      1.0000 0.67544  0.71817  0.82728  Biso   1.000  Cr
  Cr6      1.0000 0.67544  0.78183  0.32728  Biso   1.000  Cr
  Cr7      1.0000 0.32456  0.28183  0.17272  Biso   1.000  Cr
  Cr8      1.0000 0.32456  0.21817  0.67272  Biso   1.000  Cr
  O1       1.0000 0.11910  0.70910  0.79980  Biso   1.000  O
  O2       1.0000 0.11910  0.79090  0.29980  Biso   1.000  O
  O3       1.0000 0.88090  0.29090  0.20020  Biso   1.000  O
  O4       1.0000 0.88090  0.20910  0.70020  Biso   1.000  O
  O5       1.0000 0.80750  0.63460  0.79760  Biso   1.000  O
  O6       1.0000 0.80750  0.86540  0.29760  Biso   1.000  O
  O7       1.0000 0.19250  0.36540  0.20240  Biso   1.000  O
  O8       1.0000 0.19250  0.13460  0.70240  Biso   1.000  O
  O9       1.0000 0.08390  0.53110  0.81340  Biso   1.000  O
  O10      1.0000 0.08390  0.96890  0.31340  Biso   1.000  O
  O11      1.0000 0.91610  0.46890  0.18660  Biso   1.000  O
  O12      1.0000 0.91610  0.03110  0.68660  Biso   1.000  O
  O13      1.0000 0.04840  0.63780  0.93850  Biso   1.000  O
  O14      1.0000 0.04840  0.86220  0.43850  Biso   1.000  O
  O15      1.0000 0.95160  0.36220  0.06150  Biso   1.000  O
  O16      1.0000 0.95160  0.13780  0.56150  Biso   1.000  O
  O17      1.0000 0.74390  0.81610  0.80720  Biso   1.000  O
  O18      1.0000 0.74390  0.68390  0.30720  Biso   1.000  O
  O19      1.0000 0.25610  0.18390  0.19280  Biso   1.000  O
  O20      1.0000 0.25610  0.31610  0.69280  Biso   1.000  O
  O21      1.0000 0.48930  0.70050  0.77230  Biso   1.000  O
  O22      1.0000 0.48930  0.79950  0.27230  Biso   1.000  O
  O23      1.0000 0.51070  0.29950  0.22770  Biso   1.000  O
  O24      1.0000 0.51070  0.20050  0.72770  Biso   1.000  O
  O25      1.0000 0.67890  0.71070  0.92700  Biso   1.000  O
  O26      1.0000 0.67890  0.78930  0.42700  Biso   1.000  O
  O27      1.0000 0.32110  0.28930  0.07300  Biso   1.000  O
  O28      1.0000 0.32110  0.21070  0.57300  Biso   1.000  O
  O29      1.0000 0.95500  0.84910  0.68920  Biso   1.000  O
  O30      1.0000 0.95500  0.65090  0.18920  Biso   1.000  O
  O31      1.0000 0.04500  0.15090  0.31080  Biso   1.000  O
  O32      1.0000 0.04500  0.34910  0.81080  Biso   1.000  O
  H1       1.0000 0.95640  0.91400  0.68610  Biso   1.000  H
  H2       1.0000 0.95640  0.58600  0.18610  Biso   1.000  H
  H3       1.0000 0.04360  0.08600  0.31390  Biso   1.000  H
  H4       1.0000 0.04360  0.41400  0.81390  Biso   1.000  H
  H5       1.0000 0.86190  0.81790  0.70650  Biso   1.000  H
  H6       1.0000 0.86190  0.68210  0.20650  Biso   1.000  H
  H7       1.0000 0.13810  0.18210  0.29350  Biso   1.000  H
  H8       1.0000 0.13810  0.31790  0.79350  Biso   1.000  H
  N1       1.0000 0.31610  0.86170  0.63870  Biso   1.000  N
  N2       1.0000 0.31610  0.63830  0.13870  Biso   1.000  N
  N3       1.0000 0.68390  0.13830  0.36130  Biso   1.000  N
  N4       1.0000 0.68390  0.36170  0.86130  Biso   1.000  N
  N5       1.0000 0.15600  0.68460  0.63490  Biso   1.000  N
  N6       1.0000 0.15600  0.81540  0.13490  Biso   1.000  N
  N7       1.0000 0.84400  0.31540  0.36510  Biso   1.000  N
  N8       1.0000 0.84400  0.18460  0.86510  Biso   1.000  N
  N9       1.0000 0.30450  0.86790  0.82210  Biso   1.000  N
  N10      1.0000 0.30450  0.63210  0.32210  Biso   1.000  N
  N11      1.0000 0.69550  0.13210  0.17790  Biso   1.000  N
  N12      1.0000 0.69550  0.36790  0.67790  Biso   1.000  N
  C1       1.0000 0.23850  0.93240  0.59720  Biso   1.000  C
  C2       1.0000 0.23850  0.56760  0.09720  Biso   1.000  C
  C3       1.0000 0.76150  0.06760  0.40280  Biso   1.000  C
  C4       1.0000 0.76150  0.43240  0.90280  Biso   1.000  C
  H9       1.0000 0.14330  0.94230  0.60900  Biso   1.000  H
  H10      1.0000 0.14330  0.55770  0.10900  Biso   1.000  H
  H11      1.0000 0.85670  0.05770  0.39100  Biso   1.000  H
  H12      1.0000 0.85670  0.44230  0.89100  Biso   1.000  H
  C5       1.0000 0.30480  0.98740  0.54400  Biso   1.000  C
  C6       1.0000 0.30480  0.51260  0.04400  Biso   1.000  C
  C7       1.0000 0.69520  0.01260  0.45600  Biso   1.000  C
  C8       1.0000 0.69520  0.48740  0.95600  Biso   1.000  C
  H13      1.0000 0.24800  0.04240  0.51000  Biso   1.000  H
  H14      1.0000 0.24800  0.45760  0.01000  Biso   1.000  H
  H15      1.0000 0.75200  0.95760  0.49000  Biso   1.000  H
  H16      1.0000 0.75200  0.54240  0.99000  Biso   1.000  H
  C9       1.0000 0.46060  0.97180  0.52920  Biso   1.000  C
  C10      1.0000 0.46060  0.52820  0.02920  Biso   1.000  C
  C11      1.0000 0.53940  0.02820  0.47080  Biso   1.000  C
  C12      1.0000 0.53940  0.47180  0.97080  Biso   1.000  C
  C13      1.0000 0.54350  0.89640  0.57170  Biso   1.000  C
  C14      1.0000 0.54350  0.60360  0.07170  Biso   1.000  C
  C15      1.0000 0.45650  0.10360  0.42830  Biso   1.000  C
  C16      1.0000 0.45650  0.39640  0.92830  Biso   1.000  C
  H17      1.0000 0.65940  0.88230  0.56540  Biso   1.000  H
  H18      1.0000 0.65940  0.61770  0.06540  Biso   1.000  H
  H19      1.0000 0.34060  0.11770  0.43460  Biso   1.000  H
  H20      1.0000 0.34060  0.38230  0.93460  Biso   1.000  H
  C17      1.0000 0.46670  0.84550  0.62370  Biso   1.000  C
  C18      1.0000 0.46670  0.65450  0.12370  Biso   1.000  C
  C19      1.0000 0.53330  0.15450  0.37630  Biso   1.000  C
  C20      1.0000 0.53330  0.34550  0.87630  Biso   1.000  C
  H21      1.0000 0.51630  0.78800  0.65860  Biso   1.000  H
  H22      1.0000 0.51630  0.71200  0.15860  Biso   1.000  H
  H23      1.0000 0.48370  0.21200  0.34140  Biso   1.000  H
  H24      1.0000 0.48370  0.28800  0.84140  Biso   1.000  H
  C21      1.0000 0.03920  0.69710  0.56320  Biso   1.000  C
  C22      1.0000 0.03920  0.80290  0.06320  Biso   1.000  C
  C23      1.0000 0.96080  0.30290  0.43680  Biso   1.000  C
  C24      1.0000 0.96080  0.19710  0.93680  Biso   1.000  C
  H25      1.0000 0.99820  0.75550  0.55390  Biso   1.000  H
  H26      1.0000 0.99820  0.74450  0.05390  Biso   1.000  H
  H27      1.0000 0.00180  0.24450  0.44610  Biso   1.000  H
  H28      1.0000 0.00180  0.25550  0.94610  Biso   1.000  H
  C25      1.0000 0.97650  0.62730  0.51040  Biso   1.000  C
  C26      1.0000 0.97650  0.87270  0.01040  Biso   1.000  C
  C27      1.0000 0.02350  0.37270  0.48960  Biso   1.000  C
  C28      1.0000 0.02350  0.12730  0.98960  Biso   1.000  C
  H29      1.0000 0.94420  0.64160  0.45280  Biso   1.000  H
  H30      1.0000 0.94420  0.85840  0.95280  Biso   1.000  H
  H31      1.0000 0.05580  0.35840  0.54720  Biso   1.000  H
  H32      1.0000 0.05580  0.14160  0.04720  Biso   1.000  H
  C29      1.0000 0.03230  0.53890  0.52800  Biso   1.000  C
  C30      1.0000 0.03230  0.96110  0.02800  Biso   1.000  C
  C31      1.0000 0.96770  0.46110  0.47200  Biso   1.000  C
  C32      1.0000 0.96770  0.03890  0.97200  Biso   1.000  C
  C33      1.0000 0.15270  0.52690  0.60240  Biso   1.000  C
  C34      1.0000 0.15270  0.97310  0.10240  Biso   1.000  C
  C35      1.0000 0.84730  0.47310  0.39760  Biso   1.000  C
  C36      1.0000 0.84730  0.02690  0.89760  Biso   1.000  C
  H33      1.0000 0.19550  0.47520  0.61910  Biso   1.000  H
  H34      1.0000 0.19550  0.02480  0.11910  Biso   1.000  H
  H35      1.0000 0.80450  0.52480  0.38090  Biso   1.000  H
  H36      1.0000 0.80450  0.97520  0.88090  Biso   1.000  H
  C37      1.0000 0.20870  0.60040  0.65320  Biso   1.000  C
  C38      1.0000 0.20870  0.89960  0.15320  Biso   1.000  C
  C39      1.0000 0.79130  0.39960  0.34680  Biso   1.000  C
  C40      1.0000 0.79130  0.10040  0.84680  Biso   1.000  C
  H37      1.0000 0.27950  0.59250  0.70660  Biso   1.000  H
  H38      1.0000 0.27950  0.90750  0.20660  Biso   1.000  H
  H39      1.0000 0.72050  0.40750  0.29340  Biso   1.000  H
  H40      1.0000 0.72050  0.09250  0.79340  Biso   1.000  H
  C41      1.0000 0.31870  0.95720  0.81590  Biso   1.000  C
  C42      1.0000 0.31870  0.54280  0.31590  Biso   1.000  C
  C43      1.0000 0.68130  0.04280  0.18410  Biso   1.000  C
  C44      1.0000 0.68130  0.45720  0.68410  Biso   1.000  C
  H41      1.0000 0.24980  0.97870  0.75440  Biso   1.000  H
  H42      1.0000 0.24980  0.52130  0.25440  Biso   1.000  H
  H43      1.0000 0.75020  0.02130  0.24560  Biso   1.000  H
  H44      1.0000 0.75020  0.47870  0.74560  Biso   1.000  H
  C45      1.0000 0.39390  0.01100  0.88440  Biso   1.000  C
  C46      1.0000 0.39390  0.48900  0.38440  Biso   1.000  C
  C47      1.0000 0.60610  0.98900  0.11560  Biso   1.000  C
  C48      1.0000 0.60610  0.51100  0.61560  Biso   1.000  C
  H45      1.0000 0.38500  0.07270  0.87700  Biso   1.000  H
  H46      1.0000 0.38500  0.42730  0.37700  Biso   1.000  H
  H47      1.0000 0.61500  0.92730  0.12300  Biso   1.000  H
  H48      1.0000 0.61500  0.57270  0.62300  Biso   1.000  H
  C49      1.0000 0.45730  0.97200  0.96320  Biso   1.000  C
  C50      1.0000 0.45730  0.52800  0.46320  Biso   1.000  C
  C51      1.0000 0.54270  0.02800  0.03680  Biso   1.000  C
  C52      1.0000 0.54270  0.47200  0.53680  Biso   1.000  C
  C53      1.0000 0.43720  0.87920  0.96900  Biso   1.000  C
  C54      1.0000 0.43720  0.62080  0.46900  Biso   1.000  C
  C55      1.0000 0.56280  0.12080  0.03100  Biso   1.000  C
  C56      1.0000 0.56280  0.37920  0.53100  Biso   1.000  C
  H49      1.0000 0.47080  0.84620  0.01990  Biso   1.000  H
  H50      1.0000 0.47080  0.65380  0.51990  Biso   1.000  H
  H51      1.0000 0.52920  0.15380  0.98010  Biso   1.000  H
  H52      1.0000 0.52920  0.34620  0.48010  Biso   1.000  H
  C57      1.0000 0.35970  0.83060  0.89930  Biso   1.000  C
  C58      1.0000 0.35970  0.66940  0.39930  Biso   1.000  C
  C59      1.0000 0.64030  0.16940  0.10070  Biso   1.000  C
  C60      1.0000 0.64030  0.33060  0.60070  Biso   1.000  C
  H53      1.0000 0.33840  0.76870  0.90500  Biso   1.000  H
  H54      1.0000 0.33840  0.73130  0.40500  Biso   1.000  H
  H55      1.0000 0.66160  0.23130  0.09500  Biso   1.000  H
  H56      1.0000 0.66160  0.26870  0.59500  Biso   1.000  H
