data_image0
_cell_length_a       16.279
_cell_length_b       8.382
_cell_length_c       8.297
_cell_angle_alpha    90
_cell_angle_beta     93.13
_cell_angle_gamma    90

_symmetry_space_group_name_H-M    "P 1"
_symmetry_int_tables_number       1

loop_
  _symmetry_equiv_pos_as_xyz
  'x, y, z'

loop_
  _atom_site_label
  _atom_site_occupancy
  _atom_site_fract_x
  _atom_site_fract_y
  _atom_site_fract_z
  _atom_site_thermal_displace_type
  _atom_site_B_iso_or_equiv
  _atom_site_type_symbol
  Rb1      1.0000 0.50000  0.50000  0.00000  Biso   1.000  Rb
  Rb2      1.0000 0.00000  0.00000  0.00000  Biso   1.000  Rb
  Rb3      1.0000 0.50000  0.50000  0.50000  Biso   1.000  Rb
  Rb4      1.0000 0.00000  0.00000  0.50000  Biso   1.000  Rb
  Cu1      1.0000 0.50000  0.00000  0.00000  Biso   1.000  Cu
  Cu2      1.0000 0.00000  0.50000  0.00000  Biso   1.000  Cu
  O1       1.0000 0.55420  0.72980  0.74250  Biso   1.000  O
  O2       1.0000 0.44580  0.72980  0.25750  Biso   1.000  O
  O3       1.0000 0.05420  0.22980  0.74250  Biso   1.000  O
  O4       1.0000 0.94580  0.22980  0.25750  Biso   1.000  O
  O5       1.0000 0.44580  0.27020  0.25750  Biso   1.000  O
  O6       1.0000 0.55420  0.27020  0.74250  Biso   1.000  O
  O7       1.0000 0.94580  0.77020  0.25750  Biso   1.000  O
  O8       1.0000 0.05420  0.77020  0.74250  Biso   1.000  O
  O9       1.0000 0.36740  0.73040  0.87870  Biso   1.000  O
  O10      1.0000 0.63260  0.73040  0.12130  Biso   1.000  O
  O11      1.0000 0.86740  0.23040  0.87870  Biso   1.000  O
  O12      1.0000 0.13260  0.23040  0.12130  Biso   1.000  O
  O13      1.0000 0.63260  0.26960  0.12130  Biso   1.000  O
  O14      1.0000 0.36740  0.26960  0.87870  Biso   1.000  O
  O15      1.0000 0.13260  0.76960  0.12130  Biso   1.000  O
  O16      1.0000 0.86740  0.76960  0.87870  Biso   1.000  O
  O17      1.0000 0.33570  0.50000  0.64490  Biso   1.000  O
  O18      1.0000 0.66430  0.50000  0.35510  Biso   1.000  O
  O19      1.0000 0.83570  0.00000  0.64490  Biso   1.000  O
  O20      1.0000 0.16430  0.00000  0.35510  Biso   1.000  O
  N1       1.0000 0.54810  0.00000  0.78380  Biso   1.000  N
  N2       1.0000 0.45190  0.00000  0.21620  Biso   1.000  N
  N3       1.0000 0.04810  0.50000  0.78380  Biso   1.000  N
  N4       1.0000 0.95190  0.50000  0.21620  Biso   1.000  N
  N5       1.0000 0.38590  0.00000  0.89980  Biso   1.000  N
  N6       1.0000 0.61410  0.00000  0.10020  Biso   1.000  N
  N7       1.0000 0.88590  0.50000  0.89980  Biso   1.000  N
  N8       1.0000 0.11410  0.50000  0.10020  Biso   1.000  N
  C1       1.0000 0.56980  0.86690  0.70400  Biso   1.000  C
  C2       1.0000 0.43020  0.86690  0.29600  Biso   1.000  C
  C3       1.0000 0.06980  0.36690  0.70400  Biso   1.000  C
  C4       1.0000 0.93020  0.36690  0.29600  Biso   1.000  C
  C5       1.0000 0.43020  0.13310  0.29600  Biso   1.000  C
  C6       1.0000 0.56980  0.13310  0.70400  Biso   1.000  C
  C7       1.0000 0.93020  0.63310  0.29600  Biso   1.000  C
  C8       1.0000 0.06980  0.63310  0.70400  Biso   1.000  C
  C9       1.0000 0.61650  0.90980  0.55510  Biso   1.000  C
  C10      1.0000 0.38350  0.90980  0.44490  Biso   1.000  C
  C11      1.0000 0.11650  0.40980  0.55510  Biso   1.000  C
  C12      1.0000 0.88350  0.40980  0.44490  Biso   1.000  C
  C13      1.0000 0.38350  0.09020  0.44490  Biso   1.000  C
  C14      1.0000 0.61650  0.09020  0.55510  Biso   1.000  C
  C15      1.0000 0.88350  0.59020  0.44490  Biso   1.000  C
  C16      1.0000 0.11650  0.59020  0.55510  Biso   1.000  C
  C17      1.0000 0.34110  0.86670  0.86450  Biso   1.000  C
  C18      1.0000 0.65890  0.86670  0.13550  Biso   1.000  C
  C19      1.0000 0.84110  0.36670  0.86450  Biso   1.000  C
  C20      1.0000 0.15890  0.36670  0.13550  Biso   1.000  C
  C21      1.0000 0.65890  0.13330  0.13550  Biso   1.000  C
  C22      1.0000 0.34110  0.13330  0.86450  Biso   1.000  C
  C23      1.0000 0.15890  0.63330  0.13550  Biso   1.000  C
  C24      1.0000 0.84110  0.63330  0.86450  Biso   1.000  C
  C25      1.0000 0.25510  0.91050  0.80230  Biso   1.000  C
  C26      1.0000 0.74490  0.91050  0.19770  Biso   1.000  C
  C27      1.0000 0.75510  0.41050  0.80230  Biso   1.000  C
  C28      1.0000 0.24490  0.41050  0.19770  Biso   1.000  C
  C29      1.0000 0.74490  0.08950  0.19770  Biso   1.000  C
  C30      1.0000 0.25510  0.08950  0.80230  Biso   1.000  C
  C31      1.0000 0.24490  0.58950  0.19770  Biso   1.000  C
  C32      1.0000 0.75510  0.58950  0.80230  Biso   1.000  C
  H1       1.0000 0.67160  0.86900  0.56410  Biso   1.000  H
  H2       1.0000 0.32840  0.86900  0.43590  Biso   1.000  H
  H3       1.0000 0.17160  0.36900  0.56410  Biso   1.000  H
  H4       1.0000 0.82840  0.36900  0.43590  Biso   1.000  H
  H5       1.0000 0.32840  0.13100  0.43590  Biso   1.000  H
  H6       1.0000 0.67160  0.13100  0.56410  Biso   1.000  H
  H7       1.0000 0.82840  0.63100  0.43590  Biso   1.000  H
  H8       1.0000 0.17160  0.63100  0.56410  Biso   1.000  H
  H9       1.0000 0.58960  0.86900  0.45950  Biso   1.000  H
  H10      1.0000 0.41040  0.86900  0.54050  Biso   1.000  H
  H11      1.0000 0.08960  0.36900  0.45950  Biso   1.000  H
  H12      1.0000 0.91040  0.36900  0.54050  Biso   1.000  H
  H13      1.0000 0.41040  0.13100  0.54050  Biso   1.000  H
  H14      1.0000 0.58960  0.13100  0.45950  Biso   1.000  H
  H15      1.0000 0.91040  0.63100  0.54050  Biso   1.000  H
  H16      1.0000 0.08960  0.63100  0.45950  Biso   1.000  H
  H17      1.0000 0.24570  0.87160  0.69030  Biso   1.000  H
  H18      1.0000 0.75430  0.87160  0.30970  Biso   1.000  H
  H19      1.0000 0.74570  0.37160  0.69030  Biso   1.000  H
  H20      1.0000 0.25430  0.37160  0.30970  Biso   1.000  H
  H21      1.0000 0.75430  0.12840  0.30970  Biso   1.000  H
  H22      1.0000 0.24570  0.12840  0.69030  Biso   1.000  H
  H23      1.0000 0.25430  0.62840  0.30970  Biso   1.000  H
  H24      1.0000 0.74570  0.62840  0.69030  Biso   1.000  H
  H25      1.0000 0.21440  0.87160  0.86360  Biso   1.000  H
  H26      1.0000 0.78560  0.87160  0.13640  Biso   1.000  H
  H27      1.0000 0.71440  0.37160  0.86360  Biso   1.000  H
  H28      1.0000 0.28560  0.37160  0.13640  Biso   1.000  H
  H29      1.0000 0.78560  0.12840  0.13640  Biso   1.000  H
  H30      1.0000 0.21440  0.12840  0.86360  Biso   1.000  H
  H31      1.0000 0.28560  0.62840  0.13640  Biso   1.000  H
  H32      1.0000 0.71440  0.62840  0.86360  Biso   1.000  H
