data_image0
_cell_length_a       7.9552
_cell_length_b       11.674
_cell_length_c       14.05
_cell_angle_alpha    90
_cell_angle_beta     90
_cell_angle_gamma    90

_symmetry_space_group_name_H-M    "P 1"
_symmetry_int_tables_number       1

loop_
  _symmetry_equiv_pos_as_xyz
  'x, y, z'

loop_
  _atom_site_label
  _atom_site_occupancy
  _atom_site_fract_x
  _atom_site_fract_y
  _atom_site_fract_z
  _atom_site_thermal_displace_type
  _atom_site_B_iso_or_equiv
  _atom_site_type_symbol
  Cu1      1.0000 0.80083  0.64574  0.94224  Biso   1.000  Cu
  Cu2      1.0000 0.69917  0.35426  0.44224  Biso   1.000  Cu
  Cu3      1.0000 0.30083  0.85426  0.05776  Biso   1.000  Cu
  Cu4      1.0000 0.19917  0.14574  0.55776  Biso   1.000  Cu
  O1       1.0000 0.02940  0.69290  0.97620  Biso   1.000  O
  O2       1.0000 0.47060  0.30710  0.47620  Biso   1.000  O
  O3       1.0000 0.52940  0.80710  0.02380  Biso   1.000  O
  O4       1.0000 0.97060  0.19290  0.52380  Biso   1.000  O
  O5       1.0000 0.72010  0.64000  0.10650  Biso   1.000  O
  O6       1.0000 0.77990  0.36000  0.60650  Biso   1.000  O
  O7       1.0000 0.22010  0.86000  0.89350  Biso   1.000  O
  O8       1.0000 0.27990  0.14000  0.39350  Biso   1.000  O
  O9       1.0000 0.24670  0.69170  0.07260  Biso   1.000  O
  O10      1.0000 0.25330  0.30830  0.57260  Biso   1.000  O
  O11      1.0000 0.74670  0.80830  0.92740  Biso   1.000  O
  O12      1.0000 0.75330  0.19170  0.42740  Biso   1.000  O
  N1       1.0000 0.59620  0.57940  0.88110  Biso   1.000  N
  N2       1.0000 0.90380  0.42060  0.38110  Biso   1.000  N
  N3       1.0000 0.09620  0.92060  0.11890  Biso   1.000  N
  N4       1.0000 0.40380  0.07940  0.61890  Biso   1.000  N
  N5       1.0000 0.86640  0.48250  0.94590  Biso   1.000  N
  N6       1.0000 0.63360  0.51750  0.44590  Biso   1.000  N
  N7       1.0000 0.36640  0.01750  0.05410  Biso   1.000  N
  N8       1.0000 0.13360  0.98250  0.55410  Biso   1.000  N
  C1       1.0000 0.60400  0.46410  0.87580  Biso   1.000  C
  C2       1.0000 0.89600  0.53590  0.37580  Biso   1.000  C
  C3       1.0000 0.10400  0.03590  0.12420  Biso   1.000  C
  C4       1.0000 0.39600  0.96410  0.62420  Biso   1.000  C
  C5       1.0000 0.47830  0.40040  0.83340  Biso   1.000  C
  C6       1.0000 0.02170  0.59960  0.33340  Biso   1.000  C
  C7       1.0000 0.97830  0.09960  0.16660  Biso   1.000  C
  C8       1.0000 0.52170  0.90040  0.66660  Biso   1.000  C
  C9       1.0000 0.34090  0.45590  0.79640  Biso   1.000  C
  C10      1.0000 0.15910  0.54410  0.29640  Biso   1.000  C
  C11      1.0000 0.84090  0.04410  0.20360  Biso   1.000  C
  C12      1.0000 0.65910  0.95590  0.70360  Biso   1.000  C
  C13      1.0000 0.33100  0.57370  0.80260  Biso   1.000  C
  C14      1.0000 0.16900  0.42630  0.30260  Biso   1.000  C
  C15      1.0000 0.83100  0.92630  0.19740  Biso   1.000  C
  C16      1.0000 0.66900  0.07370  0.69740  Biso   1.000  C
  C17      1.0000 0.46370  0.63240  0.84540  Biso   1.000  C
  C18      1.0000 0.03630  0.36760  0.34540  Biso   1.000  C
  C19      1.0000 0.96370  0.86760  0.15460  Biso   1.000  C
  C20      1.0000 0.53630  0.13240  0.65460  Biso   1.000  C
  C21      1.0000 0.75630  0.41430  0.91420  Biso   1.000  C
  C22      1.0000 0.74370  0.58570  0.41420  Biso   1.000  C
  C23      1.0000 0.25630  0.08570  0.08580  Biso   1.000  C
  C24      1.0000 0.24370  0.91430  0.58580  Biso   1.000  C
  C25      1.0000 0.02670  0.44250  0.98100  Biso   1.000  C
  C26      1.0000 0.47330  0.55750  0.48100  Biso   1.000  C
  C27      1.0000 0.52670  0.05750  0.01900  Biso   1.000  C
  C28      1.0000 0.97330  0.94250  0.51900  Biso   1.000  C
  C29      1.0000 0.09490  0.51760  0.05930  Biso   1.000  C
  C30      1.0000 0.40510  0.48240  0.55930  Biso   1.000  C
  C31      1.0000 0.59490  0.98240  0.94070  Biso   1.000  C
  C32      1.0000 0.90510  0.01760  0.44070  Biso   1.000  C
  C33      1.0000 0.12720  0.64220  0.03370  Biso   1.000  C
  C34      1.0000 0.37280  0.35780  0.53370  Biso   1.000  C
  C35      1.0000 0.62720  0.85780  0.96630  Biso   1.000  C
  C36      1.0000 0.87280  0.14220  0.46630  Biso   1.000  C
  Cl1      1.0000 0.59220  0.34785  0.17237  Biso   1.000  Cl
  Cl2      1.0000 0.90780  0.65215  0.67237  Biso   1.000  Cl
  Cl3      1.0000 0.09220  0.15215  0.82763  Biso   1.000  Cl
  Cl4      1.0000 0.40780  0.84785  0.32763  Biso   1.000  Cl
  O13      1.0000 0.57610  0.45230  0.21840  Biso   1.000  O
  O14      1.0000 0.92390  0.54770  0.71840  Biso   1.000  O
  O15      1.0000 0.07610  0.04770  0.78160  Biso   1.000  O
  O16      1.0000 0.42390  0.95230  0.28160  Biso   1.000  O
  O17      1.0000 0.75700  0.33290  0.14220  Biso   1.000  O
  O18      1.0000 0.74300  0.66710  0.64220  Biso   1.000  O
  O19      1.0000 0.25700  0.16710  0.85780  Biso   1.000  O
  O20      1.0000 0.24300  0.83290  0.35780  Biso   1.000  O
  O21      1.0000 0.48780  0.34820  0.09540  Biso   1.000  O
  O22      1.0000 0.01220  0.65180  0.59540  Biso   1.000  O
  O23      1.0000 0.98780  0.15180  0.90460  Biso   1.000  O
  O24      1.0000 0.51220  0.84820  0.40460  Biso   1.000  O
  O25      1.0000 0.54780  0.26520  0.23620  Biso   1.000  O
  O26      1.0000 0.95220  0.73480  0.73620  Biso   1.000  O
  O27      1.0000 0.04780  0.23480  0.76380  Biso   1.000  O
  O28      1.0000 0.45220  0.76520  0.26380  Biso   1.000  O
  H1       1.0000 0.63220  0.68030  0.11430  Biso   1.000  H
  H2       1.0000 0.86780  0.31970  0.61430  Biso   1.000  H
  H3       1.0000 0.13220  0.81970  0.88570  Biso   1.000  H
  H4       1.0000 0.36780  0.18030  0.38570  Biso   1.000  H
  H5       1.0000 0.48650  0.32100  0.83000  Biso   1.000  H
  H6       1.0000 0.01350  0.67900  0.33000  Biso   1.000  H
  H7       1.0000 0.98650  0.17900  0.17000  Biso   1.000  H
  H8       1.0000 0.51350  0.82100  0.67000  Biso   1.000  H
  H9       1.0000 0.70010  0.57130  0.12290  Biso   1.000  H
  H10      1.0000 0.79990  0.42870  0.62290  Biso   1.000  H
  H11      1.0000 0.20010  0.92870  0.87710  Biso   1.000  H
  H12      1.0000 0.29990  0.07130  0.37710  Biso   1.000  H
  H13      1.0000 0.25530  0.41450  0.76730  Biso   1.000  H
  H14      1.0000 0.24470  0.58550  0.26730  Biso   1.000  H
  H15      1.0000 0.75530  0.08550  0.23270  Biso   1.000  H
  H16      1.0000 0.74470  0.91450  0.73270  Biso   1.000  H
  H17      1.0000 0.23830  0.61290  0.77880  Biso   1.000  H
  H18      1.0000 0.26170  0.38710  0.27880  Biso   1.000  H
  H19      1.0000 0.73830  0.88710  0.22120  Biso   1.000  H
  H20      1.0000 0.76170  0.11290  0.72120  Biso   1.000  H
  H21      1.0000 0.45870  0.71190  0.84890  Biso   1.000  H
  H22      1.0000 0.04130  0.28810  0.34890  Biso   1.000  H
  H23      1.0000 0.95870  0.78810  0.15110  Biso   1.000  H
  H24      1.0000 0.54130  0.21190  0.65110  Biso   1.000  H
  H25      1.0000 0.77250  0.33540  0.91550  Biso   1.000  H
  H26      1.0000 0.72750  0.66460  0.41550  Biso   1.000  H
  H27      1.0000 0.27250  0.16460  0.08450  Biso   1.000  H
  H28      1.0000 0.22750  0.83540  0.58450  Biso   1.000  H
  H29      1.0000 0.10660  0.44070  0.92890  Biso   1.000  H
  H30      1.0000 0.39340  0.55930  0.42890  Biso   1.000  H
  H31      1.0000 0.60660  0.05930  0.07110  Biso   1.000  H
  H32      1.0000 0.89340  0.94070  0.57110  Biso   1.000  H
  H33      1.0000 0.01410  0.36490  0.00470  Biso   1.000  H
  H34      1.0000 0.48590  0.63510  0.50470  Biso   1.000  H
  H35      1.0000 0.51410  0.13510  0.99530  Biso   1.000  H
  H36      1.0000 0.98590  0.86490  0.49530  Biso   1.000  H
  H37      1.0000 0.19960  0.48450  0.08160  Biso   1.000  H
  H38      1.0000 0.30040  0.51550  0.58160  Biso   1.000  H
  H39      1.0000 0.69960  0.01550  0.91840  Biso   1.000  H
  H40      1.0000 0.80040  0.98450  0.41840  Biso   1.000  H
  H41      1.0000 0.01630  0.51560  0.11210  Biso   1.000  H
  H42      1.0000 0.48370  0.48440  0.61210  Biso   1.000  H
  H43      1.0000 0.51630  0.98440  0.88790  Biso   1.000  H
  H44      1.0000 0.98370  0.01560  0.38790  Biso   1.000  H
