data_image0
_cell_length_a       8.2829
_cell_length_b       9.3466
_cell_length_c       16.4991
_cell_angle_alpha    90
_cell_angle_beta     90
_cell_angle_gamma    90

_symmetry_space_group_name_H-M    "P 1"
_symmetry_int_tables_number       1

loop_
  _symmetry_equiv_pos_as_xyz
  'x, y, z'

loop_
  _atom_site_label
  _atom_site_occupancy
  _atom_site_fract_x
  _atom_site_fract_y
  _atom_site_fract_z
  _atom_site_thermal_displace_type
  _atom_site_B_iso_or_equiv
  _atom_site_type_symbol
  Cu1      1.0000 0.04396  0.70180  0.68850  Biso   1.000  Cu
  Cu2      1.0000 0.54396  0.79820  0.31150  Biso   1.000  Cu
  Cu3      1.0000 0.95604  0.20180  0.81150  Biso   1.000  Cu
  Cu4      1.0000 0.45604  0.29820  0.18850  Biso   1.000  Cu
  N1       1.0000 0.17060  0.59530  0.61634  Biso   1.000  N
  N2       1.0000 0.67060  0.90470  0.38366  Biso   1.000  N
  N3       1.0000 0.82940  0.09530  0.88366  Biso   1.000  N
  N4       1.0000 0.32940  0.40470  0.11634  Biso   1.000  N
  N5       1.0000 0.08090  0.86050  0.60731  Biso   1.000  N
  N6       1.0000 0.58090  0.63950  0.39269  Biso   1.000  N
  N7       1.0000 0.91910  0.36050  0.89269  Biso   1.000  N
  N8       1.0000 0.41910  0.13950  0.10731  Biso   1.000  N
  H1       1.0000 0.98510  0.89270  0.58910  Biso   1.000  H
  H2       1.0000 0.48510  0.60730  0.41090  Biso   1.000  H
  H3       1.0000 0.01490  0.39270  0.91090  Biso   1.000  H
  H4       1.0000 0.51490  0.10730  0.08910  Biso   1.000  H
  H5       1.0000 0.13200  0.93380  0.63170  Biso   1.000  H
  H6       1.0000 0.63200  0.56620  0.36830  Biso   1.000  H
  H7       1.0000 0.86800  0.43380  0.86830  Biso   1.000  H
  H8       1.0000 0.36800  0.06620  0.13170  Biso   1.000  H
  N9       1.0000 0.30830  0.27900  0.46508  Biso   1.000  N
  N10      1.0000 0.80830  0.22100  0.53492  Biso   1.000  N
  N11      1.0000 0.69170  0.77900  0.03492  Biso   1.000  N
  N12      1.0000 0.19170  0.72100  0.96508  Biso   1.000  N
  H9       1.0000 0.32510  0.36870  0.47310  Biso   1.000  H
  H10      1.0000 0.82510  0.13130  0.52690  Biso   1.000  H
  H11      1.0000 0.67490  0.86870  0.02690  Biso   1.000  H
  H12      1.0000 0.17490  0.63130  0.97310  Biso   1.000  H
  O1       1.0000 0.09960  0.28610  0.73541  Biso   1.000  O
  O2       1.0000 0.59960  0.21390  0.26459  Biso   1.000  O
  O3       1.0000 0.90040  0.78610  0.76459  Biso   1.000  O
  O4       1.0000 0.40040  0.71390  0.23541  Biso   1.000  O
  O5       1.0000 0.02890  0.51530  0.74780  Biso   1.000  O
  O6       1.0000 0.52890  0.98470  0.25220  Biso   1.000  O
  O7       1.0000 0.97110  0.01530  0.75220  Biso   1.000  O
  O8       1.0000 0.47110  0.48470  0.24780  Biso   1.000  O
  O9       1.0000 0.29390  0.58600  0.49234  Biso   1.000  O
  O10      1.0000 0.79390  0.91400  0.50766  Biso   1.000  O
  O11      1.0000 0.70610  0.08600  0.00766  Biso   1.000  O
  O12      1.0000 0.20610  0.41400  0.99234  Biso   1.000  O
  C1       1.0000 0.18870  0.44390  0.63381  Biso   1.000  C
  C2       1.0000 0.68870  0.05610  0.36619  Biso   1.000  C
  C3       1.0000 0.81130  0.94390  0.86619  Biso   1.000  C
  C4       1.0000 0.31130  0.55610  0.13381  Biso   1.000  C
  H13      1.0000 0.30200  0.41970  0.63950  Biso   1.000  H
  H14      1.0000 0.80200  0.08030  0.36050  Biso   1.000  H
  H15      1.0000 0.69800  0.91970  0.86050  Biso   1.000  H
  H16      1.0000 0.19800  0.58030  0.13950  Biso   1.000  H
  H17      1.0000 0.14350  0.38710  0.59020  Biso   1.000  H
  H18      1.0000 0.64350  0.11290  0.40980  Biso   1.000  H
  H19      1.0000 0.85650  0.88710  0.90980  Biso   1.000  H
  H20      1.0000 0.35650  0.61290  0.09020  Biso   1.000  H
  C5       1.0000 0.09980  0.41490  0.71196  Biso   1.000  C
  C6       1.0000 0.59980  0.08510  0.28804  Biso   1.000  C
  C7       1.0000 0.90020  0.91490  0.78804  Biso   1.000  C
  C8       1.0000 0.40020  0.58510  0.21196  Biso   1.000  C
  C9       1.0000 0.22090  0.65030  0.54777  Biso   1.000  C
  C10      1.0000 0.72090  0.84970  0.45223  Biso   1.000  C
  C11      1.0000 0.77910  0.15030  0.95223  Biso   1.000  C
  C12      1.0000 0.27910  0.34970  0.04777  Biso   1.000  C
  C13      1.0000 0.17900  0.80940  0.53774  Biso   1.000  C
  C14      1.0000 0.67900  0.69060  0.46226  Biso   1.000  C
  C15      1.0000 0.82100  0.30940  0.96226  Biso   1.000  C
  C16      1.0000 0.32100  0.19060  0.03774  Biso   1.000  C
  H21      1.0000 0.11210  0.81820  0.48900  Biso   1.000  H
  H22      1.0000 0.61210  0.68180  0.51100  Biso   1.000  H
  H23      1.0000 0.88790  0.31820  0.01100  Biso   1.000  H
  H24      1.0000 0.38790  0.18180  0.98900  Biso   1.000  H
  C17      1.0000 0.33230  0.89770  0.52336  Biso   1.000  C
  C18      1.0000 0.83230  0.60230  0.47664  Biso   1.000  C
  C19      1.0000 0.66770  0.39770  0.97664  Biso   1.000  C
  C20      1.0000 0.16770  0.10230  0.02336  Biso   1.000  C
  H25      1.0000 0.38730  0.91010  0.57480  Biso   1.000  H
  H26      1.0000 0.88730  0.58990  0.42520  Biso   1.000  H
  H27      1.0000 0.61270  0.41010  0.92520  Biso   1.000  H
  H28      1.0000 0.11270  0.08990  0.07480  Biso   1.000  H
  H29      1.0000 0.40360  0.84390  0.48800  Biso   1.000  H
  H30      1.0000 0.90360  0.65610  0.51200  Biso   1.000  H
  H31      1.0000 0.59640  0.34390  0.01200  Biso   1.000  H
  H32      1.0000 0.09640  0.15610  0.98800  Biso   1.000  H
  C21      1.0000 0.30470  0.04110  0.48695  Biso   1.000  C
  C22      1.0000 0.80470  0.45890  0.51305  Biso   1.000  C
  C23      1.0000 0.69530  0.54110  0.01305  Biso   1.000  C
  C24      1.0000 0.19530  0.95890  0.98695  Biso   1.000  C
  C25      1.0000 0.23640  0.06880  0.40836  Biso   1.000  C
  C26      1.0000 0.73640  0.43120  0.59164  Biso   1.000  C
  C27      1.0000 0.76360  0.56880  0.09164  Biso   1.000  C
  C28      1.0000 0.26360  0.93120  0.90836  Biso   1.000  C
  C29      1.0000 0.17720  0.98470  0.34590  Biso   1.000  C
  C30      1.0000 0.67720  0.51530  0.65410  Biso   1.000  C
  C31      1.0000 0.82280  0.48470  0.15410  Biso   1.000  C
  C32      1.0000 0.32280  0.01530  0.84590  Biso   1.000  C
  H33      1.0000 0.17610  0.88560  0.35090  Biso   1.000  H
  H34      1.0000 0.67610  0.61440  0.64910  Biso   1.000  H
  H35      1.0000 0.82390  0.38560  0.14910  Biso   1.000  H
  H36      1.0000 0.32390  0.11440  0.85090  Biso   1.000  H
  C33      1.0000 0.11980  0.04860  0.27610  Biso   1.000  C
  C34      1.0000 0.61980  0.45140  0.72390  Biso   1.000  C
  C35      1.0000 0.88020  0.54860  0.22390  Biso   1.000  C
  C36      1.0000 0.38020  0.95140  0.77610  Biso   1.000  C
  H37      1.0000 0.07990  0.99200  0.23430  Biso   1.000  H
  H38      1.0000 0.57990  0.50800  0.76570  Biso   1.000  H
  H39      1.0000 0.92010  0.49200  0.26570  Biso   1.000  H
  H40      1.0000 0.42010  0.00800  0.73430  Biso   1.000  H
  C37      1.0000 0.12100  0.19670  0.26760  Biso   1.000  C
  C38      1.0000 0.62100  0.30330  0.73240  Biso   1.000  C
  C39      1.0000 0.87900  0.69670  0.23240  Biso   1.000  C
  C40      1.0000 0.37900  0.80330  0.76760  Biso   1.000  C
  H41      1.0000 0.08020  0.23750  0.22050  Biso   1.000  H
  H42      1.0000 0.58020  0.26250  0.77950  Biso   1.000  H
  H43      1.0000 0.91980  0.73750  0.27950  Biso   1.000  H
  H44      1.0000 0.41980  0.76250  0.72050  Biso   1.000  H
  C41      1.0000 0.18120  0.28390  0.32750  Biso   1.000  C
  C42      1.0000 0.68120  0.21610  0.67250  Biso   1.000  C
  C43      1.0000 0.81880  0.78390  0.17250  Biso   1.000  C
  C44      1.0000 0.31880  0.71610  0.82750  Biso   1.000  C
  H45      1.0000 0.18220  0.38280  0.32130  Biso   1.000  H
  H46      1.0000 0.68220  0.11720  0.67870  Biso   1.000  H
  H47      1.0000 0.81780  0.88280  0.17870  Biso   1.000  H
  H48      1.0000 0.31780  0.61720  0.82130  Biso   1.000  H
  C45      1.0000 0.24010  0.22060  0.39719  Biso   1.000  C
  C46      1.0000 0.74010  0.27940  0.60281  Biso   1.000  C
  C47      1.0000 0.75990  0.72060  0.10281  Biso   1.000  C
  C48      1.0000 0.25990  0.77940  0.89719  Biso   1.000  C
  C49      1.0000 0.34560  0.17170  0.51818  Biso   1.000  C
  C50      1.0000 0.84560  0.32830  0.48182  Biso   1.000  C
  C51      1.0000 0.65440  0.67170  0.98182  Biso   1.000  C
  C52      1.0000 0.15440  0.82830  0.01818  Biso   1.000  C
  H49      1.0000 0.39260  0.18560  0.56880  Biso   1.000  H
  H50      1.0000 0.89260  0.31440  0.43120  Biso   1.000  H
  H51      1.0000 0.60740  0.68560  0.93120  Biso   1.000  H
  H52      1.0000 0.10740  0.81440  0.06880  Biso   1.000  H
