data_image0
_cell_length_a       11.177
_cell_length_b       12.449
_cell_length_c       17.312
_cell_angle_alpha    90
_cell_angle_beta     91.655
_cell_angle_gamma    90

_symmetry_space_group_name_H-M    "P 1"
_symmetry_int_tables_number       1

loop_
  _symmetry_equiv_pos_as_xyz
  'x, y, z'

loop_
  _atom_site_label
  _atom_site_occupancy
  _atom_site_fract_x
  _atom_site_fract_y
  _atom_site_fract_z
  _atom_site_thermal_displace_type
  _atom_site_B_iso_or_equiv
  _atom_site_type_symbol
  Cu1      1.0000 0.00000  0.50000  0.00000  Biso   1.000  Cu
  Cu2      1.0000 0.00000  0.50000  0.50000  Biso   1.000  Cu
  Cu3      1.0000 0.50000  0.00000  0.00000  Biso   1.000  Cu
  Cu4      1.0000 0.50000  0.00000  0.50000  Biso   1.000  Cu
  N1       1.0000 0.10920  0.19330  0.06359  Biso   1.000  N
  N2       1.0000 0.89080  0.19330  0.43641  Biso   1.000  N
  N3       1.0000 0.60920  0.69330  0.06359  Biso   1.000  N
  N4       1.0000 0.39080  0.69330  0.43641  Biso   1.000  N
  N5       1.0000 0.89080  0.80670  0.93641  Biso   1.000  N
  N6       1.0000 0.10920  0.80670  0.56359  Biso   1.000  N
  N7       1.0000 0.39080  0.30670  0.93641  Biso   1.000  N
  N8       1.0000 0.60920  0.30670  0.56359  Biso   1.000  N
  N9       1.0000 0.11520  0.17880  0.98637  Biso   1.000  N
  N10      1.0000 0.88480  0.17880  0.51363  Biso   1.000  N
  N11      1.0000 0.61520  0.67880  0.98637  Biso   1.000  N
  N12      1.0000 0.38480  0.67880  0.51363  Biso   1.000  N
  N13      1.0000 0.88480  0.82120  0.01363  Biso   1.000  N
  N14      1.0000 0.11520  0.82120  0.48637  Biso   1.000  N
  N15      1.0000 0.38480  0.32120  0.01363  Biso   1.000  N
  N16      1.0000 0.61520  0.32120  0.48637  Biso   1.000  N
  N17      1.0000 0.04930  0.34370  0.01382  Biso   1.000  N
  N18      1.0000 0.95070  0.34370  0.48618  Biso   1.000  N
  N19      1.0000 0.54930  0.84370  0.01382  Biso   1.000  N
  N20      1.0000 0.45070  0.84370  0.48618  Biso   1.000  N
  N21      1.0000 0.95070  0.65630  0.98618  Biso   1.000  N
  N22      1.0000 0.04930  0.65630  0.51382  Biso   1.000  N
  N23      1.0000 0.45070  0.15630  0.98618  Biso   1.000  N
  N24      1.0000 0.54930  0.15630  0.51382  Biso   1.000  N
  N25      1.0000 0.83170  0.06660  0.09733  Biso   1.000  N
  N26      1.0000 0.16830  0.06660  0.40267  Biso   1.000  N
  N27      1.0000 0.33170  0.56660  0.09733  Biso   1.000  N
  N28      1.0000 0.66830  0.56660  0.40267  Biso   1.000  N
  N29      1.0000 0.16830  0.93340  0.90267  Biso   1.000  N
  N30      1.0000 0.83170  0.93340  0.59733  Biso   1.000  N
  N31      1.0000 0.66830  0.43340  0.90267  Biso   1.000  N
  N32      1.0000 0.33170  0.43340  0.59733  Biso   1.000  N
  N33      1.0000 0.84010  0.13050  0.03421  Biso   1.000  N
  N34      1.0000 0.15990  0.13050  0.46579  Biso   1.000  N
  N35      1.0000 0.34010  0.63050  0.03421  Biso   1.000  N
  N36      1.0000 0.65990  0.63050  0.46579  Biso   1.000  N
  N37      1.0000 0.15990  0.86950  0.96579  Biso   1.000  N
  N38      1.0000 0.84010  0.86950  0.53421  Biso   1.000  N
  N39      1.0000 0.65990  0.36950  0.96579  Biso   1.000  N
  N40      1.0000 0.34010  0.36950  0.53421  Biso   1.000  N
  N41      1.0000 0.66370  0.04740  0.03457  Biso   1.000  N
  N42      1.0000 0.33630  0.04740  0.46543  Biso   1.000  N
  N43      1.0000 0.16370  0.54740  0.03457  Biso   1.000  N
  N44      1.0000 0.83630  0.54740  0.46543  Biso   1.000  N
  N45      1.0000 0.33630  0.95260  0.96543  Biso   1.000  N
  N46      1.0000 0.66370  0.95260  0.53457  Biso   1.000  N
  N47      1.0000 0.83630  0.45260  0.96543  Biso   1.000  N
  N48      1.0000 0.16370  0.45260  0.53457  Biso   1.000  N
  C1       1.0000 0.07790  0.27110  0.95910  Biso   1.000  C
  C2       1.0000 0.92210  0.27110  0.54090  Biso   1.000  C
  C3       1.0000 0.57790  0.77110  0.95910  Biso   1.000  C
  C4       1.0000 0.42210  0.77110  0.54090  Biso   1.000  C
  C5       1.0000 0.92210  0.72890  0.04090  Biso   1.000  C
  C6       1.0000 0.07790  0.72890  0.45910  Biso   1.000  C
  C7       1.0000 0.42210  0.22890  0.04090  Biso   1.000  C
  C8       1.0000 0.57790  0.22890  0.45910  Biso   1.000  C
  H1       1.0000 0.07160  0.28570  0.90640  Biso   1.000  H
  H2       1.0000 0.92840  0.28570  0.59360  Biso   1.000  H
  H3       1.0000 0.57160  0.78570  0.90640  Biso   1.000  H
  H4       1.0000 0.42840  0.78570  0.59360  Biso   1.000  H
  H5       1.0000 0.92840  0.71430  0.09360  Biso   1.000  H
  H6       1.0000 0.07160  0.71430  0.40640  Biso   1.000  H
  H7       1.0000 0.42840  0.21430  0.09360  Biso   1.000  H
  H8       1.0000 0.57160  0.21430  0.40640  Biso   1.000  H
  C9       1.0000 0.06990  0.29060  0.07910  Biso   1.000  C
  C10      1.0000 0.93010  0.29060  0.42090  Biso   1.000  C
  C11      1.0000 0.56990  0.79060  0.07910  Biso   1.000  C
  C12      1.0000 0.43010  0.79060  0.42090  Biso   1.000  C
  C13      1.0000 0.93010  0.70940  0.92090  Biso   1.000  C
  C14      1.0000 0.06990  0.70940  0.57910  Biso   1.000  C
  C15      1.0000 0.43010  0.20940  0.92090  Biso   1.000  C
  C16      1.0000 0.56990  0.20940  0.57910  Biso   1.000  C
  H9       1.0000 0.05850  0.31780  0.12840  Biso   1.000  H
  H10      1.0000 0.94150  0.31780  0.37160  Biso   1.000  H
  H11      1.0000 0.55850  0.81780  0.12840  Biso   1.000  H
  H12      1.0000 0.44150  0.81780  0.37160  Biso   1.000  H
  H13      1.0000 0.94150  0.68220  0.87160  Biso   1.000  H
  H14      1.0000 0.05850  0.68220  0.62840  Biso   1.000  H
  H15      1.0000 0.44150  0.18220  0.87160  Biso   1.000  H
  H16      1.0000 0.55850  0.18220  0.62840  Biso   1.000  H
  C17      1.0000 0.14090  0.10670  0.11750  Biso   1.000  C
  C18      1.0000 0.85910  0.10670  0.38250  Biso   1.000  C
  C19      1.0000 0.64090  0.60670  0.11750  Biso   1.000  C
  C20      1.0000 0.35910  0.60670  0.38250  Biso   1.000  C
  C21      1.0000 0.85910  0.89330  0.88250  Biso   1.000  C
  C22      1.0000 0.14090  0.89330  0.61750  Biso   1.000  C
  C23      1.0000 0.35910  0.39330  0.88250  Biso   1.000  C
  C24      1.0000 0.64090  0.39330  0.61750  Biso   1.000  C
  H17      1.0000 0.15470  0.13700  0.16860  Biso   1.000  H
  H18      1.0000 0.84530  0.13700  0.33140  Biso   1.000  H
  H19      1.0000 0.65470  0.63700  0.16860  Biso   1.000  H
  H20      1.0000 0.34530  0.63700  0.33140  Biso   1.000  H
  H21      1.0000 0.84530  0.86300  0.83140  Biso   1.000  H
  H22      1.0000 0.15470  0.86300  0.66860  Biso   1.000  H
  H23      1.0000 0.34530  0.36300  0.83140  Biso   1.000  H
  H24      1.0000 0.65470  0.36300  0.66860  Biso   1.000  H
  H25      1.0000 0.21510  0.07400  0.10180  Biso   1.000  H
  H26      1.0000 0.78490  0.07400  0.39820  Biso   1.000  H
  H27      1.0000 0.71510  0.57400  0.10180  Biso   1.000  H
  H28      1.0000 0.28490  0.57400  0.39820  Biso   1.000  H
  H29      1.0000 0.78490  0.92600  0.89820  Biso   1.000  H
  H30      1.0000 0.21510  0.92600  0.60180  Biso   1.000  H
  H31      1.0000 0.28490  0.42600  0.89820  Biso   1.000  H
  H32      1.0000 0.71510  0.42600  0.60180  Biso   1.000  H
  C25      1.0000 0.04580  0.02080  0.12160  Biso   1.000  C
  C26      1.0000 0.95420  0.02080  0.37840  Biso   1.000  C
  C27      1.0000 0.54580  0.52080  0.12160  Biso   1.000  C
  C28      1.0000 0.45420  0.52080  0.37840  Biso   1.000  C
  C29      1.0000 0.95420  0.97920  0.87840  Biso   1.000  C
  C30      1.0000 0.04580  0.97920  0.62160  Biso   1.000  C
  C31      1.0000 0.45420  0.47920  0.87840  Biso   1.000  C
  C32      1.0000 0.54580  0.47920  0.62160  Biso   1.000  C
  H33      1.0000 0.07690  0.96200  0.15310  Biso   1.000  H
  H34      1.0000 0.92310  0.96200  0.34690  Biso   1.000  H
  H35      1.0000 0.57690  0.46200  0.15310  Biso   1.000  H
  H36      1.0000 0.42310  0.46200  0.34690  Biso   1.000  H
  H37      1.0000 0.92310  0.03800  0.84690  Biso   1.000  H
  H38      1.0000 0.07690  0.03800  0.65310  Biso   1.000  H
  H39      1.0000 0.42310  0.53800  0.84690  Biso   1.000  H
  H40      1.0000 0.57690  0.53800  0.65310  Biso   1.000  H
  H41      1.0000 0.02970  0.99300  0.07000  Biso   1.000  H
  H42      1.0000 0.97030  0.99300  0.43000  Biso   1.000  H
  H43      1.0000 0.52970  0.49300  0.07000  Biso   1.000  H
  H44      1.0000 0.47030  0.49300  0.43000  Biso   1.000  H
  H45      1.0000 0.97030  0.00700  0.93000  Biso   1.000  H
  H46      1.0000 0.02970  0.00700  0.57000  Biso   1.000  H
  H47      1.0000 0.47030  0.50700  0.93000  Biso   1.000  H
  H48      1.0000 0.52970  0.50700  0.57000  Biso   1.000  H
  C33      1.0000 0.92830  0.05880  0.15500  Biso   1.000  C
  C34      1.0000 0.07170  0.05880  0.34500  Biso   1.000  C
  C35      1.0000 0.42830  0.55880  0.15500  Biso   1.000  C
  C36      1.0000 0.57170  0.55880  0.34500  Biso   1.000  C
  C37      1.0000 0.07170  0.94120  0.84500  Biso   1.000  C
  C38      1.0000 0.92830  0.94120  0.65500  Biso   1.000  C
  C39      1.0000 0.57170  0.44120  0.84500  Biso   1.000  C
  C40      1.0000 0.42830  0.44120  0.65500  Biso   1.000  C
  H49      1.0000 0.90500  0.00930  0.19510  Biso   1.000  H
  H50      1.0000 0.09500  0.00930  0.30490  Biso   1.000  H
  H51      1.0000 0.40500  0.50930  0.19510  Biso   1.000  H
  H52      1.0000 0.59500  0.50930  0.30490  Biso   1.000  H
  H53      1.0000 0.09500  0.99070  0.80490  Biso   1.000  H
  H54      1.0000 0.90500  0.99070  0.69510  Biso   1.000  H
  H55      1.0000 0.59500  0.49070  0.80490  Biso   1.000  H
  H56      1.0000 0.40500  0.49070  0.69510  Biso   1.000  H
  H57      1.0000 0.94060  0.12870  0.17870  Biso   1.000  H
  H58      1.0000 0.05940  0.12870  0.32130  Biso   1.000  H
  H59      1.0000 0.44060  0.62870  0.17870  Biso   1.000  H
  H60      1.0000 0.55940  0.62870  0.32130  Biso   1.000  H
  H61      1.0000 0.05940  0.87130  0.82130  Biso   1.000  H
  H62      1.0000 0.94060  0.87130  0.67870  Biso   1.000  H
  H63      1.0000 0.55940  0.37130  0.82130  Biso   1.000  H
  H64      1.0000 0.44060  0.37130  0.67870  Biso   1.000  H
  C41      1.0000 0.73700  0.11620  0.99860  Biso   1.000  C
  C42      1.0000 0.26300  0.11620  0.50140  Biso   1.000  C
  C43      1.0000 0.23700  0.61620  0.99860  Biso   1.000  C
  C44      1.0000 0.76300  0.61620  0.50140  Biso   1.000  C
  C45      1.0000 0.26300  0.88380  0.00140  Biso   1.000  C
  C46      1.0000 0.73700  0.88380  0.49860  Biso   1.000  C
  C47      1.0000 0.76300  0.38380  0.00140  Biso   1.000  C
  C48      1.0000 0.23700  0.38380  0.49860  Biso   1.000  C
  H65      1.0000 0.71580  0.15050  0.95240  Biso   1.000  H
  H66      1.0000 0.28420  0.15050  0.54760  Biso   1.000  H
  H67      1.0000 0.21580  0.65050  0.95240  Biso   1.000  H
  H68      1.0000 0.78420  0.65050  0.54760  Biso   1.000  H
  H69      1.0000 0.28420  0.84950  0.04760  Biso   1.000  H
  H70      1.0000 0.71580  0.84950  0.45240  Biso   1.000  H
  H71      1.0000 0.78420  0.34950  0.04760  Biso   1.000  H
  H72      1.0000 0.21580  0.34950  0.45240  Biso   1.000  H
  C49      1.0000 0.72690  0.01790  0.09650  Biso   1.000  C
  C50      1.0000 0.27310  0.01790  0.40350  Biso   1.000  C
  C51      1.0000 0.22690  0.51790  0.09650  Biso   1.000  C
  C52      1.0000 0.77310  0.51790  0.40350  Biso   1.000  C
  C53      1.0000 0.27310  0.98210  0.90350  Biso   1.000  C
  C54      1.0000 0.72690  0.98210  0.59650  Biso   1.000  C
  C55      1.0000 0.77310  0.48210  0.90350  Biso   1.000  C
  C56      1.0000 0.22690  0.48210  0.59650  Biso   1.000  C
  H73      1.0000 0.70150  0.97010  0.13390  Biso   1.000  H
  H74      1.0000 0.29850  0.97010  0.36610  Biso   1.000  H
  H75      1.0000 0.20150  0.47010  0.13390  Biso   1.000  H
  H76      1.0000 0.79850  0.47010  0.36610  Biso   1.000  H
  H77      1.0000 0.29850  0.02990  0.86610  Biso   1.000  H
  H78      1.0000 0.70150  0.02990  0.63390  Biso   1.000  H
  H79      1.0000 0.79850  0.52990  0.86610  Biso   1.000  H
  H80      1.0000 0.20150  0.52990  0.63390  Biso   1.000  H
  N49      1.0000 0.24520  0.31290  0.26740  Biso   1.000  N
  N50      1.0000 0.75480  0.31290  0.23260  Biso   1.000  N
  N51      1.0000 0.74520  0.81290  0.26740  Biso   1.000  N
  N52      1.0000 0.25480  0.81290  0.23260  Biso   1.000  N
  N53      1.0000 0.75480  0.68710  0.73260  Biso   1.000  N
  N54      1.0000 0.24520  0.68710  0.76740  Biso   1.000  N
  N55      1.0000 0.25480  0.18710  0.73260  Biso   1.000  N
  N56      1.0000 0.74520  0.18710  0.76740  Biso   1.000  N
  O1       1.0000 0.27280  0.26390  0.32350  Biso   1.000  O
  O2       1.0000 0.72720  0.26390  0.17650  Biso   1.000  O
  O3       1.0000 0.77280  0.76390  0.32350  Biso   1.000  O
  O4       1.0000 0.22720  0.76390  0.17650  Biso   1.000  O
  O5       1.0000 0.72720  0.73610  0.67650  Biso   1.000  O
  O6       1.0000 0.27280  0.73610  0.82350  Biso   1.000  O
  O7       1.0000 0.22720  0.23610  0.67650  Biso   1.000  O
  O8       1.0000 0.77280  0.23610  0.82350  Biso   1.000  O
  O9       1.0000 0.31370  0.31070  0.21300  Biso   1.000  O
  O10      1.0000 0.68630  0.31070  0.28700  Biso   1.000  O
  O11      1.0000 0.81370  0.81070  0.21300  Biso   1.000  O
  O12      1.0000 0.18630  0.81070  0.28700  Biso   1.000  O
  O13      1.0000 0.68630  0.68930  0.78700  Biso   1.000  O
  O14      1.0000 0.31370  0.68930  0.71300  Biso   1.000  O
  O15      1.0000 0.18630  0.18930  0.78700  Biso   1.000  O
  O16      1.0000 0.81370  0.18930  0.71300  Biso   1.000  O
  O17      1.0000 0.15800  0.36330  0.25990  Biso   1.000  O
  O18      1.0000 0.84200  0.36330  0.24010  Biso   1.000  O
  O19      1.0000 0.65800  0.86330  0.25990  Biso   1.000  O
  O20      1.0000 0.34200  0.86330  0.24010  Biso   1.000  O
  O21      1.0000 0.84200  0.63670  0.74010  Biso   1.000  O
  O22      1.0000 0.15800  0.63670  0.75990  Biso   1.000  O
  O23      1.0000 0.34200  0.13670  0.74010  Biso   1.000  O
  O24      1.0000 0.65800  0.13670  0.75990  Biso   1.000  O
  O25      1.0000 0.94470  0.50060  0.13626  Biso   1.000  O
  O26      1.0000 0.05530  0.50060  0.36374  Biso   1.000  O
  O27      1.0000 0.44470  0.00060  0.13626  Biso   1.000  O
  O28      1.0000 0.55530  0.00060  0.36374  Biso   1.000  O
  O29      1.0000 0.05530  0.49940  0.86374  Biso   1.000  O
  O30      1.0000 0.94470  0.49940  0.63626  Biso   1.000  O
  O31      1.0000 0.55530  0.99940  0.86374  Biso   1.000  O
  O32      1.0000 0.44470  0.99940  0.63626  Biso   1.000  O
  H81      1.0000 0.90820  0.45290  0.16160  Biso   1.000  H
  H82      1.0000 0.09180  0.45290  0.33840  Biso   1.000  H
  H83      1.0000 0.40820  0.95290  0.16160  Biso   1.000  H
  H84      1.0000 0.59180  0.95290  0.33840  Biso   1.000  H
  H85      1.0000 0.09180  0.54710  0.83840  Biso   1.000  H
  H86      1.0000 0.90820  0.54710  0.66160  Biso   1.000  H
  H87      1.0000 0.59180  0.04710  0.83840  Biso   1.000  H
  H88      1.0000 0.40820  0.04710  0.66160  Biso   1.000  H
  H89      1.0000 0.96640  0.55690  0.16060  Biso   1.000  H
  H90      1.0000 0.03360  0.55690  0.33940  Biso   1.000  H
  H91      1.0000 0.46640  0.05690  0.16060  Biso   1.000  H
  H92      1.0000 0.53360  0.05690  0.33940  Biso   1.000  H
  H93      1.0000 0.03360  0.44310  0.83940  Biso   1.000  H
  H94      1.0000 0.96640  0.44310  0.66060  Biso   1.000  H
  H95      1.0000 0.53360  0.94310  0.83940  Biso   1.000  H
  H96      1.0000 0.46640  0.94310  0.66060  Biso   1.000  H
  O33      1.0000 0.00000  0.65450  0.25000  Biso   1.000  O
  O34      1.0000 0.50000  0.15450  0.25000  Biso   1.000  O
  O35      1.0000 0.00000  0.34550  0.75000  Biso   1.000  O
  O36      1.0000 0.50000  0.84550  0.75000  Biso   1.000  O
  H97      1.0000 0.05640  0.70030  0.24950  Biso   1.000  H
  H98      1.0000 0.94360  0.70030  0.25050  Biso   1.000  H
  H99      1.0000 0.55640  0.20030  0.24950  Biso   1.000  H
  H100     1.0000 0.44360  0.20030  0.25050  Biso   1.000  H
  H101     1.0000 0.94360  0.29970  0.75050  Biso   1.000  H
  H102     1.0000 0.05640  0.29970  0.74950  Biso   1.000  H
  H103     1.0000 0.44360  0.79970  0.75050  Biso   1.000  H
  H104     1.0000 0.55640  0.79970  0.74950  Biso   1.000  H
  O37      1.0000 0.29300  0.22280  0.27760  Biso   1.000  O
  O38      1.0000 0.70700  0.22280  0.22240  Biso   1.000  O
  O39      1.0000 0.79300  0.72280  0.27760  Biso   1.000  O
  O40      1.0000 0.20700  0.72280  0.22240  Biso   1.000  O
  O41      1.0000 0.70700  0.77720  0.72240  Biso   1.000  O
  O42      1.0000 0.29300  0.77720  0.77760  Biso   1.000  O
  O43      1.0000 0.20700  0.27720  0.72240  Biso   1.000  O
  O44      1.0000 0.79300  0.27720  0.77760  Biso   1.000  O
  O45      1.0000 0.13690  0.31920  0.28560  Biso   1.000  O
  O46      1.0000 0.86310  0.31920  0.21440  Biso   1.000  O
  O47      1.0000 0.63690  0.81920  0.28560  Biso   1.000  O
  O48      1.0000 0.36310  0.81920  0.21440  Biso   1.000  O
  O49      1.0000 0.86310  0.68080  0.71440  Biso   1.000  O
  O50      1.0000 0.13690  0.68080  0.78560  Biso   1.000  O
  O51      1.0000 0.36310  0.18080  0.71440  Biso   1.000  O
  O52      1.0000 0.63690  0.18080  0.78560  Biso   1.000  O
  O53      1.0000 0.29820  0.38830  0.24210  Biso   1.000  O
  O54      1.0000 0.70180  0.38830  0.25790  Biso   1.000  O
  O55      1.0000 0.79820  0.88830  0.24210  Biso   1.000  O
  O56      1.0000 0.20180  0.88830  0.25790  Biso   1.000  O
  O57      1.0000 0.70180  0.61170  0.75790  Biso   1.000  O
  O58      1.0000 0.29820  0.61170  0.74210  Biso   1.000  O
  O59      1.0000 0.20180  0.11170  0.75790  Biso   1.000  O
  O60      1.0000 0.79820  0.11170  0.74210  Biso   1.000  O
