data_image0
_cell_length_a       10.3712
_cell_length_b       14.876
_cell_length_c       10.656
_cell_angle_alpha    90
_cell_angle_beta     103.666
_cell_angle_gamma    90

_symmetry_space_group_name_H-M    "P 1"
_symmetry_int_tables_number       1

loop_
  _symmetry_equiv_pos_as_xyz
  'x, y, z'

loop_
  _atom_site_label
  _atom_site_occupancy
  _atom_site_fract_x
  _atom_site_fract_y
  _atom_site_fract_z
  _atom_site_thermal_displace_type
  _atom_site_B_iso_or_equiv
  _atom_site_type_symbol
  Cu1      1.0000 0.57563  0.35647  0.78723  Biso   1.000  Cu
  Cu2      1.0000 0.42437  0.85647  0.71277  Biso   1.000  Cu
  Cu3      1.0000 0.42437  0.64353  0.21277  Biso   1.000  Cu
  Cu4      1.0000 0.57563  0.14353  0.28723  Biso   1.000  Cu
  C1       1.0000 0.75130  0.39430  0.60940  Biso   1.000  C
  C2       1.0000 0.24870  0.89430  0.89060  Biso   1.000  C
  C3       1.0000 0.24870  0.60570  0.39060  Biso   1.000  C
  C4       1.0000 0.75130  0.10570  0.10940  Biso   1.000  C
  H1       1.0000 0.67480  0.39270  0.54300  Biso   1.000  H
  H2       1.0000 0.32520  0.89270  0.95700  Biso   1.000  H
  H3       1.0000 0.32520  0.60730  0.45700  Biso   1.000  H
  H4       1.0000 0.67480  0.10730  0.04300  Biso   1.000  H
  C5       1.0000 0.87110  0.41160  0.58040  Biso   1.000  C
  C6       1.0000 0.12890  0.91160  0.91960  Biso   1.000  C
  C7       1.0000 0.12890  0.58840  0.41960  Biso   1.000  C
  C8       1.0000 0.87110  0.08840  0.08040  Biso   1.000  C
  H5       1.0000 0.87510  0.42170  0.49530  Biso   1.000  H
  H6       1.0000 0.12490  0.92170  0.00470  Biso   1.000  H
  H7       1.0000 0.12490  0.57830  0.50470  Biso   1.000  H
  H8       1.0000 0.87510  0.07830  0.99530  Biso   1.000  H
  C9       1.0000 0.98370  0.41390  0.67630  Biso   1.000  C
  C10      1.0000 0.01630  0.91390  0.82370  Biso   1.000  C
  C11      1.0000 0.01630  0.58610  0.32370  Biso   1.000  C
  C12      1.0000 0.98370  0.08610  0.17630  Biso   1.000  C
  H9       1.0000 0.06510  0.42610  0.65760  Biso   1.000  H
  H10      1.0000 0.93490  0.92610  0.84240  Biso   1.000  H
  H11      1.0000 0.93490  0.57390  0.34240  Biso   1.000  H
  H12      1.0000 0.06510  0.07390  0.15760  Biso   1.000  H
  C13      1.0000 0.97580  0.39790  0.80140  Biso   1.000  C
  C14      1.0000 0.02420  0.89790  0.69860  Biso   1.000  C
  C15      1.0000 0.02420  0.60210  0.19860  Biso   1.000  C
  C16      1.0000 0.97580  0.10210  0.30140  Biso   1.000  C
  H13      1.0000 0.05190  0.39760  0.86830  Biso   1.000  H
  H14      1.0000 0.94810  0.89760  0.63170  Biso   1.000  H
  H15      1.0000 0.94810  0.60240  0.13170  Biso   1.000  H
  H16      1.0000 0.05190  0.10240  0.36830  Biso   1.000  H
  C17      1.0000 0.85240  0.38240  0.82580  Biso   1.000  C
  C18      1.0000 0.14760  0.88240  0.67420  Biso   1.000  C
  C19      1.0000 0.14760  0.61760  0.17420  Biso   1.000  C
  C20      1.0000 0.85240  0.11760  0.32580  Biso   1.000  C
  C21      1.0000 0.83070  0.36500  0.95610  Biso   1.000  C
  C22      1.0000 0.16930  0.86500  0.54390  Biso   1.000  C
  C23      1.0000 0.16930  0.63500  0.04390  Biso   1.000  C
  C24      1.0000 0.83070  0.13500  0.45610  Biso   1.000  C
  C25      1.0000 0.92870  0.36760  0.06750  Biso   1.000  C
  C26      1.0000 0.07130  0.86760  0.43250  Biso   1.000  C
  C27      1.0000 0.07130  0.63240  0.93250  Biso   1.000  C
  C28      1.0000 0.92870  0.13240  0.56750  Biso   1.000  C
  H17      1.0000 0.01650  0.37700  0.06430  Biso   1.000  H
  H18      1.0000 0.98350  0.87700  0.43570  Biso   1.000  H
  H19      1.0000 0.98350  0.62300  0.93570  Biso   1.000  H
  H20      1.0000 0.01650  0.12300  0.56430  Biso   1.000  H
  C29      1.0000 0.89570  0.35600  0.18460  Biso   1.000  C
  C30      1.0000 0.10430  0.85600  0.31540  Biso   1.000  C
  C31      1.0000 0.10430  0.64400  0.81540  Biso   1.000  C
  C32      1.0000 0.89570  0.14400  0.68460  Biso   1.000  C
  H21      1.0000 0.96030  0.35900  0.26160  Biso   1.000  H
  H22      1.0000 0.03970  0.85900  0.23840  Biso   1.000  H
  H23      1.0000 0.03970  0.64100  0.73840  Biso   1.000  H
  H24      1.0000 0.96030  0.14100  0.76160  Biso   1.000  H
  C33      1.0000 0.76550  0.34000  0.18510  Biso   1.000  C
  C34      1.0000 0.23450  0.84000  0.31490  Biso   1.000  C
  C35      1.0000 0.23450  0.66000  0.81490  Biso   1.000  C
  C36      1.0000 0.76550  0.16000  0.68510  Biso   1.000  C
  H25      1.0000 0.74040  0.33230  0.26260  Biso   1.000  H
  H26      1.0000 0.25960  0.83230  0.23740  Biso   1.000  H
  H27      1.0000 0.25960  0.66770  0.73740  Biso   1.000  H
  H28      1.0000 0.74040  0.16770  0.76260  Biso   1.000  H
  C37      1.0000 0.67360  0.33540  0.07020  Biso   1.000  C
  C38      1.0000 0.32640  0.83540  0.42980  Biso   1.000  C
  C39      1.0000 0.32640  0.66460  0.92980  Biso   1.000  C
  C40      1.0000 0.67360  0.16460  0.57020  Biso   1.000  C
  H29      1.0000 0.58600  0.32280  0.07100  Biso   1.000  H
  H30      1.0000 0.41400  0.82280  0.42900  Biso   1.000  H
  H31      1.0000 0.41400  0.67720  0.92900  Biso   1.000  H
  H32      1.0000 0.58600  0.17720  0.57100  Biso   1.000  H
  C41      1.0000 0.34990  0.37870  0.58380  Biso   1.000  C
  C42      1.0000 0.65010  0.87870  0.91620  Biso   1.000  C
  C43      1.0000 0.65010  0.62130  0.41620  Biso   1.000  C
  C44      1.0000 0.34990  0.12130  0.08380  Biso   1.000  C
  C45      1.0000 0.25630  0.32220  0.47920  Biso   1.000  C
  C46      1.0000 0.74370  0.82220  0.02080  Biso   1.000  C
  C47      1.0000 0.74370  0.67780  0.52080  Biso   1.000  C
  C48      1.0000 0.25630  0.17780  0.97920  Biso   1.000  C
  C49      1.0000 0.28610  0.32260  0.34630  Biso   1.000  C
  C50      1.0000 0.71390  0.82260  0.15370  Biso   1.000  C
  C51      1.0000 0.71390  0.67740  0.65370  Biso   1.000  C
  C52      1.0000 0.28610  0.17740  0.84630  Biso   1.000  C
  C53      1.0000 0.42300  0.28490  0.33630  Biso   1.000  C
  C54      1.0000 0.57700  0.78490  0.16370  Biso   1.000  C
  C55      1.0000 0.57700  0.71510  0.66370  Biso   1.000  C
  C56      1.0000 0.42300  0.21510  0.83630  Biso   1.000  C
  N1       1.0000 0.74200  0.37990  0.73040  Biso   1.000  N
  N2       1.0000 0.25800  0.87990  0.76960  Biso   1.000  N
  N3       1.0000 0.25800  0.62010  0.26960  Biso   1.000  N
  N4       1.0000 0.74200  0.12010  0.23040  Biso   1.000  N
  N5       1.0000 0.70380  0.34820  0.95780  Biso   1.000  N
  N6       1.0000 0.29620  0.84820  0.54220  Biso   1.000  N
  N7       1.0000 0.29620  0.65180  0.04220  Biso   1.000  N
  N8       1.0000 0.70380  0.15180  0.45780  Biso   1.000  N
  O1       1.0000 0.46670  0.34730  0.61320  Biso   1.000  O
  O2       1.0000 0.53330  0.84730  0.88680  Biso   1.000  O
  O3       1.0000 0.53330  0.65270  0.38680  Biso   1.000  O
  O4       1.0000 0.46670  0.15270  0.11320  Biso   1.000  O
  O5       1.0000 0.30450  0.44410  0.62730  Biso   1.000  O
  O6       1.0000 0.69550  0.94410  0.87270  Biso   1.000  O
  O7       1.0000 0.69550  0.55590  0.37270  Biso   1.000  O
  O8       1.0000 0.30450  0.05590  0.12730  Biso   1.000  O
  O9       1.0000 0.50540  0.33740  0.31380  Biso   1.000  O
  O10      1.0000 0.49460  0.83740  0.18620  Biso   1.000  O
  O11      1.0000 0.49460  0.66260  0.68620  Biso   1.000  O
  O12      1.0000 0.50540  0.16260  0.81380  Biso   1.000  O
  O13      1.0000 0.43210  0.20160  0.35120  Biso   1.000  O
  O14      1.0000 0.56790  0.70160  0.14880  Biso   1.000  O
  O15      1.0000 0.56790  0.79840  0.64880  Biso   1.000  O
  O16      1.0000 0.43210  0.29840  0.85120  Biso   1.000  O
  O17      1.0000 0.52890  0.49830  0.83680  Biso   1.000  O
  O18      1.0000 0.47110  0.99830  0.66320  Biso   1.000  O
  O19      1.0000 0.47110  0.50170  0.16320  Biso   1.000  O
  O20      1.0000 0.52890  0.00170  0.33680  Biso   1.000  O
  H33      1.0000 0.51000  0.53800  0.78100  Biso   1.000  H
  H34      1.0000 0.49000  0.03800  0.71900  Biso   1.000  H
  H35      1.0000 0.49000  0.46200  0.21900  Biso   1.000  H
  H36      1.0000 0.51000  0.96200  0.28100  Biso   1.000  H
  H37      1.0000 0.58700  0.51700  0.90100  Biso   1.000  H
  H38      1.0000 0.41300  0.01700  0.59900  Biso   1.000  H
  H39      1.0000 0.41300  0.48300  0.09900  Biso   1.000  H
  H40      1.0000 0.58700  0.98300  0.40100  Biso   1.000  H
  F1       1.0000 0.25730  0.23640  0.51950  Biso   1.000  F
  F2       1.0000 0.74270  0.73640  0.98050  Biso   1.000  F
  F3       1.0000 0.74270  0.76360  0.48050  Biso   1.000  F
  F4       1.0000 0.25730  0.26360  0.01950  Biso   1.000  F
  F5       1.0000 0.12980  0.35210  0.46270  Biso   1.000  F
  F6       1.0000 0.87020  0.85210  0.03730  Biso   1.000  F
  F7       1.0000 0.87020  0.64790  0.53730  Biso   1.000  F
  F8       1.0000 0.12980  0.14790  0.96270  Biso   1.000  F
  F9       1.0000 0.27210  0.40820  0.30340  Biso   1.000  F
  F10      1.0000 0.72790  0.90820  0.19660  Biso   1.000  F
  F11      1.0000 0.72790  0.59180  0.69660  Biso   1.000  F
  F12      1.0000 0.27210  0.09180  0.80340  Biso   1.000  F
  F13      1.0000 0.19130  0.27430  0.26610  Biso   1.000  F
  F14      1.0000 0.80870  0.77430  0.23390  Biso   1.000  F
  F15      1.0000 0.80870  0.72570  0.73390  Biso   1.000  F
  F16      1.0000 0.19130  0.22570  0.76610  Biso   1.000  F
  O21      1.0000 0.29750  0.44640  0.93490  Biso   1.000  O
  O22      1.0000 0.70250  0.94640  0.56510  Biso   1.000  O
  O23      1.0000 0.70250  0.55360  0.06510  Biso   1.000  O
  O24      1.0000 0.29750  0.05360  0.43490  Biso   1.000  O
  H41      1.0000 0.31000  0.48500  0.88000  Biso   1.000  H
  H42      1.0000 0.69000  0.98500  0.62000  Biso   1.000  H
  H43      1.0000 0.69000  0.51500  0.12000  Biso   1.000  H
  H44      1.0000 0.31000  0.01500  0.38000  Biso   1.000  H
  H45      1.0000 0.33100  0.39600  0.92300  Biso   1.000  H
  H46      1.0000 0.66900  0.89600  0.57700  Biso   1.000  H
  H47      1.0000 0.66900  0.60400  0.07700  Biso   1.000  H
  H48      1.0000 0.33100  0.10400  0.42300  Biso   1.000  H
