data_image0
_cell_length_a       18.816
_cell_length_b       12.218
_cell_length_c       15.704
_cell_angle_alpha    90
_cell_angle_beta     118.94
_cell_angle_gamma    90

_symmetry_space_group_name_H-M    "P 1"
_symmetry_int_tables_number       1

loop_
  _symmetry_equiv_pos_as_xyz
  'x, y, z'

loop_
  _atom_site_label
  _atom_site_occupancy
  _atom_site_fract_x
  _atom_site_fract_y
  _atom_site_fract_z
  _atom_site_thermal_displace_type
  _atom_site_B_iso_or_equiv
  _atom_site_type_symbol
  Cu1      1.0000 0.21880  0.51240  0.23910  Biso   1.000  Cu
  Cu2      1.0000 0.21880  0.48760  0.73910  Biso   1.000  Cu
  Cu3      1.0000 0.71880  0.01240  0.23910  Biso   1.000  Cu
  Cu4      1.0000 0.71880  0.98760  0.73910  Biso   1.000  Cu
  Cu5      1.0000 0.50000  0.68960  0.50000  Biso   1.000  Cu
  Cu6      1.0000 0.50000  0.31040  0.00000  Biso   1.000  Cu
  Cu7      1.0000 0.00000  0.18960  0.50000  Biso   1.000  Cu
  Cu8      1.0000 0.00000  0.81040  0.00000  Biso   1.000  Cu
  O1       1.0000 0.29100  0.54160  0.41080  Biso   1.000  O
  O2       1.0000 0.29100  0.45840  0.91080  Biso   1.000  O
  O3       1.0000 0.79100  0.04160  0.41080  Biso   1.000  O
  O4       1.0000 0.79100  0.95840  0.91080  Biso   1.000  O
  O5       1.0000 0.30260  0.62580  0.25510  Biso   1.000  O
  O6       1.0000 0.30260  0.37420  0.75510  Biso   1.000  O
  O7       1.0000 0.80260  0.12580  0.25510  Biso   1.000  O
  O8       1.0000 0.80260  0.87420  0.75510  Biso   1.000  O
  O9       1.0000 0.41280  0.61430  0.51070  Biso   1.000  O
  O10      1.0000 0.41280  0.38570  0.01070  Biso   1.000  O
  O11      1.0000 0.91280  0.11430  0.51070  Biso   1.000  O
  O12      1.0000 0.91280  0.88570  0.01070  Biso   1.000  O
  O13      1.0000 0.42170  0.69570  0.35840  Biso   1.000  O
  O14      1.0000 0.42170  0.30430  0.85840  Biso   1.000  O
  O15      1.0000 0.92170  0.19570  0.35840  Biso   1.000  O
  O16      1.0000 0.92170  0.80430  0.85840  Biso   1.000  O
  O17      1.0000 0.15490  0.56360  0.07320  Biso   1.000  O
  O18      1.0000 0.15490  0.43640  0.57320  Biso   1.000  O
  O19      1.0000 0.65490  0.06360  0.07320  Biso   1.000  O
  O20      1.0000 0.65490  0.93640  0.57320  Biso   1.000  O
  O21      1.0000 0.14220  0.63120  0.23190  Biso   1.000  O
  O22      1.0000 0.14220  0.36880  0.73190  Biso   1.000  O
  O23      1.0000 0.64220  0.13120  0.23190  Biso   1.000  O
  O24      1.0000 0.64220  0.86880  0.73190  Biso   1.000  O
  O25      1.0000 0.06710  0.69390  0.98530  Biso   1.000  O
  O26      1.0000 0.06710  0.30610  0.48530  Biso   1.000  O
  O27      1.0000 0.56710  0.19390  0.98530  Biso   1.000  O
  O28      1.0000 0.56710  0.80610  0.48530  Biso   1.000  O
  O29      1.0000 0.05030  0.75520  0.13840  Biso   1.000  O
  O30      1.0000 0.05030  0.24480  0.63840  Biso   1.000  O
  O31      1.0000 0.55030  0.25520  0.13840  Biso   1.000  O
  O32      1.0000 0.55030  0.74480  0.63840  Biso   1.000  O
  N1       1.0000 0.29980  0.39640  0.25260  Biso   1.000  N
  N2       1.0000 0.29980  0.60360  0.75260  Biso   1.000  N
  N3       1.0000 0.79980  0.89640  0.25260  Biso   1.000  N
  N4       1.0000 0.79980  0.10360  0.75260  Biso   1.000  N
  N5       1.0000 0.31110  0.45580  0.11900  Biso   1.000  N
  N6       1.0000 0.31110  0.54420  0.61900  Biso   1.000  N
  N7       1.0000 0.81110  0.95580  0.11900  Biso   1.000  N
  N8       1.0000 0.81110  0.04420  0.61900  Biso   1.000  N
  N9       1.0000 0.13670  0.39730  0.21490  Biso   1.000  N
  N10      1.0000 0.13670  0.60270  0.71490  Biso   1.000  N
  N11      1.0000 0.63670  0.89730  0.21490  Biso   1.000  N
  N12      1.0000 0.63670  0.10270  0.71490  Biso   1.000  N
  N13      1.0000 0.13130  0.43000  0.35930  Biso   1.000  N
  N14      1.0000 0.13130  0.57000  0.85930  Biso   1.000  N
  N15      1.0000 0.63130  0.93000  0.35930  Biso   1.000  N
  N16      1.0000 0.63130  0.07000  0.85930  Biso   1.000  N
  N17      1.0000 0.57020  0.54100  0.49750  Biso   1.000  N
  N18      1.0000 0.57020  0.45900  0.99750  Biso   1.000  N
  N19      1.0000 0.07020  0.04100  0.49750  Biso   1.000  N
  N20      1.0000 0.07020  0.95900  0.99750  Biso   1.000  N
  N21      1.0000 0.65010  0.53750  0.66680  Biso   1.000  N
  N22      1.0000 0.65010  0.46250  0.16680  Biso   1.000  N
  N23      1.0000 0.15010  0.03750  0.66680  Biso   1.000  N
  N24      1.0000 0.15010  0.96250  0.16680  Biso   1.000  N
  C1       1.0000 0.35350  0.59280  0.42870  Biso   1.000  C
  C2       1.0000 0.35350  0.40720  0.92870  Biso   1.000  C
  C3       1.0000 0.85350  0.09280  0.42870  Biso   1.000  C
  C4       1.0000 0.85350  0.90720  0.92870  Biso   1.000  C
  C5       1.0000 0.35940  0.64090  0.34000  Biso   1.000  C
  C6       1.0000 0.35940  0.35910  0.84000  Biso   1.000  C
  C7       1.0000 0.85940  0.14090  0.34000  Biso   1.000  C
  C8       1.0000 0.85940  0.85910  0.84000  Biso   1.000  C
  C9       1.0000 0.10710  0.64450  0.06280  Biso   1.000  C
  C10      1.0000 0.10710  0.35550  0.56280  Biso   1.000  C
  C11      1.0000 0.60710  0.14450  0.06280  Biso   1.000  C
  C12      1.0000 0.60710  0.85550  0.56280  Biso   1.000  C
  C13      1.0000 0.09930  0.67840  0.15130  Biso   1.000  C
  C14      1.0000 0.09930  0.32160  0.65130  Biso   1.000  C
  C15      1.0000 0.59930  0.17840  0.15130  Biso   1.000  C
  C16      1.0000 0.59930  0.82160  0.65130  Biso   1.000  C
  C17      1.0000 0.33630  0.38810  0.19560  Biso   1.000  C
  C18      1.0000 0.33630  0.61190  0.69560  Biso   1.000  C
  C19      1.0000 0.83630  0.88810  0.19560  Biso   1.000  C
  C20      1.0000 0.83630  0.11190  0.69560  Biso   1.000  C
  C21      1.0000 0.39570  0.30680  0.21360  Biso   1.000  C
  C22      1.0000 0.39570  0.69320  0.71360  Biso   1.000  C
  C23      1.0000 0.89570  0.80680  0.21360  Biso   1.000  C
  C24      1.0000 0.89570  0.19320  0.71360  Biso   1.000  C
  C25      1.0000 0.41800  0.23610  0.29290  Biso   1.000  C
  C26      1.0000 0.41800  0.76390  0.79290  Biso   1.000  C
  C27      1.0000 0.91800  0.73610  0.29290  Biso   1.000  C
  C28      1.0000 0.91800  0.26390  0.79290  Biso   1.000  C
  C29      1.0000 0.38220  0.24740  0.35060  Biso   1.000  C
  C30      1.0000 0.38220  0.75260  0.85060  Biso   1.000  C
  C31      1.0000 0.88220  0.74740  0.35060  Biso   1.000  C
  C32      1.0000 0.88220  0.25260  0.85060  Biso   1.000  C
  C33      1.0000 0.32390  0.32170  0.32710  Biso   1.000  C
  C34      1.0000 0.32390  0.67830  0.82710  Biso   1.000  C
  C35      1.0000 0.82390  0.82170  0.32710  Biso   1.000  C
  C36      1.0000 0.82390  0.17830  0.82710  Biso   1.000  C
  C37      1.0000 0.48370  0.14670  0.31350  Biso   1.000  C
  C38      1.0000 0.48370  0.85330  0.81350  Biso   1.000  C
  C39      1.0000 0.98370  0.64670  0.31350  Biso   1.000  C
  C40      1.0000 0.98370  0.35330  0.81350  Biso   1.000  C
  C41      1.0000 0.10400  0.37260  0.27510  Biso   1.000  C
  C42      1.0000 0.10400  0.62740  0.77510  Biso   1.000  C
  C43      1.0000 0.60400  0.87260  0.27510  Biso   1.000  C
  C44      1.0000 0.60400  0.12740  0.77510  Biso   1.000  C
  C45      1.0000 0.04620  0.28760  0.24930  Biso   1.000  C
  C46      1.0000 0.04620  0.71240  0.74930  Biso   1.000  C
  C47      1.0000 0.54620  0.78760  0.24930  Biso   1.000  C
  C48      1.0000 0.54620  0.21240  0.74930  Biso   1.000  C
  C49      1.0000 0.02120  0.23010  0.16850  Biso   1.000  C
  C50      1.0000 0.02120  0.76990  0.66850  Biso   1.000  C
  C51      1.0000 0.52120  0.73010  0.16850  Biso   1.000  C
  C52      1.0000 0.52120  0.26990  0.66850  Biso   1.000  C
  C53      1.0000 0.05320  0.25840  0.10550  Biso   1.000  C
  C54      1.0000 0.05320  0.74160  0.60550  Biso   1.000  C
  C55      1.0000 0.55320  0.75840  0.10550  Biso   1.000  C
  C56      1.0000 0.55320  0.24160  0.60550  Biso   1.000  C
  C57      1.0000 0.10710  0.34130  0.12910  Biso   1.000  C
  C58      1.0000 0.10710  0.65870  0.62910  Biso   1.000  C
  C59      1.0000 0.60710  0.84130  0.12910  Biso   1.000  C
  C60      1.0000 0.60710  0.15870  0.62910  Biso   1.000  C
  C61      1.0000 0.95800  0.13710  0.14160  Biso   1.000  C
  C62      1.0000 0.95800  0.86290  0.64160  Biso   1.000  C
  C63      1.0000 0.45800  0.63710  0.14160  Biso   1.000  C
  C64      1.0000 0.45800  0.36290  0.64160  Biso   1.000  C
  C65      1.0000 0.63340  0.49780  0.57900  Biso   1.000  C
  C66      1.0000 0.63340  0.50220  0.07900  Biso   1.000  C
  C67      1.0000 0.13340  0.99780  0.57900  Biso   1.000  C
  C68      1.0000 0.13340  0.00220  0.07900  Biso   1.000  C
  C69      1.0000 0.68190  0.41280  0.57060  Biso   1.000  C
  C70      1.0000 0.68190  0.58720  0.07060  Biso   1.000  C
  C71      1.0000 0.18190  0.91280  0.57060  Biso   1.000  C
  C72      1.0000 0.18190  0.08720  0.07060  Biso   1.000  C
  C73      1.0000 0.66210  0.37530  0.47920  Biso   1.000  C
  C74      1.0000 0.66210  0.62470  0.97920  Biso   1.000  C
  C75      1.0000 0.16210  0.87530  0.47920  Biso   1.000  C
  C76      1.0000 0.16210  0.12470  0.97920  Biso   1.000  C
  C77      1.0000 0.59310  0.42100  0.39860  Biso   1.000  C
  C78      1.0000 0.59310  0.57900  0.89860  Biso   1.000  C
  C79      1.0000 0.09310  0.92100  0.39860  Biso   1.000  C
  C80      1.0000 0.09310  0.07900  0.89860  Biso   1.000  C
  C81      1.0000 0.55150  0.50220  0.41100  Biso   1.000  C
  C82      1.0000 0.55150  0.49780  0.91100  Biso   1.000  C
  C83      1.0000 0.05150  0.00220  0.41100  Biso   1.000  C
  C84      1.0000 0.05150  0.99780  0.91100  Biso   1.000  C
  C85      1.0000 0.70920  0.28310  0.46480  Biso   1.000  C
  C86      1.0000 0.70920  0.71690  0.96480  Biso   1.000  C
  C87      1.0000 0.20920  0.78310  0.46480  Biso   1.000  C
  C88      1.0000 0.20920  0.21690  0.96480  Biso   1.000  C
  N25      1.0000 0.27060  0.03500  0.36770  Biso   1.000  N
  N26      1.0000 0.27060  0.96500  0.86770  Biso   1.000  N
  N27      1.0000 0.77060  0.53500  0.36770  Biso   1.000  N
  N28      1.0000 0.77060  0.46500  0.86770  Biso   1.000  N
  N29      1.0000 0.38150  0.92810  0.42780  Biso   1.000  N
  N30      1.0000 0.38150  0.07190  0.92780  Biso   1.000  N
  N31      1.0000 0.88150  0.42810  0.42780  Biso   1.000  N
  N32      1.0000 0.88150  0.57190  0.92780  Biso   1.000  N
  C89      1.0000 0.33560  0.99700  0.44290  Biso   1.000  C
  C90      1.0000 0.33560  0.00300  0.94290  Biso   1.000  C
  C91      1.0000 0.83560  0.49700  0.44290  Biso   1.000  C
  C92      1.0000 0.83560  0.50300  0.94290  Biso   1.000  C
  C93      1.0000 0.36130  0.03310  0.53910  Biso   1.000  C
  C94      1.0000 0.36130  0.96690  0.03910  Biso   1.000  C
  C95      1.0000 0.86130  0.53310  0.53910  Biso   1.000  C
  C96      1.0000 0.86130  0.46690  0.03910  Biso   1.000  C
  C97      1.0000 0.31450  0.10580  0.55090  Biso   1.000  C
  C98      1.0000 0.31450  0.89420  0.05090  Biso   1.000  C
  C99      1.0000 0.81450  0.60580  0.55090  Biso   1.000  C
  C100     1.0000 0.81450  0.39420  0.05090  Biso   1.000  C
  C101     1.0000 0.24250  0.14490  0.47360  Biso   1.000  C
  C102     1.0000 0.24250  0.85510  0.97360  Biso   1.000  C
  C103     1.0000 0.74250  0.64490  0.47360  Biso   1.000  C
  C104     1.0000 0.74250  0.35510  0.97360  Biso   1.000  C
  C105     1.0000 0.22330  0.11160  0.38300  Biso   1.000  C
  C106     1.0000 0.22330  0.88840  0.88300  Biso   1.000  C
  C107     1.0000 0.72330  0.61160  0.38300  Biso   1.000  C
  C108     1.0000 0.72330  0.38840  0.88300  Biso   1.000  C
  C109     1.0000 0.33170  0.13640  0.65620  Biso   1.000  C
  C110     1.0000 0.33170  0.86360  0.15620  Biso   1.000  C
  C111     1.0000 0.83170  0.63640  0.65620  Biso   1.000  C
  C112     1.0000 0.83170  0.36360  0.15620  Biso   1.000  C
  H1       1.0000 0.42276  0.30020  0.16744  Biso   1.000  H
  H2       1.0000 0.42276  0.69980  0.66744  Biso   1.000  H
  H3       1.0000 0.92276  0.80020  0.16744  Biso   1.000  H
  H4       1.0000 0.92276  0.19980  0.66744  Biso   1.000  H
  H5       1.0000 0.40324  0.20009  0.41529  Biso   1.000  H
  H6       1.0000 0.40324  0.79991  0.91529  Biso   1.000  H
  H7       1.0000 0.90324  0.70009  0.41529  Biso   1.000  H
  H8       1.0000 0.90324  0.29991  0.91529  Biso   1.000  H
  H9       1.0000 0.29280  0.32520  0.36790  Biso   1.000  H
  H10      1.0000 0.29280  0.67480  0.86790  Biso   1.000  H
  H11      1.0000 0.79280  0.82520  0.36790  Biso   1.000  H
  H12      1.0000 0.79280  0.17480  0.86790  Biso   1.000  H
  H13      1.0000 0.02247  0.27383  0.29887  Biso   1.000  H
  H14      1.0000 0.02247  0.72617  0.79887  Biso   1.000  H
  H15      1.0000 0.52247  0.77383  0.29887  Biso   1.000  H
  H16      1.0000 0.52247  0.22617  0.79887  Biso   1.000  H
  H17      1.0000 0.03410  0.21070  0.04300  Biso   1.000  H
  H18      1.0000 0.03410  0.78930  0.54300  Biso   1.000  H
  H19      1.0000 0.53410  0.71070  0.04300  Biso   1.000  H
  H20      1.0000 0.53410  0.28930  0.54300  Biso   1.000  H
  H21      1.0000 0.12780  0.36000  0.07770  Biso   1.000  H
  H22      1.0000 0.12780  0.64000  0.57770  Biso   1.000  H
  H23      1.0000 0.62780  0.86000  0.07770  Biso   1.000  H
  H24      1.0000 0.62780  0.14000  0.57770  Biso   1.000  H
  H25      1.0000 0.73210  0.38140  0.63590  Biso   1.000  H
  H26      1.0000 0.73210  0.61860  0.13590  Biso   1.000  H
  H27      1.0000 0.23210  0.88140  0.63590  Biso   1.000  H
  H28      1.0000 0.23210  0.11860  0.13590  Biso   1.000  H
  H29      1.0000 0.57360  0.38240  0.32900  Biso   1.000  H
  H30      1.0000 0.57360  0.61760  0.82900  Biso   1.000  H
  H31      1.0000 0.07360  0.88240  0.32900  Biso   1.000  H
  H32      1.0000 0.07360  0.11760  0.82900  Biso   1.000  H
  H33      1.0000 0.49960  0.53350  0.34460  Biso   1.000  H
  H34      1.0000 0.49960  0.46650  0.84460  Biso   1.000  H
  H35      1.0000 0.99960  0.03350  0.34460  Biso   1.000  H
  H36      1.0000 0.99960  0.96650  0.84460  Biso   1.000  H
  H37      1.0000 0.26927  0.51163  0.10702  Biso   1.000  H
  H38      1.0000 0.26927  0.48837  0.60702  Biso   1.000  H
  H39      1.0000 0.76927  0.01163  0.10702  Biso   1.000  H
  H40      1.0000 0.76927  0.98837  0.60702  Biso   1.000  H
  H41      1.0000 0.33669  0.45045  0.07609  Biso   1.000  H
  H42      1.0000 0.33669  0.54955  0.57609  Biso   1.000  H
  H43      1.0000 0.83669  0.95045  0.07609  Biso   1.000  H
  H44      1.0000 0.83669  0.04955  0.57609  Biso   1.000  H
  H45      1.0000 0.48975  0.10480  0.37069  Biso   1.000  H
  H46      1.0000 0.48975  0.89520  0.87069  Biso   1.000  H
  H47      1.0000 0.98975  0.60480  0.37069  Biso   1.000  H
  H48      1.0000 0.98975  0.39520  0.87069  Biso   1.000  H
  H49      1.0000 0.53405  0.18371  0.32649  Biso   1.000  H
  H50      1.0000 0.53405  0.81629  0.82649  Biso   1.000  H
  H51      1.0000 0.03405  0.68371  0.32649  Biso   1.000  H
  H52      1.0000 0.03405  0.31629  0.82649  Biso   1.000  H
  H53      1.0000 0.46326  0.09854  0.25525  Biso   1.000  H
  H54      1.0000 0.46326  0.90146  0.75525  Biso   1.000  H
  H55      1.0000 0.96326  0.59854  0.25525  Biso   1.000  H
  H56      1.0000 0.96326  0.40146  0.75525  Biso   1.000  H
  H57      1.0000 0.17450  0.48708  0.37724  Biso   1.000  H
  H58      1.0000 0.17450  0.51292  0.87724  Biso   1.000  H
  H59      1.0000 0.67450  0.98708  0.37724  Biso   1.000  H
  H60      1.0000 0.67450  0.01292  0.87724  Biso   1.000  H
  H61      1.0000 0.10958  0.41273  0.40428  Biso   1.000  H
  H62      1.0000 0.10958  0.58727  0.90428  Biso   1.000  H
  H63      1.0000 0.60958  0.91273  0.40428  Biso   1.000  H
  H64      1.0000 0.60958  0.08727  0.90428  Biso   1.000  H
  H65      1.0000 0.94676  0.10647  0.07663  Biso   1.000  H
  H66      1.0000 0.94676  0.89353  0.57663  Biso   1.000  H
  H67      1.0000 0.44676  0.60647  0.07663  Biso   1.000  H
  H68      1.0000 0.44676  0.39353  0.57663  Biso   1.000  H
  H69      1.0000 0.90655  0.16921  0.13489  Biso   1.000  H
  H70      1.0000 0.90655  0.83079  0.63489  Biso   1.000  H
  H71      1.0000 0.40655  0.66921  0.13489  Biso   1.000  H
  H72      1.0000 0.40655  0.33079  0.63489  Biso   1.000  H
  H73      1.0000 0.97942  0.08049  0.19165  Biso   1.000  H
  H74      1.0000 0.97942  0.91951  0.69165  Biso   1.000  H
  H75      1.0000 0.47942  0.58049  0.19165  Biso   1.000  H
  H76      1.0000 0.47942  0.41951  0.69165  Biso   1.000  H
  H77      1.0000 0.61628  0.59652  0.67201  Biso   1.000  H
  H78      1.0000 0.61628  0.40348  0.17201  Biso   1.000  H
  H79      1.0000 0.11628  0.09652  0.67201  Biso   1.000  H
  H80      1.0000 0.11628  0.90348  0.17201  Biso   1.000  H
  H81      1.0000 0.69681  0.50610  0.72794  Biso   1.000  H
  H82      1.0000 0.69681  0.49390  0.22794  Biso   1.000  H
  H83      1.0000 0.19681  0.00610  0.72794  Biso   1.000  H
  H84      1.0000 0.19681  0.99390  0.22794  Biso   1.000  H
  H85      1.0000 0.68655  0.26701  0.39577  Biso   1.000  H
  H86      1.0000 0.68655  0.73299  0.89577  Biso   1.000  H
  H87      1.0000 0.18655  0.76701  0.39577  Biso   1.000  H
  H88      1.0000 0.18655  0.23299  0.89577  Biso   1.000  H
  H89      1.0000 0.70535  0.21682  0.50101  Biso   1.000  H
  H90      1.0000 0.70535  0.78318  0.00101  Biso   1.000  H
  H91      1.0000 0.20535  0.71682  0.50101  Biso   1.000  H
  H92      1.0000 0.20535  0.28318  0.00101  Biso   1.000  H
  H93      1.0000 0.76749  0.30565  0.49472  Biso   1.000  H
  H94      1.0000 0.76749  0.69435  0.99472  Biso   1.000  H
  H95      1.0000 0.26749  0.80565  0.49472  Biso   1.000  H
  H96      1.0000 0.26749  0.19435  0.99472  Biso   1.000  H
  H97      1.0000 0.41280  0.99770  0.59720  Biso   1.000  H
  H98      1.0000 0.41280  0.00230  0.09720  Biso   1.000  H
  H99      1.0000 0.91280  0.49770  0.59720  Biso   1.000  H
  H100     1.0000 0.91280  0.50230  0.09720  Biso   1.000  H
  H101     1.0000 0.20360  0.19780  0.48550  Biso   1.000  H
  H102     1.0000 0.20360  0.80220  0.98550  Biso   1.000  H
  H103     1.0000 0.70360  0.69780  0.48550  Biso   1.000  H
  H104     1.0000 0.70360  0.30220  0.98550  Biso   1.000  H
  H105     1.0000 0.16950  0.14080  0.32060  Biso   1.000  H
  H106     1.0000 0.16950  0.85920  0.82060  Biso   1.000  H
  H107     1.0000 0.66950  0.64080  0.32060  Biso   1.000  H
  H108     1.0000 0.66950  0.35920  0.82060  Biso   1.000  H
  H109     1.0000 0.36793  0.90318  0.35964  Biso   1.000  H
  H110     1.0000 0.36793  0.09682  0.85964  Biso   1.000  H
  H111     1.0000 0.86793  0.40318  0.35964  Biso   1.000  H
  H112     1.0000 0.86793  0.59682  0.85964  Biso   1.000  H
  H113     1.0000 0.43325  0.89638  0.48380  Biso   1.000  H
  H114     1.0000 0.43325  0.10362  0.98380  Biso   1.000  H
  H115     1.0000 0.93325  0.39638  0.48380  Biso   1.000  H
  H116     1.0000 0.93325  0.60362  0.98380  Biso   1.000  H
  H117     1.0000 0.29225  0.19264  0.65282  Biso   1.000  H
  H118     1.0000 0.29225  0.80736  0.15282  Biso   1.000  H
  H119     1.0000 0.79225  0.69264  0.65282  Biso   1.000  H
  H120     1.0000 0.79225  0.30736  0.15282  Biso   1.000  H
  H121     1.0000 0.38825  0.16492  0.69385  Biso   1.000  H
  H122     1.0000 0.38825  0.83508  0.19385  Biso   1.000  H
  H123     1.0000 0.88825  0.66492  0.69385  Biso   1.000  H
  H124     1.0000 0.88825  0.33508  0.19385  Biso   1.000  H
  H125     1.0000 0.32614  0.06893  0.68937  Biso   1.000  H
  H126     1.0000 0.32614  0.93107  0.18937  Biso   1.000  H
  H127     1.0000 0.82614  0.56893  0.68937  Biso   1.000  H
  H128     1.0000 0.82614  0.43107  0.18937  Biso   1.000  H
