data_image0
_cell_length_a       8.886
_cell_length_b       10.85
_cell_length_c       15.17
_cell_angle_alpha    90
_cell_angle_beta     90
_cell_angle_gamma    90

_symmetry_space_group_name_H-M    "P 1"
_symmetry_int_tables_number       1

loop_
  _symmetry_equiv_pos_as_xyz
  'x, y, z'

loop_
  _atom_site_label
  _atom_site_occupancy
  _atom_site_fract_x
  _atom_site_fract_y
  _atom_site_fract_z
  _atom_site_thermal_displace_type
  _atom_site_B_iso_or_equiv
  _atom_site_type_symbol
  Cu1      1.0000 0.25000  0.15310  0.00000  Biso   1.000  Cu
  Cu2      1.0000 0.25000  0.65310  0.50000  Biso   1.000  Cu
  Cu3      1.0000 0.75000  0.84690  0.00000  Biso   1.000  Cu
  Cu4      1.0000 0.75000  0.34690  0.50000  Biso   1.000  Cu
  O1       1.0000 0.15301  0.01891  0.92808  Biso   1.000  O
  O2       1.0000 0.34699  0.51891  0.42808  Biso   1.000  O
  O3       1.0000 0.65301  0.98109  0.92808  Biso   1.000  O
  O4       1.0000 0.15301  0.51891  0.57192  Biso   1.000  O
  O5       1.0000 0.84699  0.98109  0.07192  Biso   1.000  O
  O6       1.0000 0.65301  0.48109  0.57192  Biso   1.000  O
  O7       1.0000 0.34699  0.01891  0.07192  Biso   1.000  O
  O8       1.0000 0.84699  0.48109  0.42808  Biso   1.000  O
  O9       1.0000 0.03011  0.12016  0.07384  Biso   1.000  O
  O10      1.0000 0.46989  0.62016  0.57384  Biso   1.000  O
  O11      1.0000 0.53011  0.87984  0.07384  Biso   1.000  O
  O12      1.0000 0.03011  0.62016  0.42616  Biso   1.000  O
  O13      1.0000 0.96989  0.87984  0.92616  Biso   1.000  O
  O14      1.0000 0.53011  0.37984  0.42616  Biso   1.000  O
  O15      1.0000 0.46989  0.12016  0.92616  Biso   1.000  O
  O16      1.0000 0.96989  0.37984  0.57384  Biso   1.000  O
  C1       1.0000 0.03381  0.96977  0.95786  Biso   1.000  C
  C2       1.0000 0.46619  0.46977  0.45786  Biso   1.000  C
  C3       1.0000 0.53381  0.03023  0.95786  Biso   1.000  C
  C4       1.0000 0.03381  0.46977  0.54214  Biso   1.000  C
  C5       1.0000 0.96619  0.03023  0.04214  Biso   1.000  C
  C6       1.0000 0.53381  0.53023  0.54214  Biso   1.000  C
  C7       1.0000 0.46619  0.96977  0.04214  Biso   1.000  C
  C8       1.0000 0.96619  0.53023  0.45786  Biso   1.000  C
  N1       1.0000 0.32494  0.27892  0.08624  Biso   1.000  N
  N2       1.0000 0.17506  0.77892  0.58624  Biso   1.000  N
  N3       1.0000 0.82494  0.72108  0.08624  Biso   1.000  N
  N4       1.0000 0.32494  0.77892  0.41376  Biso   1.000  N
  N5       1.0000 0.67506  0.72108  0.91376  Biso   1.000  N
  N6       1.0000 0.82494  0.22108  0.41376  Biso   1.000  N
  N7       1.0000 0.17506  0.27892  0.91376  Biso   1.000  N
  N8       1.0000 0.67506  0.22108  0.58624  Biso   1.000  N
  C9       1.0000 0.25420  0.29320  0.16276  Biso   1.000  C
  C10      1.0000 0.24580  0.79320  0.66276  Biso   1.000  C
  C11      1.0000 0.75420  0.70680  0.16276  Biso   1.000  C
  C12      1.0000 0.25420  0.79320  0.33724  Biso   1.000  C
  C13      1.0000 0.74580  0.70680  0.83724  Biso   1.000  C
  C14      1.0000 0.75420  0.20680  0.33724  Biso   1.000  C
  C15      1.0000 0.24580  0.29320  0.83724  Biso   1.000  C
  C16      1.0000 0.74580  0.20680  0.66276  Biso   1.000  C
  C17      1.0000 0.30300  0.37490  0.22775  Biso   1.000  C
  C18      1.0000 0.19700  0.87490  0.72775  Biso   1.000  C
  C19      1.0000 0.80300  0.62510  0.22775  Biso   1.000  C
  C20      1.0000 0.30300  0.87490  0.27225  Biso   1.000  C
  C21      1.0000 0.69700  0.62510  0.77225  Biso   1.000  C
  C22      1.0000 0.80300  0.12510  0.27225  Biso   1.000  C
  C23      1.0000 0.19700  0.37490  0.77225  Biso   1.000  C
  C24      1.0000 0.69700  0.12510  0.72775  Biso   1.000  C
  C25      1.0000 0.43210  0.44130  0.21211  Biso   1.000  C
  C26      1.0000 0.06790  0.94130  0.71211  Biso   1.000  C
  C27      1.0000 0.93210  0.55870  0.21211  Biso   1.000  C
  C28      1.0000 0.43210  0.94130  0.28789  Biso   1.000  C
  C29      1.0000 0.56790  0.55870  0.78789  Biso   1.000  C
  C30      1.0000 0.93210  0.05870  0.28789  Biso   1.000  C
  C31      1.0000 0.06790  0.44130  0.78789  Biso   1.000  C
  C32      1.0000 0.56790  0.05870  0.71211  Biso   1.000  C
  C33      1.0000 0.50570  0.42450  0.13251  Biso   1.000  C
  C34      1.0000 0.99430  0.92450  0.63251  Biso   1.000  C
  C35      1.0000 0.00570  0.57550  0.13251  Biso   1.000  C
  C36      1.0000 0.50570  0.92450  0.36749  Biso   1.000  C
  C37      1.0000 0.49430  0.57550  0.86749  Biso   1.000  C
  C38      1.0000 0.00570  0.07550  0.36749  Biso   1.000  C
  C39      1.0000 0.99430  0.42450  0.86749  Biso   1.000  C
  C40      1.0000 0.49430  0.07550  0.63251  Biso   1.000  C
  C41      1.0000 0.44970  0.34290  0.07106  Biso   1.000  C
  C42      1.0000 0.05030  0.84290  0.57106  Biso   1.000  C
  C43      1.0000 0.94970  0.65710  0.07106  Biso   1.000  C
  C44      1.0000 0.44970  0.84290  0.42894  Biso   1.000  C
  C45      1.0000 0.55030  0.65710  0.92894  Biso   1.000  C
  C46      1.0000 0.94970  0.15710  0.42894  Biso   1.000  C
  C47      1.0000 0.05030  0.34290  0.92894  Biso   1.000  C
  C48      1.0000 0.55030  0.15710  0.57106  Biso   1.000  C
  O17      1.0000 0.21910  0.38420  0.30058  Biso   1.000  O
  O18      1.0000 0.28090  0.88420  0.80058  Biso   1.000  O
  O19      1.0000 0.71910  0.61580  0.30058  Biso   1.000  O
  O20      1.0000 0.21910  0.88420  0.19942  Biso   1.000  O
  O21      1.0000 0.78090  0.61580  0.69942  Biso   1.000  O
  O22      1.0000 0.71910  0.11580  0.19942  Biso   1.000  O
  O23      1.0000 0.28090  0.38420  0.69942  Biso   1.000  O
  O24      1.0000 0.78090  0.11580  0.80058  Biso   1.000  O
  H1       1.0000 0.16310  0.24140  0.17150  Biso   1.000  H
  H2       1.0000 0.33690  0.74140  0.67150  Biso   1.000  H
  H3       1.0000 0.66310  0.75860  0.17150  Biso   1.000  H
  H4       1.0000 0.16310  0.74140  0.32850  Biso   1.000  H
  H5       1.0000 0.83690  0.75860  0.82850  Biso   1.000  H
  H6       1.0000 0.66310  0.25860  0.32850  Biso   1.000  H
  H7       1.0000 0.33690  0.24140  0.82850  Biso   1.000  H
  H8       1.0000 0.83690  0.25860  0.67150  Biso   1.000  H
  H9       1.0000 0.48010  0.49700  0.25390  Biso   1.000  H
  H10      1.0000 0.01990  0.99700  0.75390  Biso   1.000  H
  H11      1.0000 0.98010  0.50300  0.25390  Biso   1.000  H
  H12      1.0000 0.48010  0.99700  0.24610  Biso   1.000  H
  H13      1.0000 0.51990  0.50300  0.74610  Biso   1.000  H
  H14      1.0000 0.98010  0.00300  0.24610  Biso   1.000  H
  H15      1.0000 0.01990  0.49700  0.74610  Biso   1.000  H
  H16      1.0000 0.51990  0.00300  0.75390  Biso   1.000  H
  H17      1.0000 0.59530  0.46480  0.11950  Biso   1.000  H
  H18      1.0000 0.90470  0.96480  0.61950  Biso   1.000  H
  H19      1.0000 0.09530  0.53520  0.11950  Biso   1.000  H
  H20      1.0000 0.59530  0.96480  0.38050  Biso   1.000  H
  H21      1.0000 0.40470  0.53520  0.88050  Biso   1.000  H
  H22      1.0000 0.09530  0.03520  0.38050  Biso   1.000  H
  H23      1.0000 0.90470  0.46480  0.88050  Biso   1.000  H
  H24      1.0000 0.40470  0.03520  0.61950  Biso   1.000  H
  H25      1.0000 0.50860  0.33040  0.01780  Biso   1.000  H
  H26      1.0000 0.99140  0.83040  0.51780  Biso   1.000  H
  H27      1.0000 0.00860  0.66960  0.01780  Biso   1.000  H
  H28      1.0000 0.50860  0.83040  0.48220  Biso   1.000  H
  H29      1.0000 0.49140  0.66960  0.98220  Biso   1.000  H
  H30      1.0000 0.00860  0.16960  0.48220  Biso   1.000  H
  H31      1.0000 0.99140  0.33040  0.98220  Biso   1.000  H
  H32      1.0000 0.49140  0.16960  0.51780  Biso   1.000  H
  H33      1.0000 0.26640  0.42800  0.33390  Biso   1.000  H
  H34      1.0000 0.23360  0.92800  0.83390  Biso   1.000  H
  H35      1.0000 0.76640  0.57200  0.33390  Biso   1.000  H
  H36      1.0000 0.26640  0.92800  0.16610  Biso   1.000  H
  H37      1.0000 0.73360  0.57200  0.66610  Biso   1.000  H
  H38      1.0000 0.76640  0.07200  0.16610  Biso   1.000  H
  H39      1.0000 0.23360  0.42800  0.66610  Biso   1.000  H
  H40      1.0000 0.73360  0.07200  0.83390  Biso   1.000  H
