data_image0
_cell_length_a       13.519
_cell_length_b       12.258
_cell_length_c       17.975
_cell_angle_alpha    90
_cell_angle_beta     90
_cell_angle_gamma    90

_symmetry_space_group_name_H-M    "P 1"
_symmetry_int_tables_number       1

loop_
  _symmetry_equiv_pos_as_xyz
  'x, y, z'

loop_
  _atom_site_label
  _atom_site_occupancy
  _atom_site_fract_x
  _atom_site_fract_y
  _atom_site_fract_z
  _atom_site_thermal_displace_type
  _atom_site_B_iso_or_equiv
  _atom_site_type_symbol
  Cu1      1.0000 0.00000  0.11195  0.75000  Biso   1.000  Cu
  Cu2      1.0000 0.00000  0.88805  0.25000  Biso   1.000  Cu
  Cu3      1.0000 0.50000  0.61195  0.75000  Biso   1.000  Cu
  Cu4      1.0000 0.50000  0.38805  0.25000  Biso   1.000  Cu
  O1       1.0000 0.00000  0.12620  0.61100  Biso   1.000  O
  O2       1.0000 0.00000  0.12620  0.88900  Biso   1.000  O
  O3       1.0000 0.00000  0.87380  0.11100  Biso   1.000  O
  O4       1.0000 0.50000  0.62620  0.61100  Biso   1.000  O
  O5       1.0000 0.50000  0.62620  0.88900  Biso   1.000  O
  O6       1.0000 0.50000  0.37380  0.11100  Biso   1.000  O
  O7       1.0000 0.00000  0.87380  0.38900  Biso   1.000  O
  O8       1.0000 0.50000  0.37380  0.38900  Biso   1.000  O
  O9       1.0000 0.10890  0.21710  0.58270  Biso   1.000  O
  O10      1.0000 0.10890  0.21710  0.91730  Biso   1.000  O
  O11      1.0000 0.10890  0.78290  0.08270  Biso   1.000  O
  O12      1.0000 0.89110  0.21710  0.58270  Biso   1.000  O
  O13      1.0000 0.60890  0.71710  0.58270  Biso   1.000  O
  O14      1.0000 0.60890  0.71710  0.91730  Biso   1.000  O
  O15      1.0000 0.60890  0.28290  0.08270  Biso   1.000  O
  O16      1.0000 0.39110  0.71710  0.58270  Biso   1.000  O
  O17      1.0000 0.89110  0.78290  0.41730  Biso   1.000  O
  O18      1.0000 0.89110  0.78290  0.08270  Biso   1.000  O
  O19      1.0000 0.89110  0.21710  0.91730  Biso   1.000  O
  O20      1.0000 0.10890  0.78290  0.41730  Biso   1.000  O
  O21      1.0000 0.39110  0.28290  0.41730  Biso   1.000  O
  O22      1.0000 0.39110  0.28290  0.08270  Biso   1.000  O
  O23      1.0000 0.39110  0.71710  0.91730  Biso   1.000  O
  O24      1.0000 0.60890  0.28290  0.41730  Biso   1.000  O
  O25      1.0000 0.50000  0.11000  0.75000  Biso   1.000  O
  O26      1.0000 0.50000  0.89000  0.25000  Biso   1.000  O
  O27      1.0000 0.00000  0.61000  0.75000  Biso   1.000  O
  O28      1.0000 0.00000  0.39000  0.25000  Biso   1.000  O
  O29      1.0000 0.26500  0.12300  0.52280  Biso   1.000  O
  O30      1.0000 0.26500  0.12300  0.97720  Biso   1.000  O
  O31      1.0000 0.26500  0.87700  0.02280  Biso   1.000  O
  O32      1.0000 0.73500  0.12300  0.52280  Biso   1.000  O
  O33      1.0000 0.76500  0.62300  0.52280  Biso   1.000  O
  O34      1.0000 0.76500  0.62300  0.97720  Biso   1.000  O
  O35      1.0000 0.76500  0.37700  0.02280  Biso   1.000  O
  O36      1.0000 0.23500  0.62300  0.52280  Biso   1.000  O
  O37      1.0000 0.73500  0.87700  0.47720  Biso   1.000  O
  O38      1.0000 0.73500  0.87700  0.02280  Biso   1.000  O
  O39      1.0000 0.73500  0.12300  0.97720  Biso   1.000  O
  O40      1.0000 0.26500  0.87700  0.47720  Biso   1.000  O
  O41      1.0000 0.23500  0.37700  0.47720  Biso   1.000  O
  O42      1.0000 0.23500  0.37700  0.02280  Biso   1.000  O
  O43      1.0000 0.23500  0.62300  0.97720  Biso   1.000  O
  O44      1.0000 0.76500  0.37700  0.47720  Biso   1.000  O
  N1       1.0000 0.10080  0.23490  0.75000  Biso   1.000  N
  N2       1.0000 0.10080  0.76510  0.25000  Biso   1.000  N
  N3       1.0000 0.89920  0.23490  0.75000  Biso   1.000  N
  N4       1.0000 0.60080  0.73490  0.75000  Biso   1.000  N
  N5       1.0000 0.60080  0.26510  0.25000  Biso   1.000  N
  N6       1.0000 0.39920  0.73490  0.75000  Biso   1.000  N
  N7       1.0000 0.89920  0.76510  0.25000  Biso   1.000  N
  N8       1.0000 0.39920  0.26510  0.25000  Biso   1.000  N
  N9       1.0000 0.89730  0.99360  0.75000  Biso   1.000  N
  N10      1.0000 0.89730  0.00640  0.25000  Biso   1.000  N
  N11      1.0000 0.10270  0.99360  0.75000  Biso   1.000  N
  N12      1.0000 0.39730  0.49360  0.75000  Biso   1.000  N
  N13      1.0000 0.39730  0.50640  0.25000  Biso   1.000  N
  N14      1.0000 0.60270  0.49360  0.75000  Biso   1.000  N
  N15      1.0000 0.10270  0.00640  0.25000  Biso   1.000  N
  N16      1.0000 0.60270  0.50640  0.25000  Biso   1.000  N
  C1       1.0000 0.05040  0.33600  0.75000  Biso   1.000  C
  C2       1.0000 0.05040  0.66400  0.25000  Biso   1.000  C
  C3       1.0000 0.94960  0.33600  0.75000  Biso   1.000  C
  C4       1.0000 0.55040  0.83600  0.75000  Biso   1.000  C
  C5       1.0000 0.55040  0.16400  0.25000  Biso   1.000  C
  C6       1.0000 0.44960  0.83600  0.75000  Biso   1.000  C
  C7       1.0000 0.94960  0.66400  0.25000  Biso   1.000  C
  C8       1.0000 0.44960  0.16400  0.25000  Biso   1.000  C
  C9       1.0000 0.19890  0.21990  0.75000  Biso   1.000  C
  C10      1.0000 0.19890  0.78010  0.25000  Biso   1.000  C
  C11      1.0000 0.80110  0.21990  0.75000  Biso   1.000  C
  C12      1.0000 0.69890  0.71990  0.75000  Biso   1.000  C
  C13      1.0000 0.69890  0.28010  0.25000  Biso   1.000  C
  C14      1.0000 0.30110  0.71990  0.75000  Biso   1.000  C
  C15      1.0000 0.80110  0.78010  0.25000  Biso   1.000  C
  C16      1.0000 0.30110  0.28010  0.25000  Biso   1.000  C
  C17      1.0000 0.26690  0.31380  0.75000  Biso   1.000  C
  C18      1.0000 0.26690  0.68620  0.25000  Biso   1.000  C
  C19      1.0000 0.73310  0.31380  0.75000  Biso   1.000  C
  C20      1.0000 0.76690  0.81380  0.75000  Biso   1.000  C
  C21      1.0000 0.76690  0.18620  0.25000  Biso   1.000  C
  C22      1.0000 0.23310  0.81380  0.75000  Biso   1.000  C
  C23      1.0000 0.73310  0.68620  0.25000  Biso   1.000  C
  C24      1.0000 0.23310  0.18620  0.25000  Biso   1.000  C
  C25      1.0000 0.30070  0.36050  0.68830  Biso   1.000  C
  C26      1.0000 0.30070  0.36050  0.81170  Biso   1.000  C
  C27      1.0000 0.30070  0.63950  0.18830  Biso   1.000  C
  C28      1.0000 0.69930  0.36050  0.68830  Biso   1.000  C
  C29      1.0000 0.80070  0.86050  0.68830  Biso   1.000  C
  C30      1.0000 0.80070  0.86050  0.81170  Biso   1.000  C
  C31      1.0000 0.80070  0.13950  0.18830  Biso   1.000  C
  C32      1.0000 0.19930  0.86050  0.68830  Biso   1.000  C
  C33      1.0000 0.69930  0.63950  0.31170  Biso   1.000  C
  C34      1.0000 0.69930  0.63950  0.18830  Biso   1.000  C
  C35      1.0000 0.69930  0.36050  0.81170  Biso   1.000  C
  C36      1.0000 0.30070  0.63950  0.31170  Biso   1.000  C
  C37      1.0000 0.19930  0.13950  0.31170  Biso   1.000  C
  C38      1.0000 0.19930  0.13950  0.18830  Biso   1.000  C
  C39      1.0000 0.19930  0.86050  0.81170  Biso   1.000  C
  C40      1.0000 0.80070  0.13950  0.31170  Biso   1.000  C
  C41      1.0000 0.86440  0.94870  0.68800  Biso   1.000  C
  C42      1.0000 0.86440  0.94870  0.81200  Biso   1.000  C
  C43      1.0000 0.86440  0.05130  0.18800  Biso   1.000  C
  C44      1.0000 0.13560  0.94870  0.68800  Biso   1.000  C
  C45      1.0000 0.36440  0.44870  0.68800  Biso   1.000  C
  C46      1.0000 0.36440  0.44870  0.81200  Biso   1.000  C
  C47      1.0000 0.36440  0.55130  0.18800  Biso   1.000  C
  C48      1.0000 0.63560  0.44870  0.68800  Biso   1.000  C
  C49      1.0000 0.13560  0.05130  0.31200  Biso   1.000  C
  C50      1.0000 0.13560  0.05130  0.18800  Biso   1.000  C
  C51      1.0000 0.13560  0.94870  0.81200  Biso   1.000  C
  C52      1.0000 0.86440  0.05130  0.31200  Biso   1.000  C
  C53      1.0000 0.63560  0.55130  0.31200  Biso   1.000  C
  C54      1.0000 0.63560  0.55130  0.18800  Biso   1.000  C
  C55      1.0000 0.63560  0.44870  0.81200  Biso   1.000  C
  C56      1.0000 0.36440  0.55130  0.31200  Biso   1.000  C
  C57      1.0000 0.03440  0.17490  0.56110  Biso   1.000  C
  C58      1.0000 0.03440  0.17490  0.93890  Biso   1.000  C
  C59      1.0000 0.03440  0.82510  0.06110  Biso   1.000  C
  C60      1.0000 0.96560  0.17490  0.56110  Biso   1.000  C
  C61      1.0000 0.53440  0.67490  0.56110  Biso   1.000  C
  C62      1.0000 0.53440  0.67490  0.93890  Biso   1.000  C
  C63      1.0000 0.53440  0.32510  0.06110  Biso   1.000  C
  C64      1.0000 0.46560  0.67490  0.56110  Biso   1.000  C
  C65      1.0000 0.96560  0.82510  0.43890  Biso   1.000  C
  C66      1.0000 0.96560  0.82510  0.06110  Biso   1.000  C
  C67      1.0000 0.96560  0.17490  0.93890  Biso   1.000  C
  C68      1.0000 0.03440  0.82510  0.43890  Biso   1.000  C
  C69      1.0000 0.46560  0.32510  0.43890  Biso   1.000  C
  C70      1.0000 0.46560  0.32510  0.06110  Biso   1.000  C
  C71      1.0000 0.46560  0.67490  0.93890  Biso   1.000  C
  C72      1.0000 0.53440  0.32510  0.43890  Biso   1.000  C
  C73      1.0000 0.00000  0.16400  0.48200  Biso   1.000  C
  C74      1.0000 0.00000  0.16400  0.01800  Biso   1.000  C
  C75      1.0000 0.00000  0.83600  0.98200  Biso   1.000  C
  C76      1.0000 0.50000  0.66400  0.48200  Biso   1.000  C
  C77      1.0000 0.50000  0.66400  0.01800  Biso   1.000  C
  C78      1.0000 0.50000  0.33600  0.98200  Biso   1.000  C
  C79      1.0000 0.00000  0.83600  0.51800  Biso   1.000  C
  C80      1.0000 0.50000  0.33600  0.51800  Biso   1.000  C
  C81      1.0000 0.50000  0.09500  0.67150  Biso   1.000  C
  C82      1.0000 0.50000  0.09500  0.82850  Biso   1.000  C
  C83      1.0000 0.50000  0.90500  0.17150  Biso   1.000  C
  C84      1.0000 0.00000  0.59500  0.67150  Biso   1.000  C
  C85      1.0000 0.00000  0.59500  0.82850  Biso   1.000  C
  C86      1.0000 0.00000  0.40500  0.17150  Biso   1.000  C
  C87      1.0000 0.50000  0.90500  0.32850  Biso   1.000  C
  C88      1.0000 0.00000  0.40500  0.32850  Biso   1.000  C
  C89      1.0000 0.41390  0.06400  0.62100  Biso   1.000  C
  C90      1.0000 0.41390  0.06400  0.87900  Biso   1.000  C
  C91      1.0000 0.41390  0.93600  0.12100  Biso   1.000  C
  C92      1.0000 0.58610  0.06400  0.62100  Biso   1.000  C
  C93      1.0000 0.91390  0.56400  0.62100  Biso   1.000  C
  C94      1.0000 0.91390  0.56400  0.87900  Biso   1.000  C
  C95      1.0000 0.91390  0.43600  0.12100  Biso   1.000  C
  C96      1.0000 0.08610  0.56400  0.62100  Biso   1.000  C
  C97      1.0000 0.58610  0.93600  0.37900  Biso   1.000  C
  C98      1.0000 0.58610  0.93600  0.12100  Biso   1.000  C
  C99      1.0000 0.58610  0.06400  0.87900  Biso   1.000  C
  C100     1.0000 0.41390  0.93600  0.37900  Biso   1.000  C
  C101     1.0000 0.08610  0.43600  0.37900  Biso   1.000  C
  C102     1.0000 0.08610  0.43600  0.12100  Biso   1.000  C
  C103     1.0000 0.08610  0.56400  0.87900  Biso   1.000  C
  C104     1.0000 0.91390  0.43600  0.37900  Biso   1.000  C
  H1       1.0000 0.07290  0.37690  0.79320  Biso   1.000  H
  H2       1.0000 0.07290  0.37690  0.70680  Biso   1.000  H
  H3       1.0000 0.07290  0.62310  0.29320  Biso   1.000  H
  H4       1.0000 0.92710  0.37690  0.79320  Biso   1.000  H
  H5       1.0000 0.57290  0.87690  0.79320  Biso   1.000  H
  H6       1.0000 0.57290  0.87690  0.70680  Biso   1.000  H
  H7       1.0000 0.57290  0.12310  0.29320  Biso   1.000  H
  H8       1.0000 0.42710  0.87690  0.79320  Biso   1.000  H
  H9       1.0000 0.92710  0.62310  0.20680  Biso   1.000  H
  H10      1.0000 0.92710  0.62310  0.29320  Biso   1.000  H
  H11      1.0000 0.92710  0.37690  0.70680  Biso   1.000  H
  H12      1.0000 0.07290  0.62310  0.20680  Biso   1.000  H
  H13      1.0000 0.42710  0.12310  0.20680  Biso   1.000  H
  H14      1.0000 0.42710  0.12310  0.29320  Biso   1.000  H
  H15      1.0000 0.42710  0.87690  0.70680  Biso   1.000  H
  H16      1.0000 0.57290  0.12310  0.20680  Biso   1.000  H
  H17      1.0000 0.21590  0.17480  0.79320  Biso   1.000  H
  H18      1.0000 0.21590  0.17480  0.70680  Biso   1.000  H
  H19      1.0000 0.21590  0.82520  0.29320  Biso   1.000  H
  H20      1.0000 0.78410  0.17480  0.79320  Biso   1.000  H
  H21      1.0000 0.71590  0.67480  0.79320  Biso   1.000  H
  H22      1.0000 0.71590  0.67480  0.70680  Biso   1.000  H
  H23      1.0000 0.71590  0.32520  0.29320  Biso   1.000  H
  H24      1.0000 0.28410  0.67480  0.79320  Biso   1.000  H
  H25      1.0000 0.78410  0.82520  0.20680  Biso   1.000  H
  H26      1.0000 0.78410  0.82520  0.29320  Biso   1.000  H
  H27      1.0000 0.78410  0.17480  0.70680  Biso   1.000  H
  H28      1.0000 0.21590  0.82520  0.20680  Biso   1.000  H
  H29      1.0000 0.28410  0.32520  0.20680  Biso   1.000  H
  H30      1.0000 0.28410  0.32520  0.29320  Biso   1.000  H
  H31      1.0000 0.28410  0.67480  0.70680  Biso   1.000  H
  H32      1.0000 0.71590  0.32520  0.20680  Biso   1.000  H
  H33      1.0000 0.27660  0.33040  0.64010  Biso   1.000  H
  H34      1.0000 0.27660  0.33040  0.85990  Biso   1.000  H
  H35      1.0000 0.27660  0.66960  0.14010  Biso   1.000  H
  H36      1.0000 0.72340  0.33040  0.64010  Biso   1.000  H
  H37      1.0000 0.77660  0.83040  0.64010  Biso   1.000  H
  H38      1.0000 0.77660  0.83040  0.85990  Biso   1.000  H
  H39      1.0000 0.77660  0.16960  0.14010  Biso   1.000  H
  H40      1.0000 0.22340  0.83040  0.64010  Biso   1.000  H
  H41      1.0000 0.72340  0.66960  0.35990  Biso   1.000  H
  H42      1.0000 0.72340  0.66960  0.14010  Biso   1.000  H
  H43      1.0000 0.72340  0.33040  0.85990  Biso   1.000  H
  H44      1.0000 0.27660  0.66960  0.35990  Biso   1.000  H
  H45      1.0000 0.22340  0.16960  0.35990  Biso   1.000  H
  H46      1.0000 0.22340  0.16960  0.14010  Biso   1.000  H
  H47      1.0000 0.22340  0.83040  0.85990  Biso   1.000  H
  H48      1.0000 0.77660  0.16960  0.35990  Biso   1.000  H
  H49      1.0000 0.88650  0.97880  0.63850  Biso   1.000  H
  H50      1.0000 0.88650  0.97880  0.86150  Biso   1.000  H
  H51      1.0000 0.88650  0.02120  0.13850  Biso   1.000  H
  H52      1.0000 0.11350  0.97880  0.63850  Biso   1.000  H
  H53      1.0000 0.38650  0.47880  0.63850  Biso   1.000  H
  H54      1.0000 0.38650  0.47880  0.86150  Biso   1.000  H
  H55      1.0000 0.38650  0.52120  0.13850  Biso   1.000  H
  H56      1.0000 0.61350  0.47880  0.63850  Biso   1.000  H
  H57      1.0000 0.11350  0.02120  0.36150  Biso   1.000  H
  H58      1.0000 0.11350  0.02120  0.13850  Biso   1.000  H
  H59      1.0000 0.11350  0.97880  0.86150  Biso   1.000  H
  H60      1.0000 0.88650  0.02120  0.36150  Biso   1.000  H
  H61      1.0000 0.61350  0.52120  0.36150  Biso   1.000  H
  H62      1.0000 0.61350  0.52120  0.13850  Biso   1.000  H
  H63      1.0000 0.61350  0.47880  0.86150  Biso   1.000  H
  H64      1.0000 0.38650  0.52120  0.36150  Biso   1.000  H
  H65      1.0000 0.93180  0.17960  0.47580  Biso   1.000  H
  H66      1.0000 0.93180  0.17960  0.02420  Biso   1.000  H
  H67      1.0000 0.93180  0.82040  0.97580  Biso   1.000  H
  H68      1.0000 0.06820  0.17960  0.47580  Biso   1.000  H
  H69      1.0000 0.43180  0.67960  0.47580  Biso   1.000  H
  H70      1.0000 0.43180  0.67960  0.02420  Biso   1.000  H
  H71      1.0000 0.43180  0.32040  0.97580  Biso   1.000  H
  H72      1.0000 0.56820  0.67960  0.47580  Biso   1.000  H
  H73      1.0000 0.06820  0.82040  0.52420  Biso   1.000  H
  H74      1.0000 0.06820  0.82040  0.97580  Biso   1.000  H
  H75      1.0000 0.06820  0.17960  0.02420  Biso   1.000  H
  H76      1.0000 0.93180  0.82040  0.52420  Biso   1.000  H
  H77      1.0000 0.56820  0.32040  0.52420  Biso   1.000  H
  H78      1.0000 0.56820  0.32040  0.97580  Biso   1.000  H
  H79      1.0000 0.56820  0.67960  0.02420  Biso   1.000  H
  H80      1.0000 0.43180  0.32040  0.52420  Biso   1.000  H
  H81      1.0000 0.03740  0.20890  0.44850  Biso   1.000  H
  H82      1.0000 0.03740  0.20890  0.05150  Biso   1.000  H
  H83      1.0000 0.03740  0.79110  0.94850  Biso   1.000  H
  H84      1.0000 0.96260  0.20890  0.44850  Biso   1.000  H
  H85      1.0000 0.53740  0.70890  0.44850  Biso   1.000  H
  H86      1.0000 0.53740  0.70890  0.05150  Biso   1.000  H
  H87      1.0000 0.53740  0.29110  0.94850  Biso   1.000  H
  H88      1.0000 0.46260  0.70890  0.44850  Biso   1.000  H
  H89      1.0000 0.96260  0.79110  0.55150  Biso   1.000  H
  H90      1.0000 0.96260  0.79110  0.94850  Biso   1.000  H
  H91      1.0000 0.96260  0.20890  0.05150  Biso   1.000  H
  H92      1.0000 0.03740  0.79110  0.55150  Biso   1.000  H
  H93      1.0000 0.46260  0.29110  0.55150  Biso   1.000  H
  H94      1.0000 0.46260  0.29110  0.94850  Biso   1.000  H
  H95      1.0000 0.46260  0.70890  0.05150  Biso   1.000  H
  H96      1.0000 0.53740  0.29110  0.55150  Biso   1.000  H
  H97      1.0000 0.00980  0.08820  0.46420  Biso   1.000  H
  H98      1.0000 0.00980  0.08820  0.03580  Biso   1.000  H
  H99      1.0000 0.00980  0.91180  0.96420  Biso   1.000  H
  H100     1.0000 0.99020  0.08820  0.46420  Biso   1.000  H
  H101     1.0000 0.50980  0.58820  0.46420  Biso   1.000  H
  H102     1.0000 0.50980  0.58820  0.03580  Biso   1.000  H
  H103     1.0000 0.50980  0.41180  0.96420  Biso   1.000  H
  H104     1.0000 0.49020  0.58820  0.46420  Biso   1.000  H
  H105     1.0000 0.99020  0.91180  0.53580  Biso   1.000  H
  H106     1.0000 0.99020  0.91180  0.96420  Biso   1.000  H
  H107     1.0000 0.99020  0.08820  0.03580  Biso   1.000  H
  H108     1.0000 0.00980  0.91180  0.53580  Biso   1.000  H
  H109     1.0000 0.49020  0.41180  0.53580  Biso   1.000  H
  H110     1.0000 0.49020  0.41180  0.96420  Biso   1.000  H
  H111     1.0000 0.49020  0.58820  0.03580  Biso   1.000  H
  H112     1.0000 0.50980  0.41180  0.53580  Biso   1.000  H
  H113     1.0000 0.52240  0.16800  0.64930  Biso   1.000  H
  H114     1.0000 0.52240  0.16800  0.85070  Biso   1.000  H
  H115     1.0000 0.52240  0.83200  0.14930  Biso   1.000  H
  H116     1.0000 0.47760  0.16800  0.64930  Biso   1.000  H
  H117     1.0000 0.02240  0.66800  0.64930  Biso   1.000  H
  H118     1.0000 0.02240  0.66800  0.85070  Biso   1.000  H
  H119     1.0000 0.02240  0.33200  0.14930  Biso   1.000  H
  H120     1.0000 0.97760  0.66800  0.64930  Biso   1.000  H
  H121     1.0000 0.47760  0.83200  0.35070  Biso   1.000  H
  H122     1.0000 0.47760  0.83200  0.14930  Biso   1.000  H
  H123     1.0000 0.47760  0.16800  0.85070  Biso   1.000  H
  H124     1.0000 0.52240  0.83200  0.35070  Biso   1.000  H
  H125     1.0000 0.97760  0.33200  0.35070  Biso   1.000  H
  H126     1.0000 0.97760  0.33200  0.14930  Biso   1.000  H
  H127     1.0000 0.97760  0.66800  0.85070  Biso   1.000  H
  H128     1.0000 0.02240  0.33200  0.35070  Biso   1.000  H
  H129     1.0000 0.54650  0.04560  0.66160  Biso   1.000  H
  H130     1.0000 0.54650  0.04560  0.83840  Biso   1.000  H
  H131     1.0000 0.54650  0.95440  0.16160  Biso   1.000  H
  H132     1.0000 0.45350  0.04560  0.66160  Biso   1.000  H
  H133     1.0000 0.04650  0.54560  0.66160  Biso   1.000  H
  H134     1.0000 0.04650  0.54560  0.83840  Biso   1.000  H
  H135     1.0000 0.04650  0.45440  0.16160  Biso   1.000  H
  H136     1.0000 0.95350  0.54560  0.66160  Biso   1.000  H
  H137     1.0000 0.45350  0.95440  0.33840  Biso   1.000  H
  H138     1.0000 0.45350  0.95440  0.16160  Biso   1.000  H
  H139     1.0000 0.45350  0.04560  0.83840  Biso   1.000  H
  H140     1.0000 0.54650  0.95440  0.33840  Biso   1.000  H
  H141     1.0000 0.95350  0.45440  0.33840  Biso   1.000  H
  H142     1.0000 0.95350  0.45440  0.16160  Biso   1.000  H
  H143     1.0000 0.95350  0.54560  0.83840  Biso   1.000  H
  H144     1.0000 0.04650  0.45440  0.33840  Biso   1.000  H
  H145     1.0000 0.35590  0.12500  0.63930  Biso   1.000  H
  H146     1.0000 0.35590  0.12500  0.86070  Biso   1.000  H
  H147     1.0000 0.35590  0.87500  0.13930  Biso   1.000  H
  H148     1.0000 0.64410  0.12500  0.63930  Biso   1.000  H
  H149     1.0000 0.85590  0.62500  0.63930  Biso   1.000  H
  H150     1.0000 0.85590  0.62500  0.86070  Biso   1.000  H
  H151     1.0000 0.85590  0.37500  0.13930  Biso   1.000  H
  H152     1.0000 0.14410  0.62500  0.63930  Biso   1.000  H
  H153     1.0000 0.64410  0.87500  0.36070  Biso   1.000  H
  H154     1.0000 0.64410  0.87500  0.13930  Biso   1.000  H
  H155     1.0000 0.64410  0.12500  0.86070  Biso   1.000  H
  H156     1.0000 0.35590  0.87500  0.36070  Biso   1.000  H
  H157     1.0000 0.14410  0.37500  0.36070  Biso   1.000  H
  H158     1.0000 0.14410  0.37500  0.13930  Biso   1.000  H
  H159     1.0000 0.14410  0.62500  0.86070  Biso   1.000  H
  H160     1.0000 0.85590  0.37500  0.36070  Biso   1.000  H
  H161     1.0000 0.41700  0.06390  0.57930  Biso   1.000  H
  H162     1.0000 0.41700  0.06390  0.92070  Biso   1.000  H
  H163     1.0000 0.41700  0.93610  0.07930  Biso   1.000  H
  H164     1.0000 0.58300  0.06390  0.57930  Biso   1.000  H
  H165     1.0000 0.91700  0.56390  0.57930  Biso   1.000  H
  H166     1.0000 0.91700  0.56390  0.92070  Biso   1.000  H
  H167     1.0000 0.91700  0.43610  0.07930  Biso   1.000  H
  H168     1.0000 0.08300  0.56390  0.57930  Biso   1.000  H
  H169     1.0000 0.58300  0.93610  0.42070  Biso   1.000  H
  H170     1.0000 0.58300  0.93610  0.07930  Biso   1.000  H
  H171     1.0000 0.58300  0.06390  0.92070  Biso   1.000  H
  H172     1.0000 0.41700  0.93610  0.42070  Biso   1.000  H
  H173     1.0000 0.08300  0.43610  0.42070  Biso   1.000  H
  H174     1.0000 0.08300  0.43610  0.07930  Biso   1.000  H
  H175     1.0000 0.08300  0.56390  0.92070  Biso   1.000  H
  H176     1.0000 0.91700  0.43610  0.42070  Biso   1.000  H
  H177     1.0000 0.38130  0.00260  0.64990  Biso   1.000  H
  H178     1.0000 0.38130  0.00260  0.85010  Biso   1.000  H
  H179     1.0000 0.38130  0.99740  0.14990  Biso   1.000  H
  H180     1.0000 0.61870  0.00260  0.64990  Biso   1.000  H
  H181     1.0000 0.88130  0.50260  0.64990  Biso   1.000  H
  H182     1.0000 0.88130  0.50260  0.85010  Biso   1.000  H
  H183     1.0000 0.88130  0.49740  0.14990  Biso   1.000  H
  H184     1.0000 0.11870  0.50260  0.64990  Biso   1.000  H
  H185     1.0000 0.61870  0.99740  0.35010  Biso   1.000  H
  H186     1.0000 0.61870  0.99740  0.14990  Biso   1.000  H
  H187     1.0000 0.61870  0.00260  0.85010  Biso   1.000  H
  H188     1.0000 0.38130  0.99740  0.35010  Biso   1.000  H
  H189     1.0000 0.11870  0.49740  0.35010  Biso   1.000  H
  H190     1.0000 0.11870  0.49740  0.14990  Biso   1.000  H
  H191     1.0000 0.11870  0.50260  0.85010  Biso   1.000  H
  H192     1.0000 0.88130  0.49740  0.35010  Biso   1.000  H
