data_image0
_cell_length_a       24.928
_cell_length_b       9.0544
_cell_length_c       22.4116
_cell_angle_alpha    90
_cell_angle_beta     119.752
_cell_angle_gamma    90

_symmetry_space_group_name_H-M    "P 1"
_symmetry_int_tables_number       1

loop_
  _symmetry_equiv_pos_as_xyz
  'x, y, z'

loop_
  _atom_site_label
  _atom_site_occupancy
  _atom_site_fract_x
  _atom_site_fract_y
  _atom_site_fract_z
  _atom_site_thermal_displace_type
  _atom_site_B_iso_or_equiv
  _atom_site_type_symbol
  C1       1.0000 0.15670  0.57580  0.10420  Biso   1.000  C
  C2       1.0000 0.84330  0.57580  0.39580  Biso   1.000  C
  C3       1.0000 0.65670  0.07580  0.10420  Biso   1.000  C
  C4       1.0000 0.34330  0.07580  0.39580  Biso   1.000  C
  C5       1.0000 0.84330  0.42420  0.89580  Biso   1.000  C
  C6       1.0000 0.15670  0.42420  0.60420  Biso   1.000  C
  C7       1.0000 0.34330  0.92420  0.89580  Biso   1.000  C
  C8       1.0000 0.65670  0.92420  0.60420  Biso   1.000  C
  C9       1.0000 0.14580  0.67700  0.05140  Biso   1.000  C
  C10      1.0000 0.85420  0.67700  0.44860  Biso   1.000  C
  C11      1.0000 0.64580  0.17700  0.05140  Biso   1.000  C
  C12      1.0000 0.35420  0.17700  0.44860  Biso   1.000  C
  C13      1.0000 0.85420  0.32300  0.94860  Biso   1.000  C
  C14      1.0000 0.14580  0.32300  0.55140  Biso   1.000  C
  C15      1.0000 0.35420  0.82300  0.94860  Biso   1.000  C
  C16      1.0000 0.64580  0.82300  0.55140  Biso   1.000  C
  H1       1.0000 0.11750  0.75280  0.04170  Biso   1.000  H
  H2       1.0000 0.88250  0.75280  0.45830  Biso   1.000  H
  H3       1.0000 0.61750  0.25280  0.04170  Biso   1.000  H
  H4       1.0000 0.38250  0.25280  0.45830  Biso   1.000  H
  H5       1.0000 0.88250  0.24720  0.95830  Biso   1.000  H
  H6       1.0000 0.11750  0.24720  0.54170  Biso   1.000  H
  H7       1.0000 0.38250  0.74720  0.95830  Biso   1.000  H
  H8       1.0000 0.61750  0.74720  0.54170  Biso   1.000  H
  C17      1.0000 0.17530  0.66760  0.01390  Biso   1.000  C
  C18      1.0000 0.82470  0.66760  0.48610  Biso   1.000  C
  C19      1.0000 0.67530  0.16760  0.01390  Biso   1.000  C
  C20      1.0000 0.32470  0.16760  0.48610  Biso   1.000  C
  C21      1.0000 0.82470  0.33240  0.98610  Biso   1.000  C
  C22      1.0000 0.17530  0.33240  0.51390  Biso   1.000  C
  C23      1.0000 0.32470  0.83240  0.98610  Biso   1.000  C
  C24      1.0000 0.67530  0.83240  0.51390  Biso   1.000  C
  H9       1.0000 0.16630  0.73570  0.97910  Biso   1.000  H
  H10      1.0000 0.83370  0.73570  0.52090  Biso   1.000  H
  H11      1.0000 0.66630  0.23570  0.97910  Biso   1.000  H
  H12      1.0000 0.33370  0.23570  0.52090  Biso   1.000  H
  H13      1.0000 0.83370  0.26430  0.02090  Biso   1.000  H
  H14      1.0000 0.16630  0.26430  0.47910  Biso   1.000  H
  H15      1.0000 0.33370  0.76430  0.02090  Biso   1.000  H
  H16      1.0000 0.66630  0.76430  0.47910  Biso   1.000  H
  C25      1.0000 0.21870  0.55720  0.02730  Biso   1.000  C
  C26      1.0000 0.78130  0.55720  0.47270  Biso   1.000  C
  C27      1.0000 0.71870  0.05720  0.02730  Biso   1.000  C
  C28      1.0000 0.28130  0.05720  0.47270  Biso   1.000  C
  C29      1.0000 0.78130  0.44280  0.97270  Biso   1.000  C
  C30      1.0000 0.21870  0.44280  0.52730  Biso   1.000  C
  C31      1.0000 0.28130  0.94280  0.97270  Biso   1.000  C
  C32      1.0000 0.71870  0.94280  0.52730  Biso   1.000  C
  H17      1.0000 0.23850  0.54980  0.00140  Biso   1.000  H
  H18      1.0000 0.76150  0.54980  0.49860  Biso   1.000  H
  H19      1.0000 0.73850  0.04980  0.00140  Biso   1.000  H
  H20      1.0000 0.26150  0.04980  0.49860  Biso   1.000  H
  H21      1.0000 0.76150  0.45020  0.99860  Biso   1.000  H
  H22      1.0000 0.23850  0.45020  0.50140  Biso   1.000  H
  H23      1.0000 0.26150  0.95020  0.99860  Biso   1.000  H
  H24      1.0000 0.73850  0.95020  0.50140  Biso   1.000  H
  C33      1.0000 0.23170  0.45960  0.07960  Biso   1.000  C
  C34      1.0000 0.76830  0.45960  0.42040  Biso   1.000  C
  C35      1.0000 0.73170  0.95960  0.07960  Biso   1.000  C
  C36      1.0000 0.26830  0.95960  0.42040  Biso   1.000  C
  C37      1.0000 0.76830  0.54040  0.92040  Biso   1.000  C
  C38      1.0000 0.23170  0.54040  0.57960  Biso   1.000  C
  C39      1.0000 0.26830  0.04040  0.92040  Biso   1.000  C
  C40      1.0000 0.73170  0.04040  0.57960  Biso   1.000  C
  H25      1.0000 0.26080  0.38600  0.08890  Biso   1.000  H
  H26      1.0000 0.73920  0.38600  0.41110  Biso   1.000  H
  H27      1.0000 0.76080  0.88600  0.08890  Biso   1.000  H
  H28      1.0000 0.23920  0.88600  0.41110  Biso   1.000  H
  H29      1.0000 0.73920  0.61400  0.91110  Biso   1.000  H
  H30      1.0000 0.26080  0.61400  0.58890  Biso   1.000  H
  H31      1.0000 0.23920  0.11400  0.91110  Biso   1.000  H
  H32      1.0000 0.76080  0.11400  0.58890  Biso   1.000  H
  C41      1.0000 0.20270  0.46620  0.12020  Biso   1.000  C
  C42      1.0000 0.79730  0.46620  0.37980  Biso   1.000  C
  C43      1.0000 0.70270  0.96620  0.12020  Biso   1.000  C
  C44      1.0000 0.29730  0.96620  0.37980  Biso   1.000  C
  C45      1.0000 0.79730  0.53380  0.87980  Biso   1.000  C
  C46      1.0000 0.20270  0.53380  0.62020  Biso   1.000  C
  C47      1.0000 0.29730  0.03380  0.87980  Biso   1.000  C
  C48      1.0000 0.70270  0.03380  0.62020  Biso   1.000  C
  C49      1.0000 0.22160  0.36040  0.17670  Biso   1.000  C
  C50      1.0000 0.77840  0.36040  0.32330  Biso   1.000  C
  C51      1.0000 0.72160  0.86040  0.17670  Biso   1.000  C
  C52      1.0000 0.27840  0.86040  0.32330  Biso   1.000  C
  C53      1.0000 0.77840  0.63960  0.82330  Biso   1.000  C
  C54      1.0000 0.22160  0.63960  0.67670  Biso   1.000  C
  C55      1.0000 0.27840  0.13960  0.82330  Biso   1.000  C
  C56      1.0000 0.72160  0.13960  0.67670  Biso   1.000  C
  C57      1.0000 0.21030  0.22830  0.26160  Biso   1.000  C
  C58      1.0000 0.78970  0.22830  0.23840  Biso   1.000  C
  C59      1.0000 0.71030  0.72830  0.26160  Biso   1.000  C
  C60      1.0000 0.28970  0.72830  0.23840  Biso   1.000  C
  C61      1.0000 0.78970  0.77170  0.73840  Biso   1.000  C
  C62      1.0000 0.21030  0.77170  0.76160  Biso   1.000  C
  C63      1.0000 0.28970  0.27170  0.73840  Biso   1.000  C
  C64      1.0000 0.71030  0.27170  0.76160  Biso   1.000  C
  H33      1.0000 0.24600  0.26380  0.30320  Biso   1.000  H
  H34      1.0000 0.75400  0.26380  0.19680  Biso   1.000  H
  H35      1.0000 0.74600  0.76380  0.30320  Biso   1.000  H
  H36      1.0000 0.25400  0.76380  0.19680  Biso   1.000  H
  H37      1.0000 0.75400  0.73620  0.69680  Biso   1.000  H
  H38      1.0000 0.24600  0.73620  0.80320  Biso   1.000  H
  H39      1.0000 0.25400  0.23620  0.69680  Biso   1.000  H
  H40      1.0000 0.74600  0.23620  0.80320  Biso   1.000  H
  H41      1.0000 0.22160  0.13810  0.24730  Biso   1.000  H
  H42      1.0000 0.77840  0.13810  0.25270  Biso   1.000  H
  H43      1.0000 0.72160  0.63810  0.24730  Biso   1.000  H
  H44      1.0000 0.27840  0.63810  0.25270  Biso   1.000  H
  H45      1.0000 0.77840  0.86190  0.75270  Biso   1.000  H
  H46      1.0000 0.22160  0.86190  0.74730  Biso   1.000  H
  H47      1.0000 0.27840  0.36190  0.75270  Biso   1.000  H
  H48      1.0000 0.72160  0.36190  0.74730  Biso   1.000  H
  C65      1.0000 0.15730  0.19940  0.27480  Biso   1.000  C
  C66      1.0000 0.84270  0.19940  0.22520  Biso   1.000  C
  C67      1.0000 0.65730  0.69940  0.27480  Biso   1.000  C
  C68      1.0000 0.34270  0.69940  0.22520  Biso   1.000  C
  C69      1.0000 0.84270  0.80060  0.72520  Biso   1.000  C
  C70      1.0000 0.15730  0.80060  0.77480  Biso   1.000  C
  C71      1.0000 0.34270  0.30060  0.72520  Biso   1.000  C
  C72      1.0000 0.65730  0.30060  0.77480  Biso   1.000  C
  H49      1.0000 0.12470  0.14600  0.23630  Biso   1.000  H
  H50      1.0000 0.87530  0.14600  0.26370  Biso   1.000  H
  H51      1.0000 0.62470  0.64600  0.23630  Biso   1.000  H
  H52      1.0000 0.37530  0.64600  0.26370  Biso   1.000  H
  H53      1.0000 0.87530  0.85400  0.76370  Biso   1.000  H
  H54      1.0000 0.12470  0.85400  0.73630  Biso   1.000  H
  H55      1.0000 0.37530  0.35400  0.76370  Biso   1.000  H
  H56      1.0000 0.62470  0.35400  0.73630  Biso   1.000  H
  H57      1.0000 0.17140  0.13940  0.31570  Biso   1.000  H
  H58      1.0000 0.82860  0.13940  0.18430  Biso   1.000  H
  H59      1.0000 0.67140  0.63940  0.31570  Biso   1.000  H
  H60      1.0000 0.32860  0.63940  0.18430  Biso   1.000  H
  H61      1.0000 0.82860  0.86060  0.68430  Biso   1.000  H
  H62      1.0000 0.17140  0.86060  0.81570  Biso   1.000  H
  H63      1.0000 0.32860  0.36060  0.68430  Biso   1.000  H
  H64      1.0000 0.67140  0.36060  0.81570  Biso   1.000  H
  C73      1.0000 0.95000  0.64250  0.02610  Biso   1.000  C
  C74      1.0000 0.05000  0.64250  0.47390  Biso   1.000  C
  C75      1.0000 0.45000  0.14250  0.02610  Biso   1.000  C
  C76      1.0000 0.55000  0.14250  0.47390  Biso   1.000  C
  C77      1.0000 0.05000  0.35750  0.97390  Biso   1.000  C
  C78      1.0000 0.95000  0.35750  0.52610  Biso   1.000  C
  C79      1.0000 0.55000  0.85750  0.97390  Biso   1.000  C
  C80      1.0000 0.45000  0.85750  0.52610  Biso   1.000  C
  H65      1.0000 0.96090  0.53900  0.02810  Biso   1.000  H
  H66      1.0000 0.03910  0.53900  0.47190  Biso   1.000  H
  H67      1.0000 0.46090  0.03900  0.02810  Biso   1.000  H
  H68      1.0000 0.53910  0.03900  0.47190  Biso   1.000  H
  H69      1.0000 0.03910  0.46100  0.97190  Biso   1.000  H
  H70      1.0000 0.96090  0.46100  0.52810  Biso   1.000  H
  H71      1.0000 0.53910  0.96100  0.97190  Biso   1.000  H
  H72      1.0000 0.46090  0.96100  0.52810  Biso   1.000  H
  H73      1.0000 0.91730  0.66460  0.97990  Biso   1.000  H
  H74      1.0000 0.08270  0.66460  0.52010  Biso   1.000  H
  H75      1.0000 0.41730  0.16460  0.97990  Biso   1.000  H
  H76      1.0000 0.58270  0.16460  0.52010  Biso   1.000  H
  H77      1.0000 0.08270  0.33540  0.02010  Biso   1.000  H
  H78      1.0000 0.91730  0.33540  0.47990  Biso   1.000  H
  H79      1.0000 0.58270  0.83540  0.02010  Biso   1.000  H
  H80      1.0000 0.41730  0.83540  0.47990  Biso   1.000  H
  C81      1.0000 0.92890  0.67380  0.07650  Biso   1.000  C
  C82      1.0000 0.07110  0.67380  0.42350  Biso   1.000  C
  C83      1.0000 0.42890  0.17380  0.07650  Biso   1.000  C
  C84      1.0000 0.57110  0.17380  0.42350  Biso   1.000  C
  C85      1.0000 0.07110  0.32620  0.92350  Biso   1.000  C
  C86      1.0000 0.92890  0.32620  0.57650  Biso   1.000  C
  C87      1.0000 0.57110  0.82620  0.92350  Biso   1.000  C
  C88      1.0000 0.42890  0.82620  0.57650  Biso   1.000  C
  H81      1.0000 0.95880  0.63550  0.12130  Biso   1.000  H
  H82      1.0000 0.04120  0.63550  0.37870  Biso   1.000  H
  H83      1.0000 0.45880  0.13550  0.12130  Biso   1.000  H
  H84      1.0000 0.54120  0.13550  0.37870  Biso   1.000  H
  H85      1.0000 0.04120  0.36450  0.87870  Biso   1.000  H
  H86      1.0000 0.95880  0.36450  0.62130  Biso   1.000  H
  H87      1.0000 0.54120  0.86450  0.87870  Biso   1.000  H
  H88      1.0000 0.45880  0.86450  0.62130  Biso   1.000  H
  H89      1.0000 0.88980  0.62460  0.06210  Biso   1.000  H
  H90      1.0000 0.11020  0.62460  0.43790  Biso   1.000  H
  H91      1.0000 0.38980  0.12460  0.06210  Biso   1.000  H
  H92      1.0000 0.61020  0.12460  0.43790  Biso   1.000  H
  H93      1.0000 0.11020  0.37540  0.93790  Biso   1.000  H
  H94      1.0000 0.88980  0.37540  0.56210  Biso   1.000  H
  H95      1.0000 0.61020  0.87540  0.93790  Biso   1.000  H
  H96      1.0000 0.38980  0.87540  0.56210  Biso   1.000  H
  C89      1.0000 0.28030  0.27310  0.20000  Biso   1.000  C
  C90      1.0000 0.71970  0.27310  0.30000  Biso   1.000  C
  C91      1.0000 0.78030  0.77310  0.20000  Biso   1.000  C
  C92      1.0000 0.21970  0.77310  0.30000  Biso   1.000  C
  C93      1.0000 0.71970  0.72690  0.80000  Biso   1.000  C
  C94      1.0000 0.28030  0.72690  0.70000  Biso   1.000  C
  C95      1.0000 0.21970  0.22690  0.80000  Biso   1.000  C
  C96      1.0000 0.78030  0.22690  0.70000  Biso   1.000  C
  H97      1.0000 0.30110  0.26150  0.24900  Biso   1.000  H
  H98      1.0000 0.69890  0.26150  0.25100  Biso   1.000  H
  H99      1.0000 0.80110  0.76150  0.24900  Biso   1.000  H
  H100     1.0000 0.19890  0.76150  0.25100  Biso   1.000  H
  H101     1.0000 0.69890  0.73850  0.75100  Biso   1.000  H
  H102     1.0000 0.30110  0.73850  0.74900  Biso   1.000  H
  H103     1.0000 0.19890  0.23850  0.75100  Biso   1.000  H
  H104     1.0000 0.80110  0.23850  0.74900  Biso   1.000  H
  H105     1.0000 0.30670  0.32460  0.18720  Biso   1.000  H
  H106     1.0000 0.69330  0.32460  0.31280  Biso   1.000  H
  H107     1.0000 0.80670  0.82460  0.18720  Biso   1.000  H
  H108     1.0000 0.19330  0.82460  0.31280  Biso   1.000  H
  H109     1.0000 0.69330  0.67540  0.81280  Biso   1.000  H
  H110     1.0000 0.30670  0.67540  0.68720  Biso   1.000  H
  H111     1.0000 0.19330  0.17540  0.81280  Biso   1.000  H
  H112     1.0000 0.80670  0.17540  0.68720  Biso   1.000  H
  H113     1.0000 0.27040  0.17760  0.17860  Biso   1.000  H
  H114     1.0000 0.72960  0.17760  0.32140  Biso   1.000  H
  H115     1.0000 0.77040  0.67760  0.17860  Biso   1.000  H
  H116     1.0000 0.22960  0.67760  0.32140  Biso   1.000  H
  H117     1.0000 0.72960  0.82240  0.82140  Biso   1.000  H
  H118     1.0000 0.27040  0.82240  0.67860  Biso   1.000  H
  H119     1.0000 0.22960  0.32240  0.82140  Biso   1.000  H
  H120     1.0000 0.77040  0.32240  0.67860  Biso   1.000  H
  C97      1.0000 0.17810  0.41130  0.34910  Biso   1.000  C
  C98      1.0000 0.82190  0.41130  0.15090  Biso   1.000  C
  C99      1.0000 0.67810  0.91130  0.34910  Biso   1.000  C
  C100     1.0000 0.32190  0.91130  0.15090  Biso   1.000  C
  C101     1.0000 0.82190  0.58870  0.65090  Biso   1.000  C
  C102     1.0000 0.17810  0.58870  0.84910  Biso   1.000  C
  C103     1.0000 0.32190  0.08870  0.65090  Biso   1.000  C
  C104     1.0000 0.67810  0.08870  0.84910  Biso   1.000  C
  H121     1.0000 0.16110  0.50170  0.35480  Biso   1.000  H
  H122     1.0000 0.83890  0.50170  0.14520  Biso   1.000  H
  H123     1.0000 0.66110  0.00170  0.35480  Biso   1.000  H
  H124     1.0000 0.33890  0.00170  0.14520  Biso   1.000  H
  H125     1.0000 0.83890  0.49830  0.64520  Biso   1.000  H
  H126     1.0000 0.16110  0.49830  0.85480  Biso   1.000  H
  H127     1.0000 0.33890  0.99830  0.64520  Biso   1.000  H
  H128     1.0000 0.66110  0.99830  0.85480  Biso   1.000  H
  H129     1.0000 0.21560  0.43200  0.34840  Biso   1.000  H
  H130     1.0000 0.78440  0.43200  0.15160  Biso   1.000  H
  H131     1.0000 0.71560  0.93200  0.34840  Biso   1.000  H
  H132     1.0000 0.28440  0.93200  0.15160  Biso   1.000  H
  H133     1.0000 0.78440  0.56800  0.65160  Biso   1.000  H
  H134     1.0000 0.21560  0.56800  0.84840  Biso   1.000  H
  H135     1.0000 0.28440  0.06800  0.65160  Biso   1.000  H
  H136     1.0000 0.71560  0.06800  0.84840  Biso   1.000  H
  H137     1.0000 0.18690  0.34590  0.38660  Biso   1.000  H
  H138     1.0000 0.81310  0.34590  0.11340  Biso   1.000  H
  H139     1.0000 0.68690  0.84590  0.38660  Biso   1.000  H
  H140     1.0000 0.31310  0.84590  0.11340  Biso   1.000  H
  H141     1.0000 0.81310  0.65410  0.61340  Biso   1.000  H
  H142     1.0000 0.18690  0.65410  0.88660  Biso   1.000  H
  H143     1.0000 0.31310  0.15410  0.61340  Biso   1.000  H
  H144     1.0000 0.68690  0.15410  0.88660  Biso   1.000  H
  C105     1.0000 0.07560  0.31420  0.28560  Biso   1.000  C
  C106     1.0000 0.92440  0.31420  0.21440  Biso   1.000  C
  C107     1.0000 0.57560  0.81420  0.28560  Biso   1.000  C
  C108     1.0000 0.42440  0.81420  0.21440  Biso   1.000  C
  C109     1.0000 0.92440  0.68580  0.71440  Biso   1.000  C
  C110     1.0000 0.07560  0.68580  0.78560  Biso   1.000  C
  C111     1.0000 0.42440  0.18580  0.71440  Biso   1.000  C
  C112     1.0000 0.57560  0.18580  0.78560  Biso   1.000  C
  H145     1.0000 0.08440  0.25440  0.32480  Biso   1.000  H
  H146     1.0000 0.91560  0.25440  0.17520  Biso   1.000  H
  H147     1.0000 0.58440  0.75440  0.32480  Biso   1.000  H
  H148     1.0000 0.41560  0.75440  0.17520  Biso   1.000  H
  H149     1.0000 0.91560  0.74560  0.67520  Biso   1.000  H
  H150     1.0000 0.08440  0.74560  0.82480  Biso   1.000  H
  H151     1.0000 0.41560  0.24560  0.67520  Biso   1.000  H
  H152     1.0000 0.58440  0.24560  0.82480  Biso   1.000  H
  H153     1.0000 0.04640  0.26400  0.24440  Biso   1.000  H
  H154     1.0000 0.95360  0.26400  0.25560  Biso   1.000  H
  H155     1.0000 0.54640  0.76400  0.24440  Biso   1.000  H
  H156     1.0000 0.45360  0.76400  0.25560  Biso   1.000  H
  H157     1.0000 0.95360  0.73600  0.75560  Biso   1.000  H
  H158     1.0000 0.04640  0.73600  0.74440  Biso   1.000  H
  H159     1.0000 0.45360  0.23600  0.75560  Biso   1.000  H
  H160     1.0000 0.54640  0.23600  0.74440  Biso   1.000  H
  H161     1.0000 0.05850  0.40690  0.28880  Biso   1.000  H
  H162     1.0000 0.94150  0.40690  0.21120  Biso   1.000  H
  H163     1.0000 0.55850  0.90690  0.28880  Biso   1.000  H
  H164     1.0000 0.44150  0.90690  0.21120  Biso   1.000  H
  H165     1.0000 0.94150  0.59310  0.71120  Biso   1.000  H
  H166     1.0000 0.05850  0.59310  0.78880  Biso   1.000  H
  H167     1.0000 0.44150  0.09310  0.71120  Biso   1.000  H
  H168     1.0000 0.55850  0.09310  0.78880  Biso   1.000  H
  C113     1.0000 0.91980  0.86990  0.14440  Biso   1.000  C
  C114     1.0000 0.08020  0.86990  0.35560  Biso   1.000  C
  C115     1.0000 0.41980  0.36990  0.14440  Biso   1.000  C
  C116     1.0000 0.58020  0.36990  0.35560  Biso   1.000  C
  C117     1.0000 0.08020  0.13010  0.85560  Biso   1.000  C
  C118     1.0000 0.91980  0.13010  0.64440  Biso   1.000  C
  C119     1.0000 0.58020  0.63010  0.85560  Biso   1.000  C
  C120     1.0000 0.41980  0.63010  0.64440  Biso   1.000  C
  H169     1.0000 0.88560  0.81970  0.14370  Biso   1.000  H
  H170     1.0000 0.11440  0.81970  0.35630  Biso   1.000  H
  H171     1.0000 0.38560  0.31970  0.14370  Biso   1.000  H
  H172     1.0000 0.61440  0.31970  0.35630  Biso   1.000  H
  H173     1.0000 0.11440  0.18030  0.85630  Biso   1.000  H
  H174     1.0000 0.88560  0.18030  0.64370  Biso   1.000  H
  H175     1.0000 0.61440  0.68030  0.85630  Biso   1.000  H
  H176     1.0000 0.38560  0.68030  0.64370  Biso   1.000  H
  H177     1.0000 0.91520  0.97450  0.14710  Biso   1.000  H
  H178     1.0000 0.08480  0.97450  0.35290  Biso   1.000  H
  H179     1.0000 0.41520  0.47450  0.14710  Biso   1.000  H
  H180     1.0000 0.58480  0.47450  0.35290  Biso   1.000  H
  H181     1.0000 0.08480  0.02550  0.85290  Biso   1.000  H
  H182     1.0000 0.91520  0.02550  0.64710  Biso   1.000  H
  H183     1.0000 0.58480  0.52550  0.85290  Biso   1.000  H
  H184     1.0000 0.41520  0.52550  0.64710  Biso   1.000  H
  H185     1.0000 0.95760  0.83800  0.18360  Biso   1.000  H
  H186     1.0000 0.04240  0.83800  0.31640  Biso   1.000  H
  H187     1.0000 0.45760  0.33800  0.18360  Biso   1.000  H
  H188     1.0000 0.54240  0.33800  0.31640  Biso   1.000  H
  H189     1.0000 0.04240  0.16200  0.81640  Biso   1.000  H
  H190     1.0000 0.95760  0.16200  0.68360  Biso   1.000  H
  H191     1.0000 0.54240  0.66200  0.81640  Biso   1.000  H
  H192     1.0000 0.45760  0.66200  0.68360  Biso   1.000  H
  C121     1.0000 0.86290  0.88430  0.02190  Biso   1.000  C
  C122     1.0000 0.13710  0.88430  0.47810  Biso   1.000  C
  C123     1.0000 0.36290  0.38430  0.02190  Biso   1.000  C
  C124     1.0000 0.63710  0.38430  0.47810  Biso   1.000  C
  C125     1.0000 0.13710  0.11570  0.97810  Biso   1.000  C
  C126     1.0000 0.86290  0.11570  0.52190  Biso   1.000  C
  C127     1.0000 0.63710  0.61570  0.97810  Biso   1.000  C
  C128     1.0000 0.36290  0.61570  0.52190  Biso   1.000  C
  H193     1.0000 0.85890  0.98940  0.02380  Biso   1.000  H
  H194     1.0000 0.14110  0.98940  0.47620  Biso   1.000  H
  H195     1.0000 0.35890  0.48940  0.02380  Biso   1.000  H
  H196     1.0000 0.64110  0.48940  0.47620  Biso   1.000  H
  H197     1.0000 0.14110  0.01060  0.97620  Biso   1.000  H
  H198     1.0000 0.85890  0.01060  0.52380  Biso   1.000  H
  H199     1.0000 0.64110  0.51060  0.97620  Biso   1.000  H
  H200     1.0000 0.35890  0.51060  0.52380  Biso   1.000  H
  H201     1.0000 0.82890  0.83660  0.02280  Biso   1.000  H
  H202     1.0000 0.17110  0.83660  0.47720  Biso   1.000  H
  H203     1.0000 0.32890  0.33660  0.02280  Biso   1.000  H
  H204     1.0000 0.67110  0.33660  0.47720  Biso   1.000  H
  H205     1.0000 0.17110  0.16340  0.97720  Biso   1.000  H
  H206     1.0000 0.82890  0.16340  0.52280  Biso   1.000  H
  H207     1.0000 0.67110  0.66340  0.97720  Biso   1.000  H
  H208     1.0000 0.32890  0.66340  0.52280  Biso   1.000  H
  H209     1.0000 0.86270  0.85870  0.98020  Biso   1.000  H
  H210     1.0000 0.13730  0.85870  0.51980  Biso   1.000  H
  H211     1.0000 0.36270  0.35870  0.98020  Biso   1.000  H
  H212     1.0000 0.63730  0.35870  0.51980  Biso   1.000  H
  H213     1.0000 0.13730  0.14130  0.01980  Biso   1.000  H
  H214     1.0000 0.86270  0.14130  0.48020  Biso   1.000  H
  H215     1.0000 0.63730  0.64130  0.01980  Biso   1.000  H
  H216     1.0000 0.36270  0.64130  0.48020  Biso   1.000  H
  O1       1.0000 0.12583  0.59430  0.13685  Biso   1.000  O
  O2       1.0000 0.87417  0.59430  0.36315  Biso   1.000  O
  O3       1.0000 0.62583  0.09430  0.13685  Biso   1.000  O
  O4       1.0000 0.37417  0.09430  0.36315  Biso   1.000  O
  O5       1.0000 0.87417  0.40570  0.86315  Biso   1.000  O
  O6       1.0000 0.12583  0.40570  0.63685  Biso   1.000  O
  O7       1.0000 0.37417  0.90570  0.86315  Biso   1.000  O
  O8       1.0000 0.62583  0.90570  0.63685  Biso   1.000  O
  Cu1      1.0000 0.12392  0.46667  0.20316  Biso   1.000  Cu
  Cu2      1.0000 0.87608  0.46667  0.29684  Biso   1.000  Cu
  Cu3      1.0000 0.62392  0.96667  0.20316  Biso   1.000  Cu
  Cu4      1.0000 0.37608  0.96667  0.29684  Biso   1.000  Cu
  Cu5      1.0000 0.87608  0.53333  0.79684  Biso   1.000  Cu
  Cu6      1.0000 0.12392  0.53333  0.70316  Biso   1.000  Cu
  Cu7      1.0000 0.37608  0.03333  0.79684  Biso   1.000  Cu
  Cu8      1.0000 0.62392  0.03333  0.70316  Biso   1.000  Cu
  Cu9      1.0000 0.99568  0.93270  0.07760  Biso   1.000  Cu
  Cu10     1.0000 0.00432  0.93270  0.42240  Biso   1.000  Cu
  Cu11     1.0000 0.49568  0.43270  0.07760  Biso   1.000  Cu
  Cu12     1.0000 0.50432  0.43270  0.42240  Biso   1.000  Cu
  Cu13     1.0000 0.00432  0.06730  0.92240  Biso   1.000  Cu
  Cu14     1.0000 0.99568  0.06730  0.57760  Biso   1.000  Cu
  Cu15     1.0000 0.50432  0.56730  0.92240  Biso   1.000  Cu
  Cu16     1.0000 0.49568  0.56730  0.57760  Biso   1.000  Cu
  N1       1.0000 0.07917  0.61760  0.22670  Biso   1.000  N
  N2       1.0000 0.92083  0.61760  0.27330  Biso   1.000  N
  N3       1.0000 0.57917  0.11760  0.22670  Biso   1.000  N
  N4       1.0000 0.42083  0.11760  0.27330  Biso   1.000  N
  N5       1.0000 0.92083  0.38240  0.77330  Biso   1.000  N
  N6       1.0000 0.07917  0.38240  0.72670  Biso   1.000  N
  N7       1.0000 0.42083  0.88240  0.77330  Biso   1.000  N
  N8       1.0000 0.57917  0.88240  0.72670  Biso   1.000  N
  N9       1.0000 0.07471  0.74400  0.21120  Biso   1.000  N
  N10      1.0000 0.92529  0.74400  0.28880  Biso   1.000  N
  N11      1.0000 0.57471  0.24400  0.21120  Biso   1.000  N
  N12      1.0000 0.42529  0.24400  0.28880  Biso   1.000  N
  N13      1.0000 0.92529  0.25600  0.78880  Biso   1.000  N
  N14      1.0000 0.07471  0.25600  0.71120  Biso   1.000  N
  N15      1.0000 0.42529  0.75600  0.78880  Biso   1.000  N
  N16      1.0000 0.57471  0.75600  0.71120  Biso   1.000  N
  N17      1.0000 0.06810  0.86590  0.19650  Biso   1.000  N
  N18      1.0000 0.93190  0.86590  0.30350  Biso   1.000  N
  N19      1.0000 0.56810  0.36590  0.19650  Biso   1.000  N
  N20      1.0000 0.43190  0.36590  0.30350  Biso   1.000  N
  N21      1.0000 0.93190  0.13410  0.80350  Biso   1.000  N
  N22      1.0000 0.06810  0.13410  0.69650  Biso   1.000  N
  N23      1.0000 0.43190  0.63410  0.80350  Biso   1.000  N
  N24      1.0000 0.56810  0.63410  0.69650  Biso   1.000  N
  N25      1.0000 0.06346  0.01550  0.06450  Biso   1.000  N
  N26      1.0000 0.93654  0.01550  0.43550  Biso   1.000  N
  N27      1.0000 0.56346  0.51550  0.06450  Biso   1.000  N
  N28      1.0000 0.43654  0.51550  0.43550  Biso   1.000  N
  N29      1.0000 0.93654  0.98450  0.93550  Biso   1.000  N
  N30      1.0000 0.06346  0.98450  0.56450  Biso   1.000  N
  N31      1.0000 0.43654  0.48450  0.93550  Biso   1.000  N
  N32      1.0000 0.56346  0.48450  0.56450  Biso   1.000  N
  N33      1.0000 0.11700  0.99950  0.10510  Biso   1.000  N
  N34      1.0000 0.88300  0.99950  0.39490  Biso   1.000  N
  N35      1.0000 0.61700  0.49950  0.10510  Biso   1.000  N
  N36      1.0000 0.38300  0.49950  0.39490  Biso   1.000  N
  N37      1.0000 0.88300  0.00050  0.89490  Biso   1.000  N
  N38      1.0000 0.11700  0.00050  0.60510  Biso   1.000  N
  N39      1.0000 0.38300  0.50050  0.89490  Biso   1.000  N
  N40      1.0000 0.61700  0.50050  0.60510  Biso   1.000  N
  N41      1.0000 0.16920  0.98650  0.14130  Biso   1.000  N
  N42      1.0000 0.83080  0.98650  0.35870  Biso   1.000  N
  N43      1.0000 0.66920  0.48650  0.14130  Biso   1.000  N
  N44      1.0000 0.33080  0.48650  0.35870  Biso   1.000  N
  N45      1.0000 0.83080  0.01350  0.85870  Biso   1.000  N
  N46      1.0000 0.16920  0.01350  0.64130  Biso   1.000  N
  N47      1.0000 0.33080  0.51350  0.85870  Biso   1.000  N
  N48      1.0000 0.66920  0.51350  0.64130  Biso   1.000  N
  N49      1.0000 0.97300  0.12730  0.09970  Biso   1.000  N
  N50      1.0000 0.02700  0.12730  0.40030  Biso   1.000  N
  N51      1.0000 0.47300  0.62730  0.09970  Biso   1.000  N
  N52      1.0000 0.52700  0.62730  0.40030  Biso   1.000  N
  N53      1.0000 0.02700  0.87270  0.90030  Biso   1.000  N
  N54      1.0000 0.97300  0.87270  0.59970  Biso   1.000  N
  N55      1.0000 0.52700  0.37270  0.90030  Biso   1.000  N
  N56      1.0000 0.47300  0.37270  0.59970  Biso   1.000  N
  N57      1.0000 0.00370  0.23340  0.10970  Biso   1.000  N
  N58      1.0000 0.99630  0.23340  0.39030  Biso   1.000  N
  N59      1.0000 0.50370  0.73340  0.10970  Biso   1.000  N
  N60      1.0000 0.49630  0.73340  0.39030  Biso   1.000  N
  N61      1.0000 0.99630  0.76660  0.89030  Biso   1.000  N
  N62      1.0000 0.00370  0.76660  0.60970  Biso   1.000  N
  N63      1.0000 0.49630  0.26660  0.89030  Biso   1.000  N
  N64      1.0000 0.50370  0.26660  0.60970  Biso   1.000  N
  N65      1.0000 0.03280  0.33940  0.11920  Biso   1.000  N
  N66      1.0000 0.96720  0.33940  0.38080  Biso   1.000  N
  N67      1.0000 0.53280  0.83940  0.11920  Biso   1.000  N
  N68      1.0000 0.46720  0.83940  0.38080  Biso   1.000  N
  N69      1.0000 0.96720  0.66060  0.88080  Biso   1.000  N
  N70      1.0000 0.03280  0.66060  0.61920  Biso   1.000  N
  N71      1.0000 0.46720  0.16060  0.88080  Biso   1.000  N
  N72      1.0000 0.53280  0.16060  0.61920  Biso   1.000  N
  N73      1.0000 0.18959  0.34050  0.20700  Biso   1.000  N
  N74      1.0000 0.81041  0.34050  0.29300  Biso   1.000  N
  N75      1.0000 0.68959  0.84050  0.20700  Biso   1.000  N
  N76      1.0000 0.31041  0.84050  0.29300  Biso   1.000  N
  N77      1.0000 0.81041  0.65950  0.79300  Biso   1.000  N
  N78      1.0000 0.18959  0.65950  0.70700  Biso   1.000  N
  N79      1.0000 0.31041  0.15950  0.79300  Biso   1.000  N
  N80      1.0000 0.68959  0.15950  0.70700  Biso   1.000  N
  N81      1.0000 0.13333  0.34090  0.28380  Biso   1.000  N
  N82      1.0000 0.86667  0.34090  0.21620  Biso   1.000  N
  N83      1.0000 0.63333  0.84090  0.28380  Biso   1.000  N
  N84      1.0000 0.36667  0.84090  0.21620  Biso   1.000  N
  N85      1.0000 0.86667  0.65910  0.71620  Biso   1.000  N
  N86      1.0000 0.13333  0.65910  0.78380  Biso   1.000  N
  N87      1.0000 0.36667  0.15910  0.71620  Biso   1.000  N
  N88      1.0000 0.63333  0.15910  0.78380  Biso   1.000  N
  N89      1.0000 0.00459  0.73640  0.04400  Biso   1.000  N
  N90      1.0000 0.99541  0.73640  0.45600  Biso   1.000  N
  N91      1.0000 0.50459  0.23640  0.04400  Biso   1.000  N
  N92      1.0000 0.49541  0.23640  0.45600  Biso   1.000  N
  N93      1.0000 0.99541  0.26360  0.95600  Biso   1.000  N
  N94      1.0000 0.00459  0.26360  0.54400  Biso   1.000  N
  N95      1.0000 0.49541  0.76360  0.95600  Biso   1.000  N
  N96      1.0000 0.50459  0.76360  0.54400  Biso   1.000  N
  H217     1.0000 0.00890  0.74820  0.00680  Biso   1.000  H
  H218     1.0000 0.99110  0.74820  0.49320  Biso   1.000  H
  H219     1.0000 0.50890  0.24820  0.00680  Biso   1.000  H
  H220     1.0000 0.49110  0.24820  0.49320  Biso   1.000  H
  H221     1.0000 0.99110  0.25180  0.99320  Biso   1.000  H
  H222     1.0000 0.00890  0.25180  0.50680  Biso   1.000  H
  H223     1.0000 0.49110  0.75180  0.99320  Biso   1.000  H
  H224     1.0000 0.50890  0.75180  0.50680  Biso   1.000  H
  H225     1.0000 0.03880  0.69160  0.07680  Biso   1.000  H
  H226     1.0000 0.96120  0.69160  0.42320  Biso   1.000  H
  H227     1.0000 0.53880  0.19160  0.07680  Biso   1.000  H
  H228     1.0000 0.46120  0.19160  0.42320  Biso   1.000  H
  H229     1.0000 0.96120  0.30840  0.92320  Biso   1.000  H
  H230     1.0000 0.03880  0.30840  0.57680  Biso   1.000  H
  H231     1.0000 0.46120  0.80840  0.92320  Biso   1.000  H
  H232     1.0000 0.53880  0.80840  0.57680  Biso   1.000  H
  N97      1.0000 0.92146  0.83560  0.08150  Biso   1.000  N
  N98      1.0000 0.07854  0.83560  0.41850  Biso   1.000  N
  N99      1.0000 0.42146  0.33560  0.08150  Biso   1.000  N
  N100     1.0000 0.57854  0.33560  0.41850  Biso   1.000  N
  N101     1.0000 0.07854  0.16440  0.91850  Biso   1.000  N
  N102     1.0000 0.92146  0.16440  0.58150  Biso   1.000  N
  N103     1.0000 0.57854  0.66440  0.91850  Biso   1.000  N
  N104     1.0000 0.42146  0.66440  0.58150  Biso   1.000  N
