data_image0
_cell_length_a       25.154
_cell_length_b       9.1504
_cell_length_c       24.096
_cell_angle_alpha    90
_cell_angle_beta     125.54
_cell_angle_gamma    90

_symmetry_space_group_name_H-M    "P 1"
_symmetry_int_tables_number       1

loop_
  _symmetry_equiv_pos_as_xyz
  'x, y, z'

loop_
  _atom_site_label
  _atom_site_occupancy
  _atom_site_fract_x
  _atom_site_fract_y
  _atom_site_fract_z
  _atom_site_thermal_displace_type
  _atom_site_B_iso_or_equiv
  _atom_site_type_symbol
  Cu1      1.0000 0.16845  0.18372  0.92279  Biso   1.000  Cu
  Cu2      1.0000 0.83155  0.18372  0.57721  Biso   1.000  Cu
  Cu3      1.0000 0.66845  0.68372  0.92279  Biso   1.000  Cu
  Cu4      1.0000 0.33155  0.68372  0.57721  Biso   1.000  Cu
  Cu5      1.0000 0.83155  0.81628  0.07721  Biso   1.000  Cu
  Cu6      1.0000 0.16845  0.81628  0.42279  Biso   1.000  Cu
  Cu7      1.0000 0.33155  0.31628  0.07721  Biso   1.000  Cu
  Cu8      1.0000 0.66845  0.31628  0.42279  Biso   1.000  Cu
  Cu9      1.0000 0.17026  0.71896  0.79607  Biso   1.000  Cu
  Cu10     1.0000 0.82974  0.71896  0.70393  Biso   1.000  Cu
  Cu11     1.0000 0.67026  0.21896  0.79607  Biso   1.000  Cu
  Cu12     1.0000 0.32974  0.21896  0.70393  Biso   1.000  Cu
  Cu13     1.0000 0.82974  0.28104  0.20393  Biso   1.000  Cu
  Cu14     1.0000 0.17026  0.28104  0.29607  Biso   1.000  Cu
  Cu15     1.0000 0.32974  0.78104  0.20393  Biso   1.000  Cu
  Cu16     1.0000 0.67026  0.78104  0.29607  Biso   1.000  Cu
  O1       1.0000 0.23880  0.84250  0.86320  Biso   1.000  O
  O2       1.0000 0.76120  0.84250  0.63680  Biso   1.000  O
  O3       1.0000 0.73880  0.34250  0.86320  Biso   1.000  O
  O4       1.0000 0.26120  0.34250  0.63680  Biso   1.000  O
  O5       1.0000 0.76120  0.15750  0.13680  Biso   1.000  O
  O6       1.0000 0.23880  0.15750  0.36320  Biso   1.000  O
  O7       1.0000 0.26120  0.65750  0.13680  Biso   1.000  O
  O8       1.0000 0.73880  0.65750  0.36320  Biso   1.000  O
  N1       1.0000 0.23120  0.59300  0.79160  Biso   1.000  N
  N2       1.0000 0.76880  0.59300  0.70840  Biso   1.000  N
  N3       1.0000 0.73120  0.09300  0.79160  Biso   1.000  N
  N4       1.0000 0.26880  0.09300  0.70840  Biso   1.000  N
  N5       1.0000 0.76880  0.40700  0.20840  Biso   1.000  N
  N6       1.0000 0.23120  0.40700  0.29160  Biso   1.000  N
  N7       1.0000 0.26880  0.90700  0.20840  Biso   1.000  N
  N8       1.0000 0.73120  0.90700  0.29160  Biso   1.000  N
  N9       1.0000 0.09920  0.59490  0.71580  Biso   1.000  N
  N10      1.0000 0.90080  0.59490  0.78420  Biso   1.000  N
  N11      1.0000 0.59920  0.09490  0.71580  Biso   1.000  N
  N12      1.0000 0.40080  0.09490  0.78420  Biso   1.000  N
  N13      1.0000 0.90080  0.40510  0.28420  Biso   1.000  N
  N14      1.0000 0.09920  0.40510  0.21580  Biso   1.000  N
  N15      1.0000 0.40080  0.90510  0.28420  Biso   1.000  N
  N16      1.0000 0.59920  0.90510  0.21580  Biso   1.000  N
  N17      1.0000 0.10310  0.86820  0.77290  Biso   1.000  N
  N18      1.0000 0.89690  0.86820  0.72710  Biso   1.000  N
  N19      1.0000 0.60310  0.36820  0.77290  Biso   1.000  N
  N20      1.0000 0.39690  0.36820  0.72710  Biso   1.000  N
  N21      1.0000 0.89690  0.13180  0.22710  Biso   1.000  N
  N22      1.0000 0.10310  0.13180  0.27290  Biso   1.000  N
  N23      1.0000 0.39690  0.63180  0.22710  Biso   1.000  N
  N24      1.0000 0.60310  0.63180  0.27290  Biso   1.000  N
  N25      1.0000 0.11410  0.99300  0.78870  Biso   1.000  N
  N26      1.0000 0.88590  0.99300  0.71130  Biso   1.000  N
  N27      1.0000 0.61410  0.49300  0.78870  Biso   1.000  N
  N28      1.0000 0.38590  0.49300  0.71130  Biso   1.000  N
  N29      1.0000 0.88590  0.00700  0.21130  Biso   1.000  N
  N30      1.0000 0.11410  0.00700  0.28870  Biso   1.000  N
  N31      1.0000 0.38590  0.50700  0.21130  Biso   1.000  N
  N32      1.0000 0.61410  0.50700  0.28870  Biso   1.000  N
  N33      1.0000 0.12090  0.11900  0.80180  Biso   1.000  N
  N34      1.0000 0.87910  0.11900  0.69820  Biso   1.000  N
  N35      1.0000 0.62090  0.61900  0.80180  Biso   1.000  N
  N36      1.0000 0.37910  0.61900  0.69820  Biso   1.000  N
  N37      1.0000 0.87910  0.88100  0.19820  Biso   1.000  N
  N38      1.0000 0.12090  0.88100  0.30180  Biso   1.000  N
  N39      1.0000 0.37910  0.38100  0.19820  Biso   1.000  N
  N40      1.0000 0.62090  0.38100  0.30180  Biso   1.000  N
  N41      1.0000 0.20900  0.98610  0.95480  Biso   1.000  N
  N42      1.0000 0.79100  0.98610  0.54520  Biso   1.000  N
  N43      1.0000 0.70900  0.48610  0.95480  Biso   1.000  N
  N44      1.0000 0.29100  0.48610  0.54520  Biso   1.000  N
  N45      1.0000 0.79100  0.01390  0.04520  Biso   1.000  N
  N46      1.0000 0.20900  0.01390  0.45480  Biso   1.000  N
  N47      1.0000 0.29100  0.51390  0.04520  Biso   1.000  N
  N48      1.0000 0.70900  0.51390  0.45480  Biso   1.000  N
  H1       1.0000 0.21050  0.94270  0.92220  Biso   1.000  H
  H2       1.0000 0.78950  0.94270  0.57780  Biso   1.000  H
  H3       1.0000 0.71050  0.44270  0.92220  Biso   1.000  H
  H4       1.0000 0.28950  0.44270  0.57780  Biso   1.000  H
  H5       1.0000 0.78950  0.05730  0.07780  Biso   1.000  H
  H6       1.0000 0.21050  0.05730  0.42220  Biso   1.000  H
  H7       1.0000 0.28950  0.55730  0.07780  Biso   1.000  H
  H8       1.0000 0.71050  0.55730  0.42220  Biso   1.000  H
  H9       1.0000 0.25020  0.99540  0.99230  Biso   1.000  H
  H10      1.0000 0.74980  0.99540  0.50770  Biso   1.000  H
  H11      1.0000 0.75020  0.49540  0.99230  Biso   1.000  H
  H12      1.0000 0.24980  0.49540  0.50770  Biso   1.000  H
  H13      1.0000 0.74980  0.00460  0.00770  Biso   1.000  H
  H14      1.0000 0.25020  0.00460  0.49230  Biso   1.000  H
  H15      1.0000 0.24980  0.50460  0.00770  Biso   1.000  H
  H16      1.0000 0.75020  0.50460  0.49230  Biso   1.000  H
  N49      1.0000 0.09050  0.09060  0.91890  Biso   1.000  N
  N50      1.0000 0.90950  0.09060  0.58110  Biso   1.000  N
  N51      1.0000 0.59050  0.59060  0.91890  Biso   1.000  N
  N52      1.0000 0.40950  0.59060  0.58110  Biso   1.000  N
  N53      1.0000 0.90950  0.90940  0.08110  Biso   1.000  N
  N54      1.0000 0.09050  0.90940  0.41890  Biso   1.000  N
  N55      1.0000 0.40950  0.40940  0.08110  Biso   1.000  N
  N56      1.0000 0.59050  0.40940  0.41890  Biso   1.000  N
  N57      1.0000 0.12490  0.37630  0.90080  Biso   1.000  N
  N58      1.0000 0.87510  0.37630  0.59920  Biso   1.000  N
  N59      1.0000 0.62490  0.87630  0.90080  Biso   1.000  N
  N60      1.0000 0.37510  0.87630  0.59920  Biso   1.000  N
  N61      1.0000 0.87510  0.62370  0.09920  Biso   1.000  N
  N62      1.0000 0.12490  0.62370  0.40080  Biso   1.000  N
  N63      1.0000 0.37510  0.12370  0.09920  Biso   1.000  N
  N64      1.0000 0.62490  0.12370  0.40080  Biso   1.000  N
  N65      1.0000 0.14480  0.48090  0.88960  Biso   1.000  N
  N66      1.0000 0.85520  0.48090  0.61040  Biso   1.000  N
  N67      1.0000 0.64480  0.98090  0.88960  Biso   1.000  N
  N68      1.0000 0.35520  0.98090  0.61040  Biso   1.000  N
  N69      1.0000 0.85520  0.51910  0.11040  Biso   1.000  N
  N70      1.0000 0.14480  0.51910  0.38960  Biso   1.000  N
  N71      1.0000 0.35520  0.01910  0.11040  Biso   1.000  N
  N72      1.0000 0.64480  0.01910  0.38960  Biso   1.000  N
  N73      1.0000 0.16350  0.58690  0.88050  Biso   1.000  N
  N74      1.0000 0.83650  0.58690  0.61950  Biso   1.000  N
  N75      1.0000 0.66350  0.08690  0.88050  Biso   1.000  N
  N76      1.0000 0.33650  0.08690  0.61950  Biso   1.000  N
  N77      1.0000 0.83650  0.41310  0.11950  Biso   1.000  N
  N78      1.0000 0.16350  0.41310  0.38050  Biso   1.000  N
  N79      1.0000 0.33650  0.91310  0.11950  Biso   1.000  N
  N80      1.0000 0.66350  0.91310  0.38050  Biso   1.000  N
  N81      1.0000 0.24950  0.26290  0.93660  Biso   1.000  N
  N82      1.0000 0.75050  0.26290  0.56340  Biso   1.000  N
  N83      1.0000 0.74950  0.76290  0.93660  Biso   1.000  N
  N84      1.0000 0.25050  0.76290  0.56340  Biso   1.000  N
  N85      1.0000 0.75050  0.73710  0.06340  Biso   1.000  N
  N86      1.0000 0.24950  0.73710  0.43660  Biso   1.000  N
  N87      1.0000 0.25050  0.23710  0.06340  Biso   1.000  N
  N88      1.0000 0.74950  0.23710  0.43660  Biso   1.000  N
  N89      1.0000 0.26110  0.25140  0.89540  Biso   1.000  N
  N90      1.0000 0.73890  0.25140  0.60460  Biso   1.000  N
  N91      1.0000 0.76110  0.75140  0.89540  Biso   1.000  N
  N92      1.0000 0.23890  0.75140  0.60460  Biso   1.000  N
  N93      1.0000 0.73890  0.74860  0.10460  Biso   1.000  N
  N94      1.0000 0.26110  0.74860  0.39540  Biso   1.000  N
  N95      1.0000 0.23890  0.24860  0.10460  Biso   1.000  N
  N96      1.0000 0.76110  0.24860  0.39540  Biso   1.000  N
  N97      1.0000 0.27640  0.24100  0.85950  Biso   1.000  N
  N98      1.0000 0.72360  0.24100  0.64050  Biso   1.000  N
  N99      1.0000 0.77640  0.74100  0.85950  Biso   1.000  N
  N100     1.0000 0.22360  0.74100  0.64050  Biso   1.000  N
  N101     1.0000 0.72360  0.75900  0.14050  Biso   1.000  N
  N102     1.0000 0.27640  0.75900  0.35950  Biso   1.000  N
  N103     1.0000 0.22360  0.25900  0.14050  Biso   1.000  N
  N104     1.0000 0.77640  0.25900  0.35950  Biso   1.000  N
  C1       1.0000 0.30160  0.82600  0.89460  Biso   1.000  C
  C2       1.0000 0.69840  0.82600  0.60540  Biso   1.000  C
  C3       1.0000 0.80160  0.32600  0.89460  Biso   1.000  C
  C4       1.0000 0.19840  0.32600  0.60540  Biso   1.000  C
  C5       1.0000 0.69840  0.17400  0.10540  Biso   1.000  C
  C6       1.0000 0.30160  0.17400  0.39460  Biso   1.000  C
  C7       1.0000 0.19840  0.67400  0.10540  Biso   1.000  C
  C8       1.0000 0.80160  0.67400  0.39460  Biso   1.000  C
  C9       1.0000 0.34360  0.92350  0.94750  Biso   1.000  C
  C10      1.0000 0.65640  0.92350  0.55250  Biso   1.000  C
  C11      1.0000 0.84360  0.42350  0.94750  Biso   1.000  C
  C12      1.0000 0.15640  0.42350  0.55250  Biso   1.000  C
  C13      1.0000 0.65640  0.07650  0.05250  Biso   1.000  C
  C14      1.0000 0.34360  0.07650  0.44750  Biso   1.000  C
  C15      1.0000 0.15640  0.57650  0.05250  Biso   1.000  C
  C16      1.0000 0.84360  0.57650  0.44750  Biso   1.000  C
  H17      1.0000 0.32500  0.99740  0.95740  Biso   1.000  H
  H18      1.0000 0.67500  0.99740  0.54260  Biso   1.000  H
  H19      1.0000 0.82500  0.49740  0.95740  Biso   1.000  H
  H20      1.0000 0.17500  0.49740  0.54260  Biso   1.000  H
  H21      1.0000 0.67500  0.00260  0.04260  Biso   1.000  H
  H22      1.0000 0.32500  0.00260  0.45740  Biso   1.000  H
  H23      1.0000 0.17500  0.50260  0.04260  Biso   1.000  H
  H24      1.0000 0.82500  0.50260  0.45740  Biso   1.000  H
  C17      1.0000 0.40960  0.91640  0.98480  Biso   1.000  C
  C18      1.0000 0.59040  0.91640  0.51520  Biso   1.000  C
  C19      1.0000 0.90960  0.41640  0.98480  Biso   1.000  C
  C20      1.0000 0.09040  0.41640  0.51520  Biso   1.000  C
  C21      1.0000 0.59040  0.08360  0.01520  Biso   1.000  C
  C22      1.0000 0.40960  0.08360  0.48480  Biso   1.000  C
  C23      1.0000 0.09040  0.58360  0.01520  Biso   1.000  C
  C24      1.0000 0.90960  0.58360  0.48480  Biso   1.000  C
  H25      1.0000 0.43540  0.98340  0.01950  Biso   1.000  H
  H26      1.0000 0.56460  0.98340  0.48050  Biso   1.000  H
  H27      1.0000 0.93540  0.48340  0.01950  Biso   1.000  H
  H28      1.0000 0.06460  0.48340  0.48050  Biso   1.000  H
  H29      1.0000 0.56460  0.01660  0.98050  Biso   1.000  H
  H30      1.0000 0.43540  0.01660  0.51950  Biso   1.000  H
  H31      1.0000 0.06460  0.51660  0.98050  Biso   1.000  H
  H32      1.0000 0.93540  0.51660  0.51950  Biso   1.000  H
  C25      1.0000 0.43860  0.80550  0.97000  Biso   1.000  C
  C26      1.0000 0.56140  0.80550  0.53000  Biso   1.000  C
  C27      1.0000 0.93860  0.30550  0.97000  Biso   1.000  C
  C28      1.0000 0.06140  0.30550  0.53000  Biso   1.000  C
  C29      1.0000 0.56140  0.19450  0.03000  Biso   1.000  C
  C30      1.0000 0.43860  0.19450  0.47000  Biso   1.000  C
  C31      1.0000 0.06140  0.69450  0.03000  Biso   1.000  C
  C32      1.0000 0.93860  0.69450  0.47000  Biso   1.000  C
  H33      1.0000 0.48380  0.79740  0.99520  Biso   1.000  H
  H34      1.0000 0.51620  0.79740  0.50480  Biso   1.000  H
  H35      1.0000 0.98380  0.29740  0.99520  Biso   1.000  H
  H36      1.0000 0.01620  0.29740  0.50480  Biso   1.000  H
  H37      1.0000 0.51620  0.20260  0.00480  Biso   1.000  H
  H38      1.0000 0.48380  0.20260  0.49520  Biso   1.000  H
  H39      1.0000 0.01620  0.70260  0.00480  Biso   1.000  H
  H40      1.0000 0.98380  0.70260  0.49520  Biso   1.000  H
  C33      1.0000 0.39980  0.71140  0.91860  Biso   1.000  C
  C34      1.0000 0.60020  0.71140  0.58140  Biso   1.000  C
  C35      1.0000 0.89980  0.21140  0.91860  Biso   1.000  C
  C36      1.0000 0.10020  0.21140  0.58140  Biso   1.000  C
  C37      1.0000 0.60020  0.28860  0.08140  Biso   1.000  C
  C38      1.0000 0.39980  0.28860  0.41860  Biso   1.000  C
  C39      1.0000 0.10020  0.78860  0.08140  Biso   1.000  C
  C40      1.0000 0.89980  0.78860  0.41860  Biso   1.000  C
  H41      1.0000 0.41950  0.63950  0.90910  Biso   1.000  H
  H42      1.0000 0.58050  0.63950  0.59090  Biso   1.000  H
  H43      1.0000 0.91950  0.13950  0.90910  Biso   1.000  H
  H44      1.0000 0.08050  0.13950  0.59090  Biso   1.000  H
  H45      1.0000 0.58050  0.36050  0.09090  Biso   1.000  H
  H46      1.0000 0.41950  0.36050  0.40910  Biso   1.000  H
  H47      1.0000 0.08050  0.86050  0.09090  Biso   1.000  H
  H48      1.0000 0.91950  0.86050  0.40910  Biso   1.000  H
  C41      1.0000 0.33090  0.71590  0.87860  Biso   1.000  C
  C42      1.0000 0.66910  0.71590  0.62140  Biso   1.000  C
  C43      1.0000 0.83090  0.21590  0.87860  Biso   1.000  C
  C44      1.0000 0.16910  0.21590  0.62140  Biso   1.000  C
  C45      1.0000 0.66910  0.28410  0.12140  Biso   1.000  C
  C46      1.0000 0.33090  0.28410  0.37860  Biso   1.000  C
  C47      1.0000 0.16910  0.78410  0.12140  Biso   1.000  C
  C48      1.0000 0.83090  0.78410  0.37860  Biso   1.000  C
  C49      1.0000 0.29380  0.61190  0.82350  Biso   1.000  C
  C50      1.0000 0.70620  0.61190  0.67650  Biso   1.000  C
  C51      1.0000 0.79380  0.11190  0.82350  Biso   1.000  C
  C52      1.0000 0.20620  0.11190  0.67650  Biso   1.000  C
  C53      1.0000 0.70620  0.38810  0.17650  Biso   1.000  C
  C54      1.0000 0.29380  0.38810  0.32350  Biso   1.000  C
  C55      1.0000 0.20620  0.88810  0.17650  Biso   1.000  C
  C56      1.0000 0.79380  0.88810  0.32350  Biso   1.000  C
  C57      1.0000 0.32800  0.52400  0.79990  Biso   1.000  C
  C58      1.0000 0.67200  0.52400  0.70010  Biso   1.000  C
  C59      1.0000 0.82800  0.02400  0.79990  Biso   1.000  C
  C60      1.0000 0.17200  0.02400  0.70010  Biso   1.000  C
  C61      1.0000 0.67200  0.47600  0.20010  Biso   1.000  C
  C62      1.0000 0.32800  0.47600  0.29990  Biso   1.000  C
  C63      1.0000 0.17200  0.97600  0.20010  Biso   1.000  C
  C64      1.0000 0.82800  0.97600  0.29990  Biso   1.000  C
  H49      1.0000 0.29700  0.46080  0.76320  Biso   1.000  H
  H50      1.0000 0.70300  0.46080  0.73680  Biso   1.000  H
  H51      1.0000 0.79700  0.96080  0.76320  Biso   1.000  H
  H52      1.0000 0.20300  0.96080  0.73680  Biso   1.000  H
  H53      1.0000 0.70300  0.53920  0.23680  Biso   1.000  H
  H54      1.0000 0.29700  0.53920  0.26320  Biso   1.000  H
  H55      1.0000 0.20300  0.03920  0.23680  Biso   1.000  H
  H56      1.0000 0.79700  0.03920  0.26320  Biso   1.000  H
  H57      1.0000 0.36190  0.46620  0.83710  Biso   1.000  H
  H58      1.0000 0.63810  0.46620  0.66290  Biso   1.000  H
  H59      1.0000 0.86190  0.96620  0.83710  Biso   1.000  H
  H60      1.0000 0.13810  0.96620  0.66290  Biso   1.000  H
  H61      1.0000 0.63810  0.53380  0.16290  Biso   1.000  H
  H62      1.0000 0.36190  0.53380  0.33710  Biso   1.000  H
  H63      1.0000 0.13810  0.03380  0.16290  Biso   1.000  H
  H64      1.0000 0.86190  0.03380  0.33710  Biso   1.000  H
  H65      1.0000 0.34670  0.58890  0.78440  Biso   1.000  H
  H66      1.0000 0.65330  0.58890  0.71560  Biso   1.000  H
  H67      1.0000 0.84670  0.08890  0.78440  Biso   1.000  H
  H68      1.0000 0.15330  0.08890  0.71560  Biso   1.000  H
  H69      1.0000 0.65330  0.41110  0.21560  Biso   1.000  H
  H70      1.0000 0.34670  0.41110  0.28440  Biso   1.000  H
  H71      1.0000 0.15330  0.91110  0.21560  Biso   1.000  H
  H72      1.0000 0.84670  0.91110  0.28440  Biso   1.000  H
  C65      1.0000 0.19680  0.48090  0.73790  Biso   1.000  C
  C66      1.0000 0.80320  0.48090  0.76210  Biso   1.000  C
  C67      1.0000 0.69680  0.98090  0.73790  Biso   1.000  C
  C68      1.0000 0.30320  0.98090  0.76210  Biso   1.000  C
  C69      1.0000 0.80320  0.51910  0.26210  Biso   1.000  C
  C70      1.0000 0.19680  0.51910  0.23790  Biso   1.000  C
  C71      1.0000 0.30320  0.01910  0.26210  Biso   1.000  C
  C72      1.0000 0.69680  0.01910  0.23790  Biso   1.000  C
  H73      1.0000 0.22210  0.39130  0.75250  Biso   1.000  H
  H74      1.0000 0.77790  0.39130  0.74750  Biso   1.000  H
  H75      1.0000 0.72210  0.89130  0.75250  Biso   1.000  H
  H76      1.0000 0.27790  0.89130  0.74750  Biso   1.000  H
  H77      1.0000 0.77790  0.60870  0.24750  Biso   1.000  H
  H78      1.0000 0.22210  0.60870  0.25250  Biso   1.000  H
  H79      1.0000 0.27790  0.10870  0.24750  Biso   1.000  H
  H80      1.0000 0.72210  0.10870  0.25250  Biso   1.000  H
  H81      1.0000 0.19100  0.51450  0.69650  Biso   1.000  H
  H82      1.0000 0.80900  0.51450  0.80350  Biso   1.000  H
  H83      1.0000 0.69100  0.01450  0.69650  Biso   1.000  H
  H84      1.0000 0.30900  0.01450  0.80350  Biso   1.000  H
  H85      1.0000 0.80900  0.48550  0.30350  Biso   1.000  H
  H86      1.0000 0.19100  0.48550  0.19650  Biso   1.000  H
  H87      1.0000 0.30900  0.98550  0.30350  Biso   1.000  H
  H88      1.0000 0.69100  0.98550  0.19650  Biso   1.000  H
  C73      1.0000 0.13160  0.45390  0.72470  Biso   1.000  C
  C74      1.0000 0.86840  0.45390  0.77530  Biso   1.000  C
  C75      1.0000 0.63160  0.95390  0.72470  Biso   1.000  C
  C76      1.0000 0.36840  0.95390  0.77530  Biso   1.000  C
  C77      1.0000 0.86840  0.54610  0.27530  Biso   1.000  C
  C78      1.0000 0.13160  0.54610  0.22470  Biso   1.000  C
  C79      1.0000 0.36840  0.04610  0.27530  Biso   1.000  C
  C80      1.0000 0.63160  0.04610  0.22470  Biso   1.000  C
  H89      1.0000 0.10480  0.39490  0.68400  Biso   1.000  H
  H90      1.0000 0.89520  0.39490  0.81600  Biso   1.000  H
  H91      1.0000 0.60480  0.89490  0.68400  Biso   1.000  H
  H92      1.0000 0.39520  0.89490  0.81600  Biso   1.000  H
  H93      1.0000 0.89520  0.60510  0.31600  Biso   1.000  H
  H94      1.0000 0.10480  0.60510  0.18400  Biso   1.000  H
  H95      1.0000 0.39520  0.10510  0.31600  Biso   1.000  H
  H96      1.0000 0.60480  0.10510  0.18400  Biso   1.000  H
  H97      1.0000 0.13740  0.40130  0.76280  Biso   1.000  H
  H98      1.0000 0.86260  0.40130  0.73720  Biso   1.000  H
  H99      1.0000 0.63740  0.90130  0.76280  Biso   1.000  H
  H100     1.0000 0.36260  0.90130  0.73720  Biso   1.000  H
  H101     1.0000 0.86260  0.59870  0.23720  Biso   1.000  H
  H102     1.0000 0.13740  0.59870  0.26280  Biso   1.000  H
  H103     1.0000 0.36260  0.09870  0.23720  Biso   1.000  H
  H104     1.0000 0.63740  0.09870  0.26280  Biso   1.000  H
  C81      1.0000 0.08030  0.66540  0.65200  Biso   1.000  C
  C82      1.0000 0.91970  0.66540  0.84800  Biso   1.000  C
  C83      1.0000 0.58030  0.16540  0.65200  Biso   1.000  C
  C84      1.0000 0.41970  0.16540  0.84800  Biso   1.000  C
  C85      1.0000 0.91970  0.33460  0.34800  Biso   1.000  C
  C86      1.0000 0.08030  0.33460  0.15200  Biso   1.000  C
  C87      1.0000 0.41970  0.83460  0.34800  Biso   1.000  C
  C88      1.0000 0.58030  0.83460  0.15200  Biso   1.000  C
  H105     1.0000 0.05930  0.75690  0.64710  Biso   1.000  H
  H106     1.0000 0.94070  0.75690  0.85290  Biso   1.000  H
  H107     1.0000 0.55930  0.25690  0.64710  Biso   1.000  H
  H108     1.0000 0.44070  0.25690  0.85290  Biso   1.000  H
  H109     1.0000 0.94070  0.24310  0.35290  Biso   1.000  H
  H110     1.0000 0.05930  0.24310  0.14710  Biso   1.000  H
  H111     1.0000 0.44070  0.74310  0.35290  Biso   1.000  H
  H112     1.0000 0.55930  0.74310  0.14710  Biso   1.000  H
  H113     1.0000 0.05070  0.60300  0.61420  Biso   1.000  H
  H114     1.0000 0.94930  0.60300  0.88580  Biso   1.000  H
  H115     1.0000 0.55070  0.10300  0.61420  Biso   1.000  H
  H116     1.0000 0.44930  0.10300  0.88580  Biso   1.000  H
  H117     1.0000 0.94930  0.39700  0.38580  Biso   1.000  H
  H118     1.0000 0.05070  0.39700  0.11420  Biso   1.000  H
  H119     1.0000 0.44930  0.89700  0.38580  Biso   1.000  H
  H120     1.0000 0.55070  0.89700  0.11420  Biso   1.000  H
  H121     1.0000 0.11860  0.68230  0.65310  Biso   1.000  H
  H122     1.0000 0.88140  0.68230  0.84690  Biso   1.000  H
  H123     1.0000 0.61860  0.18230  0.65310  Biso   1.000  H
  H124     1.0000 0.38140  0.18230  0.84690  Biso   1.000  H
  H125     1.0000 0.88140  0.31770  0.34690  Biso   1.000  H
  H126     1.0000 0.11860  0.31770  0.15310  Biso   1.000  H
  H127     1.0000 0.38140  0.81770  0.34690  Biso   1.000  H
  H128     1.0000 0.61860  0.81770  0.15310  Biso   1.000  H
  C89      1.0000 0.04040  0.57150  0.71450  Biso   1.000  C
  C90      1.0000 0.95960  0.57150  0.78550  Biso   1.000  C
  C91      1.0000 0.54040  0.07150  0.71450  Biso   1.000  C
  C92      1.0000 0.45960  0.07150  0.78550  Biso   1.000  C
  C93      1.0000 0.95960  0.42850  0.28550  Biso   1.000  C
  C94      1.0000 0.04040  0.42850  0.21450  Biso   1.000  C
  C95      1.0000 0.45960  0.92850  0.28550  Biso   1.000  C
  C96      1.0000 0.54040  0.92850  0.21450  Biso   1.000  C
  H129     1.0000 0.05260  0.52540  0.75620  Biso   1.000  H
  H130     1.0000 0.94740  0.52540  0.74380  Biso   1.000  H
  H131     1.0000 0.55260  0.02540  0.75620  Biso   1.000  H
  H132     1.0000 0.44740  0.02540  0.74380  Biso   1.000  H
  H133     1.0000 0.94740  0.47460  0.24380  Biso   1.000  H
  H134     1.0000 0.05260  0.47460  0.25620  Biso   1.000  H
  H135     1.0000 0.44740  0.97460  0.24380  Biso   1.000  H
  H136     1.0000 0.55260  0.97460  0.25620  Biso   1.000  H
  H137     1.0000 0.01020  0.51000  0.67660  Biso   1.000  H
  H138     1.0000 0.98980  0.51000  0.82340  Biso   1.000  H
  H139     1.0000 0.51020  0.01000  0.67660  Biso   1.000  H
  H140     1.0000 0.48980  0.01000  0.82340  Biso   1.000  H
  H141     1.0000 0.98980  0.49000  0.32340  Biso   1.000  H
  H142     1.0000 0.01020  0.49000  0.17660  Biso   1.000  H
  H143     1.0000 0.48980  0.99000  0.32340  Biso   1.000  H
  H144     1.0000 0.51020  0.99000  0.17660  Biso   1.000  H
  H145     1.0000 0.02010  0.66390  0.70990  Biso   1.000  H
  H146     1.0000 0.97990  0.66390  0.79010  Biso   1.000  H
  H147     1.0000 0.52010  0.16390  0.70990  Biso   1.000  H
  H148     1.0000 0.47990  0.16390  0.79010  Biso   1.000  H
  H149     1.0000 0.97990  0.33610  0.29010  Biso   1.000  H
  H150     1.0000 0.02010  0.33610  0.20990  Biso   1.000  H
  H151     1.0000 0.47990  0.83610  0.29010  Biso   1.000  H
  H152     1.0000 0.52010  0.83610  0.20990  Biso   1.000  H
  C97      1.0000 0.17160  0.89500  0.97050  Biso   1.000  C
  C98      1.0000 0.82840  0.89500  0.52950  Biso   1.000  C
  C99      1.0000 0.67160  0.39500  0.97050  Biso   1.000  C
  C100     1.0000 0.32840  0.39500  0.52950  Biso   1.000  C
  C101     1.0000 0.82840  0.10500  0.02950  Biso   1.000  C
  C102     1.0000 0.17160  0.10500  0.47050  Biso   1.000  C
  C103     1.0000 0.32840  0.60500  0.02950  Biso   1.000  C
  C104     1.0000 0.67160  0.60500  0.47050  Biso   1.000  C
  H153     1.0000 0.17890  0.79270  0.96640  Biso   1.000  H
  H154     1.0000 0.82110  0.79270  0.53360  Biso   1.000  H
  H155     1.0000 0.67890  0.29270  0.96640  Biso   1.000  H
  H156     1.0000 0.32110  0.29270  0.53360  Biso   1.000  H
  H157     1.0000 0.82110  0.20730  0.03360  Biso   1.000  H
  H158     1.0000 0.17890  0.20730  0.46640  Biso   1.000  H
  H159     1.0000 0.32110  0.70730  0.03360  Biso   1.000  H
  H160     1.0000 0.67890  0.70730  0.46640  Biso   1.000  H
  H161     1.0000 0.18600  0.91290  0.01690  Biso   1.000  H
  H162     1.0000 0.81400  0.91290  0.48310  Biso   1.000  H
  H163     1.0000 0.68600  0.41290  0.01690  Biso   1.000  H
  H164     1.0000 0.31400  0.41290  0.48310  Biso   1.000  H
  H165     1.0000 0.81400  0.08710  0.98310  Biso   1.000  H
  H166     1.0000 0.18600  0.08710  0.51690  Biso   1.000  H
  H167     1.0000 0.31400  0.58710  0.98310  Biso   1.000  H
  H168     1.0000 0.68600  0.58710  0.51690  Biso   1.000  H
  C105     1.0000 0.10220  0.92900  0.92330  Biso   1.000  C
  C106     1.0000 0.89780  0.92900  0.57670  Biso   1.000  C
  C107     1.0000 0.60220  0.42900  0.92330  Biso   1.000  C
  C108     1.0000 0.39780  0.42900  0.57670  Biso   1.000  C
  C109     1.0000 0.89780  0.07100  0.07670  Biso   1.000  C
  C110     1.0000 0.10220  0.07100  0.42330  Biso   1.000  C
  C111     1.0000 0.39780  0.57100  0.07670  Biso   1.000  C
  C112     1.0000 0.60220  0.57100  0.42330  Biso   1.000  C
  H169     1.0000 0.07840  0.88120  0.93860  Biso   1.000  H
  H170     1.0000 0.92160  0.88120  0.56140  Biso   1.000  H
  H171     1.0000 0.57840  0.38120  0.93860  Biso   1.000  H
  H172     1.0000 0.42160  0.38120  0.56140  Biso   1.000  H
  H173     1.0000 0.92160  0.11880  0.06140  Biso   1.000  H
  H174     1.0000 0.07840  0.11880  0.43860  Biso   1.000  H
  H175     1.0000 0.42160  0.61880  0.06140  Biso   1.000  H
  H176     1.0000 0.57840  0.61880  0.43860  Biso   1.000  H
  H177     1.0000 0.08590  0.89150  0.87840  Biso   1.000  H
  H178     1.0000 0.91410  0.89150  0.62160  Biso   1.000  H
  H179     1.0000 0.58590  0.39150  0.87840  Biso   1.000  H
  H180     1.0000 0.41410  0.39150  0.62160  Biso   1.000  H
  H181     1.0000 0.91410  0.10850  0.12160  Biso   1.000  H
  H182     1.0000 0.08590  0.10850  0.37840  Biso   1.000  H
  H183     1.0000 0.41410  0.60850  0.12160  Biso   1.000  H
  H184     1.0000 0.58590  0.60850  0.37840  Biso   1.000  H
  C113     1.0000 0.02650  0.12270  0.85540  Biso   1.000  C
  C114     1.0000 0.97350  0.12270  0.64460  Biso   1.000  C
  C115     1.0000 0.52650  0.62270  0.85540  Biso   1.000  C
  C116     1.0000 0.47350  0.62270  0.64460  Biso   1.000  C
  C117     1.0000 0.97350  0.87730  0.14460  Biso   1.000  C
  C118     1.0000 0.02650  0.87730  0.35540  Biso   1.000  C
  C119     1.0000 0.47350  0.37730  0.14460  Biso   1.000  C
  C120     1.0000 0.52650  0.37730  0.35540  Biso   1.000  C
  H185     1.0000 0.02580  0.08910  0.81720  Biso   1.000  H
  H186     1.0000 0.97420  0.08910  0.68280  Biso   1.000  H
  H187     1.0000 0.52580  0.58910  0.81720  Biso   1.000  H
  H188     1.0000 0.47420  0.58910  0.68280  Biso   1.000  H
  H189     1.0000 0.97420  0.91090  0.18280  Biso   1.000  H
  H190     1.0000 0.02580  0.91090  0.31720  Biso   1.000  H
  H191     1.0000 0.47420  0.41090  0.18280  Biso   1.000  H
  H192     1.0000 0.52580  0.41090  0.31720  Biso   1.000  H
  H193     1.0000 0.01890  0.22620  0.85160  Biso   1.000  H
  H194     1.0000 0.98110  0.22620  0.64840  Biso   1.000  H
  H195     1.0000 0.51890  0.72620  0.85160  Biso   1.000  H
  H196     1.0000 0.48110  0.72620  0.64840  Biso   1.000  H
  H197     1.0000 0.98110  0.77380  0.14840  Biso   1.000  H
  H198     1.0000 0.01890  0.77380  0.35160  Biso   1.000  H
  H199     1.0000 0.48110  0.27380  0.14840  Biso   1.000  H
  H200     1.0000 0.51890  0.27380  0.35160  Biso   1.000  H
  H201     1.0000 0.99300  0.07390  0.85580  Biso   1.000  H
  H202     1.0000 0.00700  0.07390  0.64420  Biso   1.000  H
  H203     1.0000 0.49300  0.57390  0.85580  Biso   1.000  H
  H204     1.0000 0.50700  0.57390  0.64420  Biso   1.000  H
  H205     1.0000 0.00700  0.92610  0.14420  Biso   1.000  H
  H206     1.0000 0.99300  0.92610  0.35580  Biso   1.000  H
  H207     1.0000 0.50700  0.42610  0.14420  Biso   1.000  H
  H208     1.0000 0.49300  0.42610  0.35580  Biso   1.000  H
  C121     1.0000 0.08970  0.14150  0.97520  Biso   1.000  C
  C122     1.0000 0.91030  0.14150  0.52480  Biso   1.000  C
  C123     1.0000 0.58970  0.64150  0.97520  Biso   1.000  C
  C124     1.0000 0.41030  0.64150  0.52480  Biso   1.000  C
  C125     1.0000 0.91030  0.85850  0.02480  Biso   1.000  C
  C126     1.0000 0.08970  0.85850  0.47520  Biso   1.000  C
  C127     1.0000 0.41030  0.35850  0.02480  Biso   1.000  C
  C128     1.0000 0.58970  0.35850  0.47520  Biso   1.000  C
  H209     1.0000 0.13110  0.12090  0.01730  Biso   1.000  H
  H210     1.0000 0.86890  0.12090  0.48270  Biso   1.000  H
  H211     1.0000 0.63110  0.62090  0.01730  Biso   1.000  H
  H212     1.0000 0.36890  0.62090  0.48270  Biso   1.000  H
  H213     1.0000 0.86890  0.87910  0.98270  Biso   1.000  H
  H214     1.0000 0.13110  0.87910  0.51730  Biso   1.000  H
  H215     1.0000 0.36890  0.37910  0.98270  Biso   1.000  H
  H216     1.0000 0.63110  0.37910  0.51730  Biso   1.000  H
  H217     1.0000 0.05560  0.09240  0.97450  Biso   1.000  H
  H218     1.0000 0.94440  0.09240  0.52550  Biso   1.000  H
  H219     1.0000 0.55560  0.59240  0.97450  Biso   1.000  H
  H220     1.0000 0.44440  0.59240  0.52550  Biso   1.000  H
  H221     1.0000 0.94440  0.90760  0.02550  Biso   1.000  H
  H222     1.0000 0.05560  0.90760  0.47450  Biso   1.000  H
  H223     1.0000 0.44440  0.40760  0.02550  Biso   1.000  H
  H224     1.0000 0.55560  0.40760  0.47450  Biso   1.000  H
  H225     1.0000 0.08190  0.24490  0.97100  Biso   1.000  H
  H226     1.0000 0.91810  0.24490  0.52900  Biso   1.000  H
  H227     1.0000 0.58190  0.74490  0.97100  Biso   1.000  H
  H228     1.0000 0.41810  0.74490  0.52900  Biso   1.000  H
  H229     1.0000 0.91810  0.75510  0.02900  Biso   1.000  H
  H230     1.0000 0.08190  0.75510  0.47100  Biso   1.000  H
  H231     1.0000 0.41810  0.25510  0.02900  Biso   1.000  H
  H232     1.0000 0.58190  0.25510  0.47100  Biso   1.000  H
