data_image0
_cell_length_a       11.82
_cell_length_b       9.219
_cell_length_c       23.002
_cell_angle_alpha    90
_cell_angle_beta     99.9
_cell_angle_gamma    90

_symmetry_space_group_name_H-M    "P 1"
_symmetry_int_tables_number       1

loop_
  _symmetry_equiv_pos_as_xyz
  'x, y, z'

loop_
  _atom_site_label
  _atom_site_occupancy
  _atom_site_fract_x
  _atom_site_fract_y
  _atom_site_fract_z
  _atom_site_thermal_displace_type
  _atom_site_B_iso_or_equiv
  _atom_site_type_symbol
  Cu1      1.0000 0.01436  0.02323  0.68208  Biso   1.000  Cu
  Cu2      1.0000 0.48564  0.52323  0.81792  Biso   1.000  Cu
  Cu3      1.0000 0.98564  0.97677  0.31792  Biso   1.000  Cu
  Cu4      1.0000 0.51436  0.47677  0.18208  Biso   1.000  Cu
  Cu5      1.0000 0.89829  0.55640  0.54725  Biso   1.000  Cu
  Cu6      1.0000 0.60171  0.05640  0.95275  Biso   1.000  Cu
  Cu7      1.0000 0.10171  0.44360  0.45275  Biso   1.000  Cu
  Cu8      1.0000 0.39829  0.94360  0.04725  Biso   1.000  Cu
  O1       1.0000 0.09640  0.90580  0.63634  Biso   1.000  O
  O2       1.0000 0.40360  0.40580  0.86366  Biso   1.000  O
  O3       1.0000 0.90360  0.09420  0.36366  Biso   1.000  O
  O4       1.0000 0.59640  0.59420  0.13634  Biso   1.000  O
  N1       1.0000 0.06000  0.48400  0.56340  Biso   1.000  N
  N2       1.0000 0.44000  0.98400  0.93660  Biso   1.000  N
  N3       1.0000 0.94000  0.51600  0.43660  Biso   1.000  N
  N4       1.0000 0.56000  0.01600  0.06340  Biso   1.000  N
  N5       1.0000 0.12220  0.49720  0.61005  Biso   1.000  N
  N6       1.0000 0.37780  0.99720  0.88995  Biso   1.000  N
  N7       1.0000 0.87780  0.50280  0.38995  Biso   1.000  N
  N8       1.0000 0.62220  0.00280  0.11005  Biso   1.000  N
  C1       1.0000 0.20120  0.92800  0.62502  Biso   1.000  C
  C2       1.0000 0.29880  0.42800  0.87498  Biso   1.000  C
  C3       1.0000 0.79880  0.07200  0.37498  Biso   1.000  C
  C4       1.0000 0.70120  0.57200  0.12502  Biso   1.000  C
  C5       1.0000 0.24840  0.14140  0.69560  Biso   1.000  C
  C6       1.0000 0.25160  0.64140  0.80440  Biso   1.000  C
  C7       1.0000 0.75160  0.85860  0.30440  Biso   1.000  C
  C8       1.0000 0.74840  0.35860  0.19560  Biso   1.000  C
  N9       1.0000 0.14570  0.15350  0.70641  Biso   1.000  N
  N10      1.0000 0.35430  0.65350  0.79359  Biso   1.000  N
  N11      1.0000 0.85430  0.84650  0.29359  Biso   1.000  N
  N12      1.0000 0.64570  0.34650  0.20641  Biso   1.000  N
  C9       1.0000 0.27700  0.03900  0.65160  Biso   1.000  C
  C10      1.0000 0.22300  0.53900  0.84840  Biso   1.000  C
  C11      1.0000 0.72300  0.96100  0.34840  Biso   1.000  C
  C12      1.0000 0.77700  0.46100  0.15160  Biso   1.000  C
  N13      1.0000 0.94990  0.75800  0.53185  Biso   1.000  N
  N14      1.0000 0.55010  0.25800  0.96815  Biso   1.000  N
  N15      1.0000 0.05010  0.24200  0.46815  Biso   1.000  N
  N16      1.0000 0.44990  0.74200  0.03185  Biso   1.000  N
  H1       1.0000 0.98330  0.79880  0.56610  Biso   1.000  H
  H2       1.0000 0.51670  0.29880  0.93390  Biso   1.000  H
  H3       1.0000 0.01670  0.20120  0.43390  Biso   1.000  H
  H4       1.0000 0.48330  0.70120  0.06610  Biso   1.000  H
  H5       1.0000 0.00240  0.75410  0.50780  Biso   1.000  H
  H6       1.0000 0.49760  0.25410  0.99220  Biso   1.000  H
  H7       1.0000 0.99760  0.24590  0.49220  Biso   1.000  H
  H8       1.0000 0.50240  0.74590  0.00780  Biso   1.000  H
  N17      1.0000 0.87680  0.26090  0.57625  Biso   1.000  N
  N18      1.0000 0.62320  0.76090  0.92375  Biso   1.000  N
  N19      1.0000 0.12320  0.73910  0.42375  Biso   1.000  N
  N20      1.0000 0.37680  0.23910  0.07625  Biso   1.000  N
  N21      1.0000 0.90530  0.74670  0.67121  Biso   1.000  N
  N22      1.0000 0.59470  0.24670  0.82879  Biso   1.000  N
  N23      1.0000 0.09470  0.25330  0.32879  Biso   1.000  N
  N24      1.0000 0.40530  0.75330  0.17121  Biso   1.000  N
  N25      1.0000 0.93760  0.14330  0.73980  Biso   1.000  N
  N26      1.0000 0.56240  0.64330  0.76020  Biso   1.000  N
  N27      1.0000 0.06240  0.85670  0.26020  Biso   1.000  N
  N28      1.0000 0.43760  0.35670  0.23980  Biso   1.000  N
  N29      1.0000 0.73380  0.64050  0.52253  Biso   1.000  N
  N30      1.0000 0.76620  0.14050  0.97747  Biso   1.000  N
  N31      1.0000 0.26620  0.35950  0.47747  Biso   1.000  N
  N32      1.0000 0.23380  0.85950  0.02253  Biso   1.000  N
  C13      1.0000 0.38580  0.04900  0.63400  Biso   1.000  C
  C14      1.0000 0.11420  0.54900  0.86600  Biso   1.000  C
  C15      1.0000 0.61420  0.95100  0.36600  Biso   1.000  C
  C16      1.0000 0.88580  0.45100  0.13400  Biso   1.000  C
  H9       1.0000 0.43590  0.12150  0.65060  Biso   1.000  H
  H10      1.0000 0.06410  0.62150  0.84940  Biso   1.000  H
  H11      1.0000 0.56410  0.87850  0.34940  Biso   1.000  H
  H12      1.0000 0.93590  0.37850  0.15060  Biso   1.000  H
  C17      1.0000 0.12210  0.26570  0.74930  Biso   1.000  C
  C18      1.0000 0.37790  0.76570  0.75070  Biso   1.000  C
  C19      1.0000 0.87790  0.73430  0.25070  Biso   1.000  C
  C20      1.0000 0.62210  0.23430  0.24930  Biso   1.000  C
  H13      1.0000 0.15910  0.35630  0.74210  Biso   1.000  H
  H14      1.0000 0.34090  0.85630  0.75790  Biso   1.000  H
  H15      1.0000 0.84090  0.64370  0.25790  Biso   1.000  H
  H16      1.0000 0.65910  0.14370  0.24210  Biso   1.000  H
  H17      1.0000 0.15160  0.23450  0.78930  Biso   1.000  H
  H18      1.0000 0.34840  0.73450  0.71070  Biso   1.000  H
  H19      1.0000 0.84840  0.76550  0.21070  Biso   1.000  H
  H20      1.0000 0.65160  0.26550  0.28930  Biso   1.000  H
  C21      1.0000 0.42030  0.95950  0.59460  Biso   1.000  C
  C22      1.0000 0.07970  0.45950  0.90540  Biso   1.000  C
  C23      1.0000 0.57970  0.04050  0.40540  Biso   1.000  C
  C24      1.0000 0.92030  0.54050  0.09460  Biso   1.000  C
  C25      1.0000 0.24150  0.83420  0.58540  Biso   1.000  C
  C26      1.0000 0.25850  0.33420  0.91460  Biso   1.000  C
  C27      1.0000 0.75850  0.16580  0.41460  Biso   1.000  C
  C28      1.0000 0.74150  0.66580  0.08540  Biso   1.000  C
  H21      1.0000 0.19420  0.75860  0.56930  Biso   1.000  H
  H22      1.0000 0.30580  0.25860  0.93070  Biso   1.000  H
  H23      1.0000 0.80580  0.24140  0.43070  Biso   1.000  H
  H24      1.0000 0.69420  0.74140  0.06930  Biso   1.000  H
  O5       1.0000 0.52390  0.96470  0.57400  Biso   1.000  O
  O6       1.0000 0.97610  0.46470  0.92600  Biso   1.000  O
  O7       1.0000 0.47610  0.03530  0.42600  Biso   1.000  O
  O8       1.0000 0.02390  0.53530  0.07400  Biso   1.000  O
  N33      1.0000 0.82790  0.36320  0.55440  Biso   1.000  N
  N34      1.0000 0.67210  0.86320  0.94560  Biso   1.000  N
  N35      1.0000 0.17210  0.63680  0.44560  Biso   1.000  N
  N36      1.0000 0.32790  0.13680  0.05440  Biso   1.000  N
  N37      1.0000 0.91160  0.62480  0.65900  Biso   1.000  N
  N38      1.0000 0.58840  0.12480  0.84100  Biso   1.000  N
  N39      1.0000 0.08840  0.37520  0.34100  Biso   1.000  N
  N40      1.0000 0.41160  0.87520  0.15900  Biso   1.000  N
  N41      1.0000 0.89430  0.87140  0.68210  Biso   1.000  N
  N42      1.0000 0.60570  0.37140  0.81790  Biso   1.000  N
  N43      1.0000 0.10570  0.12860  0.31790  Biso   1.000  N
  N44      1.0000 0.39430  0.62860  0.18210  Biso   1.000  N
  C29      1.0000 0.34630  0.84790  0.56930  Biso   1.000  C
  C30      1.0000 0.15370  0.34790  0.93070  Biso   1.000  C
  C31      1.0000 0.65370  0.15210  0.43070  Biso   1.000  C
  C32      1.0000 0.84630  0.65210  0.06930  Biso   1.000  C
  H25      1.0000 0.36890  0.78470  0.54190  Biso   1.000  H
  H26      1.0000 0.13110  0.28470  0.95810  Biso   1.000  H
  H27      1.0000 0.63110  0.21530  0.45810  Biso   1.000  H
  H28      1.0000 0.86890  0.71530  0.04190  Biso   1.000  H
  C33      1.0000 0.75270  0.80170  0.52280  Biso   1.000  C
  C34      1.0000 0.74730  0.30170  0.97720  Biso   1.000  C
  C35      1.0000 0.24730  0.19830  0.47720  Biso   1.000  C
  C36      1.0000 0.25270  0.69830  0.02280  Biso   1.000  C
  H29      1.0000 0.68830  0.84630  0.49730  Biso   1.000  H
  H30      1.0000 0.81170  0.34630  0.00270  Biso   1.000  H
  H31      1.0000 0.31170  0.15370  0.50270  Biso   1.000  H
  H32      1.0000 0.18830  0.65370  0.99730  Biso   1.000  H
  H33      1.0000 0.75300  0.83740  0.56250  Biso   1.000  H
  H34      1.0000 0.74700  0.33740  0.93750  Biso   1.000  H
  H35      1.0000 0.24700  0.16260  0.43750  Biso   1.000  H
  H36      1.0000 0.25300  0.66260  0.06250  Biso   1.000  H
  C37      1.0000 0.85310  0.84620  0.50480  Biso   1.000  C
  C38      1.0000 0.64690  0.34620  0.99520  Biso   1.000  C
  C39      1.0000 0.14690  0.15380  0.49520  Biso   1.000  C
  C40      1.0000 0.35310  0.65380  0.00480  Biso   1.000  C
  H37      1.0000 0.86790  0.94700  0.51570  Biso   1.000  H
  H38      1.0000 0.63210  0.44700  0.98430  Biso   1.000  H
  H39      1.0000 0.13210  0.05300  0.48430  Biso   1.000  H
  H40      1.0000 0.36790  0.55300  0.01570  Biso   1.000  H
  H41      1.0000 0.84440  0.83890  0.46220  Biso   1.000  H
  H42      1.0000 0.65560  0.33890  0.03780  Biso   1.000  H
  H43      1.0000 0.15560  0.16110  0.53780  Biso   1.000  H
  H44      1.0000 0.34440  0.66110  0.96220  Biso   1.000  H
  C41      1.0000 0.34390  0.23330  0.72920  Biso   1.000  C
  C42      1.0000 0.15610  0.73330  0.77080  Biso   1.000  C
  C43      1.0000 0.65610  0.76670  0.27080  Biso   1.000  C
  C44      1.0000 0.84390  0.26670  0.22920  Biso   1.000  C
  H45      1.0000 0.31340  0.29500  0.75640  Biso   1.000  H
  H46      1.0000 0.18660  0.79500  0.74360  Biso   1.000  H
  H47      1.0000 0.68660  0.70500  0.24360  Biso   1.000  H
  H48      1.0000 0.81340  0.20500  0.25640  Biso   1.000  H
  H49      1.0000 0.37710  0.29180  0.70200  Biso   1.000  H
  H50      1.0000 0.12290  0.79180  0.79800  Biso   1.000  H
  H51      1.0000 0.62290  0.70820  0.29800  Biso   1.000  H
  H52      1.0000 0.87710  0.20820  0.20200  Biso   1.000  H
  H53      1.0000 0.40190  0.17140  0.75060  Biso   1.000  H
  H54      1.0000 0.09810  0.67140  0.74940  Biso   1.000  H
  H55      1.0000 0.59810  0.82860  0.24940  Biso   1.000  H
  H56      1.0000 0.90190  0.32860  0.25060  Biso   1.000  H
  N45      1.0000 0.92130  0.15600  0.59450  Biso   1.000  N
  N46      1.0000 0.57870  0.65600  0.90550  Biso   1.000  N
  N47      1.0000 0.07870  0.84400  0.40550  Biso   1.000  N
  N48      1.0000 0.42130  0.34400  0.09450  Biso   1.000  N
  C45      1.0000 0.99570  0.28550  0.74110  Biso   1.000  C
  C46      1.0000 0.50430  0.78550  0.75890  Biso   1.000  C
  C47      1.0000 0.00430  0.71450  0.25890  Biso   1.000  C
  C48      1.0000 0.49570  0.21450  0.24110  Biso   1.000  C
  H57      1.0000 0.97640  0.34360  0.77320  Biso   1.000  H
  H58      1.0000 0.52360  0.84360  0.72680  Biso   1.000  H
  H59      1.0000 0.02360  0.65640  0.22680  Biso   1.000  H
  H60      1.0000 0.47640  0.15640  0.27320  Biso   1.000  H
  H61      1.0000 0.96940  0.33670  0.70440  Biso   1.000  H
  H62      1.0000 0.53060  0.83670  0.79560  Biso   1.000  H
  H63      1.0000 0.03060  0.66330  0.29560  Biso   1.000  H
  H64      1.0000 0.46940  0.16330  0.20440  Biso   1.000  H
  C49      1.0000 0.68010  0.59080  0.46430  Biso   1.000  C
  C50      1.0000 0.81990  0.09080  0.03570  Biso   1.000  C
  C51      1.0000 0.31990  0.40920  0.53570  Biso   1.000  C
  C52      1.0000 0.18010  0.90920  0.96430  Biso   1.000  C
  H65      1.0000 0.72990  0.61080  0.43640  Biso   1.000  H
  H66      1.0000 0.77010  0.11080  0.06360  Biso   1.000  H
  H67      1.0000 0.27010  0.38920  0.56360  Biso   1.000  H
  H68      1.0000 0.22990  0.88920  0.93640  Biso   1.000  H
  H69      1.0000 0.60840  0.64040  0.45260  Biso   1.000  H
  H70      1.0000 0.89160  0.14040  0.04740  Biso   1.000  H
  H71      1.0000 0.39160  0.35960  0.54740  Biso   1.000  H
  H72      1.0000 0.10840  0.85960  0.95260  Biso   1.000  H
  H73      1.0000 0.66650  0.48820  0.46550  Biso   1.000  H
  H74      1.0000 0.83350  0.98820  0.03450  Biso   1.000  H
  H75      1.0000 0.33350  0.51180  0.53450  Biso   1.000  H
  H76      1.0000 0.16650  0.01180  0.96550  Biso   1.000  H
  C53      1.0000 0.96660  0.07240  0.79850  Biso   1.000  C
  C54      1.0000 0.53340  0.57240  0.70150  Biso   1.000  C
  C55      1.0000 0.03340  0.92760  0.20150  Biso   1.000  C
  C56      1.0000 0.46660  0.42760  0.29850  Biso   1.000  C
  H77      1.0000 0.92990  0.97930  0.79720  Biso   1.000  H
  H78      1.0000 0.57010  0.47930  0.70280  Biso   1.000  H
  H79      1.0000 0.07010  0.02070  0.20280  Biso   1.000  H
  H80      1.0000 0.42990  0.52070  0.29720  Biso   1.000  H
  H81      1.0000 0.94030  0.13190  0.82770  Biso   1.000  H
  H82      1.0000 0.55970  0.63190  0.67230  Biso   1.000  H
  H83      1.0000 0.05970  0.86810  0.17230  Biso   1.000  H
  H84      1.0000 0.44030  0.36810  0.32770  Biso   1.000  H
  H85      1.0000 0.04830  0.06020  0.80840  Biso   1.000  H
  H86      1.0000 0.45170  0.56020  0.69160  Biso   1.000  H
  H87      1.0000 0.95170  0.93980  0.19160  Biso   1.000  H
  H88      1.0000 0.54830  0.43980  0.30840  Biso   1.000  H
  C57      1.0000 0.65990  0.61280  0.56700  Biso   1.000  C
  C58      1.0000 0.84010  0.11280  0.93300  Biso   1.000  C
  C59      1.0000 0.34010  0.38720  0.43300  Biso   1.000  C
  C60      1.0000 0.15990  0.88720  0.06700  Biso   1.000  C
  H89      1.0000 0.69750  0.64720  0.60480  Biso   1.000  H
  H90      1.0000 0.80250  0.14720  0.89520  Biso   1.000  H
  H91      1.0000 0.30250  0.35280  0.39520  Biso   1.000  H
  H92      1.0000 0.19750  0.85280  0.10480  Biso   1.000  H
  H93      1.0000 0.64600  0.51050  0.56930  Biso   1.000  H
  H94      1.0000 0.85400  0.01050  0.93070  Biso   1.000  H
  H95      1.0000 0.35400  0.48950  0.43070  Biso   1.000  H
  H96      1.0000 0.14600  0.98950  0.06930  Biso   1.000  H
  H97      1.0000 0.58810  0.66270  0.55590  Biso   1.000  H
  H98      1.0000 0.91190  0.16270  0.94410  Biso   1.000  H
  H99      1.0000 0.41190  0.33730  0.44410  Biso   1.000  H
  H100     1.0000 0.08810  0.83730  0.05590  Biso   1.000  H
  C61      1.0000 0.81140  0.16180  0.72340  Biso   1.000  C
  C62      1.0000 0.68860  0.66180  0.77660  Biso   1.000  C
  C63      1.0000 0.18860  0.83820  0.27660  Biso   1.000  C
  C64      1.0000 0.31140  0.33820  0.22340  Biso   1.000  C
  H101     1.0000 0.77460  0.06880  0.72300  Biso   1.000  H
  H102     1.0000 0.72540  0.56880  0.77700  Biso   1.000  H
  H103     1.0000 0.22540  0.93120  0.27700  Biso   1.000  H
  H104     1.0000 0.27460  0.43120  0.22300  Biso   1.000  H
  H105     1.0000 0.79350  0.20500  0.68500  Biso   1.000  H
  H106     1.0000 0.70650  0.70500  0.81500  Biso   1.000  H
  H107     1.0000 0.20650  0.79500  0.31500  Biso   1.000  H
  H108     1.0000 0.29350  0.29500  0.18500  Biso   1.000  H
  H109     1.0000 0.78430  0.22350  0.75170  Biso   1.000  H
  H110     1.0000 0.71570  0.72350  0.74830  Biso   1.000  H
  H111     1.0000 0.21570  0.77650  0.24830  Biso   1.000  H
  H112     1.0000 0.28430  0.27650  0.25170  Biso   1.000  H
  C65      1.0000 0.59540  0.07980  0.59110  Biso   1.000  C
  C66      1.0000 0.90460  0.57980  0.90890  Biso   1.000  C
  C67      1.0000 0.40460  0.92020  0.40890  Biso   1.000  C
  C68      1.0000 0.09540  0.42020  0.09110  Biso   1.000  C
  H113     1.0000 0.66430  0.06960  0.57470  Biso   1.000  H
  H114     1.0000 0.83570  0.56960  0.92530  Biso   1.000  H
  H115     1.0000 0.33570  0.93040  0.42530  Biso   1.000  H
  H116     1.0000 0.16430  0.43040  0.07470  Biso   1.000  H
  H117     1.0000 0.61450  0.08210  0.63340  Biso   1.000  H
  H118     1.0000 0.88550  0.58210  0.86660  Biso   1.000  H
  H119     1.0000 0.38550  0.91790  0.36660  Biso   1.000  H
  H120     1.0000 0.11450  0.41790  0.13340  Biso   1.000  H
  H121     1.0000 0.55730  0.16840  0.57730  Biso   1.000  H
  H122     1.0000 0.94270  0.66840  0.92270  Biso   1.000  H
  H123     1.0000 0.44270  0.83160  0.42270  Biso   1.000  H
  H124     1.0000 0.05730  0.33160  0.07730  Biso   1.000  H
  N49      1.0000 0.18750  0.50800  0.65280  Biso   1.000  N
  N50      1.0000 0.31250  0.00800  0.84720  Biso   1.000  N
  N51      1.0000 0.81250  0.49200  0.34720  Biso   1.000  N
  N52      1.0000 0.68750  0.99200  0.15280  Biso   1.000  N
