data_image0
_cell_length_a       9.6756
_cell_length_b       17.4411
_cell_length_c       13.3238
_cell_angle_alpha    90
_cell_angle_beta     90.353
_cell_angle_gamma    90

_symmetry_space_group_name_H-M    "P 1"
_symmetry_int_tables_number       1

loop_
  _symmetry_equiv_pos_as_xyz
  'x, y, z'

loop_
  _atom_site_label
  _atom_site_occupancy
  _atom_site_fract_x
  _atom_site_fract_y
  _atom_site_fract_z
  _atom_site_thermal_displace_type
  _atom_site_B_iso_or_equiv
  _atom_site_type_symbol
  Cu1      1.0000 0.86950  0.10547  0.26862  Biso   1.000  Cu
  Cu2      1.0000 0.63050  0.60547  0.23138  Biso   1.000  Cu
  Cu3      1.0000 0.13050  0.89453  0.73138  Biso   1.000  Cu
  Cu4      1.0000 0.36950  0.39453  0.76862  Biso   1.000  Cu
  N1       1.0000 0.87551  0.09338  0.11821  Biso   1.000  N
  N2       1.0000 0.62449  0.59338  0.38179  Biso   1.000  N
  N3       1.0000 0.12449  0.90662  0.88179  Biso   1.000  N
  N4       1.0000 0.37551  0.40662  0.61821  Biso   1.000  N
  H1       1.0000 0.96610  0.08530  0.10060  Biso   1.000  H
  H2       1.0000 0.53390  0.58530  0.39940  Biso   1.000  H
  H3       1.0000 0.03390  0.91470  0.89940  Biso   1.000  H
  H4       1.0000 0.46610  0.41470  0.60060  Biso   1.000  H
  H5       1.0000 0.82740  0.04960  0.10190  Biso   1.000  H
  H6       1.0000 0.67260  0.54960  0.39810  Biso   1.000  H
  H7       1.0000 0.17260  0.95040  0.89810  Biso   1.000  H
  H8       1.0000 0.32740  0.45040  0.60190  Biso   1.000  H
  N5       1.0000 0.48412  0.51592  0.22988  Biso   1.000  N
  N6       1.0000 0.01588  0.01592  0.27012  Biso   1.000  N
  N7       1.0000 0.51588  0.48408  0.77012  Biso   1.000  N
  N8       1.0000 0.98412  0.98408  0.72988  Biso   1.000  N
  N9       1.0000 0.87056  0.09397  0.41815  Biso   1.000  N
  N10      1.0000 0.62944  0.59397  0.08185  Biso   1.000  N
  N11      1.0000 0.12944  0.90603  0.58185  Biso   1.000  N
  N12      1.0000 0.37056  0.40603  0.91815  Biso   1.000  N
  H9       1.0000 0.83420  0.04650  0.43250  Biso   1.000  H
  H10      1.0000 0.66580  0.54650  0.06750  Biso   1.000  H
  H11      1.0000 0.16580  0.95350  0.56750  Biso   1.000  H
  H12      1.0000 0.33420  0.45350  0.93250  Biso   1.000  H
  H13      1.0000 0.96150  0.09310  0.43870  Biso   1.000  H
  H14      1.0000 0.53850  0.59310  0.06130  Biso   1.000  H
  H15      1.0000 0.03850  0.90690  0.56130  Biso   1.000  H
  H16      1.0000 0.46150  0.40690  0.93870  Biso   1.000  H
  N13      1.0000 0.66347  0.14382  0.26385  Biso   1.000  N
  N14      1.0000 0.83653  0.64382  0.23615  Biso   1.000  N
  N15      1.0000 0.33653  0.85618  0.73615  Biso   1.000  N
  N16      1.0000 0.16347  0.35618  0.76385  Biso   1.000  N
  C1       1.0000 0.61600  0.18849  0.35384  Biso   1.000  C
  C2       1.0000 0.88400  0.68849  0.14616  Biso   1.000  C
  C3       1.0000 0.38400  0.81151  0.64616  Biso   1.000  C
  C4       1.0000 0.11600  0.31151  0.85384  Biso   1.000  C
  H17      1.0000 0.51500  0.19630  0.34760  Biso   1.000  H
  H18      1.0000 0.98500  0.69630  0.15240  Biso   1.000  H
  H19      1.0000 0.48500  0.80370  0.65240  Biso   1.000  H
  H20      1.0000 0.01500  0.30370  0.84760  Biso   1.000  H
  H21      1.0000 0.66000  0.23970  0.35160  Biso   1.000  H
  H22      1.0000 0.84000  0.73970  0.14840  Biso   1.000  H
  H23      1.0000 0.34000  0.76030  0.64840  Biso   1.000  H
  H24      1.0000 0.16000  0.26030  0.85160  Biso   1.000  H
  C5       1.0000 0.63410  0.19606  0.17659  Biso   1.000  C
  C6       1.0000 0.86590  0.69606  0.32341  Biso   1.000  C
  C7       1.0000 0.36590  0.80394  0.82341  Biso   1.000  C
  C8       1.0000 0.13410  0.30394  0.67659  Biso   1.000  C
  H25      1.0000 0.68580  0.24430  0.18760  Biso   1.000  H
  H26      1.0000 0.81420  0.74430  0.31240  Biso   1.000  H
  H27      1.0000 0.31420  0.75570  0.81240  Biso   1.000  H
  H28      1.0000 0.18580  0.25570  0.68760  Biso   1.000  H
  H29      1.0000 0.53450  0.20900  0.17750  Biso   1.000  H
  H30      1.0000 0.96550  0.70900  0.32250  Biso   1.000  H
  H31      1.0000 0.46550  0.79100  0.82250  Biso   1.000  H
  H32      1.0000 0.03450  0.29100  0.67750  Biso   1.000  H
  C9       1.0000 0.82120  0.15632  0.05477  Biso   1.000  C
  C10      1.0000 0.67880  0.65632  0.44523  Biso   1.000  C
  C11      1.0000 0.17880  0.84368  0.94523  Biso   1.000  C
  C12      1.0000 0.32120  0.34368  0.55477  Biso   1.000  C
  H33      1.0000 0.83730  0.14430  0.98320  Biso   1.000  H
  H34      1.0000 0.66270  0.64430  0.51680  Biso   1.000  H
  H35      1.0000 0.16270  0.85570  0.01680  Biso   1.000  H
  H36      1.0000 0.33730  0.35570  0.48320  Biso   1.000  H
  H37      1.0000 0.87050  0.20450  0.07100  Biso   1.000  H
  H38      1.0000 0.62950  0.70450  0.42900  Biso   1.000  H
  H39      1.0000 0.12950  0.79550  0.92900  Biso   1.000  H
  H40      1.0000 0.37050  0.29550  0.57100  Biso   1.000  H
  C13      1.0000 0.35270  0.52438  0.19889  Biso   1.000  C
  C14      1.0000 0.14730  0.02438  0.30111  Biso   1.000  C
  C15      1.0000 0.64730  0.47562  0.80111  Biso   1.000  C
  C16      1.0000 0.85270  0.97562  0.69889  Biso   1.000  C
  H41      1.0000 0.32590  0.57180  0.16950  Biso   1.000  H
  H42      1.0000 0.17410  0.07180  0.33050  Biso   1.000  H
  H43      1.0000 0.67410  0.42820  0.83050  Biso   1.000  H
  H44      1.0000 0.82590  0.92820  0.66950  Biso   1.000  H
  C17      1.0000 0.79790  0.15049  0.48187  Biso   1.000  C
  C18      1.0000 0.70210  0.65049  0.01813  Biso   1.000  C
  C19      1.0000 0.20210  0.84951  0.51813  Biso   1.000  C
  C20      1.0000 0.29790  0.34951  0.98187  Biso   1.000  C
  H45      1.0000 0.83940  0.20180  0.47210  Biso   1.000  H
  H46      1.0000 0.66060  0.70180  0.02790  Biso   1.000  H
  H47      1.0000 0.16060  0.79820  0.52790  Biso   1.000  H
  H48      1.0000 0.33940  0.29820  0.97210  Biso   1.000  H
  H49      1.0000 0.80950  0.13620  0.55330  Biso   1.000  H
  H50      1.0000 0.69050  0.63620  0.94670  Biso   1.000  H
  H51      1.0000 0.19050  0.86380  0.44670  Biso   1.000  H
  H52      1.0000 0.30950  0.36380  0.05330  Biso   1.000  H
  C21      1.0000 0.52110  0.44748  0.26798  Biso   1.000  C
  C22      1.0000 0.97890  0.94748  0.23202  Biso   1.000  C
  C23      1.0000 0.47890  0.55252  0.73202  Biso   1.000  C
  C24      1.0000 0.02110  0.05252  0.76798  Biso   1.000  C
  H53      1.0000 0.61430  0.44020  0.28870  Biso   1.000  H
  H54      1.0000 0.88570  0.94020  0.21130  Biso   1.000  H
  H55      1.0000 0.38570  0.55980  0.71130  Biso   1.000  H
  H56      1.0000 0.11430  0.05980  0.78870  Biso   1.000  H
  C25      1.0000 0.66880  0.16664  0.07231  Biso   1.000  C
  C26      1.0000 0.83120  0.66664  0.42769  Biso   1.000  C
  C27      1.0000 0.33120  0.83336  0.92769  Biso   1.000  C
  C28      1.0000 0.16880  0.33336  0.57231  Biso   1.000  C
  H57      1.0000 0.62180  0.11680  0.06180  Biso   1.000  H
  H58      1.0000 0.87820  0.61680  0.43820  Biso   1.000  H
  H59      1.0000 0.37820  0.88320  0.93820  Biso   1.000  H
  H60      1.0000 0.12180  0.38320  0.56180  Biso   1.000  H
  H61      1.0000 0.63180  0.20310  0.02190  Biso   1.000  H
  H62      1.0000 0.86820  0.70310  0.47810  Biso   1.000  H
  H63      1.0000 0.36820  0.79690  0.97810  Biso   1.000  H
  H64      1.0000 0.13180  0.29690  0.52190  Biso   1.000  H
  C29      1.0000 0.64530  0.15365  0.45599  Biso   1.000  C
  C30      1.0000 0.85470  0.65365  0.04401  Biso   1.000  C
  C31      1.0000 0.35470  0.84635  0.54401  Biso   1.000  C
  C32      1.0000 0.14530  0.34635  0.95599  Biso   1.000  C
  H65      1.0000 0.59710  0.18410  0.50780  Biso   1.000  H
  H66      1.0000 0.90290  0.68410  0.99220  Biso   1.000  H
  H67      1.0000 0.40290  0.81590  0.49220  Biso   1.000  H
  H68      1.0000 0.09710  0.31590  0.00780  Biso   1.000  H
  H69      1.0000 0.60720  0.10100  0.45760  Biso   1.000  H
  H70      1.0000 0.89280  0.60100  0.04240  Biso   1.000  H
  H71      1.0000 0.39280  0.89900  0.54240  Biso   1.000  H
  H72      1.0000 0.10720  0.39900  0.95760  Biso   1.000  H
  N17      1.0000 0.00155  0.21189  0.26622  Biso   1.000  N
  N18      1.0000 0.49845  0.71189  0.23378  Biso   1.000  N
  N19      1.0000 0.99845  0.78811  0.73378  Biso   1.000  N
  N20      1.0000 0.50155  0.28811  0.76622  Biso   1.000  N
  C33      1.0000 0.29240  0.39704  0.24901  Biso   1.000  C
  C34      1.0000 0.20760  0.89704  0.25099  Biso   1.000  C
  C35      1.0000 0.70760  0.60296  0.75099  Biso   1.000  C
  C36      1.0000 0.79240  0.10296  0.74901  Biso   1.000  C
  C37      1.0000 0.42960  0.38740  0.27829  Biso   1.000  C
  C38      1.0000 0.07040  0.88740  0.22171  Biso   1.000  C
  C39      1.0000 0.57040  0.61260  0.72171  Biso   1.000  C
  C40      1.0000 0.92960  0.11260  0.77829  Biso   1.000  C
  H73      1.0000 0.46000  0.33980  0.30520  Biso   1.000  H
  H74      1.0000 0.04000  0.83980  0.19480  Biso   1.000  H
  H75      1.0000 0.54000  0.66020  0.69480  Biso   1.000  H
  H76      1.0000 0.96000  0.16020  0.80520  Biso   1.000  H
  C41      1.0000 0.12440  0.20420  0.22134  Biso   1.000  C
  C42      1.0000 0.37560  0.70420  0.27866  Biso   1.000  C
  C43      1.0000 0.87560  0.79580  0.77866  Biso   1.000  C
  C44      1.0000 0.62440  0.29580  0.72134  Biso   1.000  C
  H77      1.0000 0.14580  0.15620  0.19160  Biso   1.000  H
  H78      1.0000 0.35420  0.65620  0.30840  Biso   1.000  H
  H79      1.0000 0.85420  0.84380  0.80840  Biso   1.000  H
  H80      1.0000 0.64580  0.34380  0.69160  Biso   1.000  H
  C45      1.0000 0.19150  0.33344  0.25688  Biso   1.000  C
  C46      1.0000 0.30850  0.83344  0.24312  Biso   1.000  C
  C47      1.0000 0.80850  0.66656  0.74312  Biso   1.000  C
  C48      1.0000 0.69150  0.16656  0.75688  Biso   1.000  C
  C49      1.0000 0.06320  0.34258  0.30196  Biso   1.000  C
  C50      1.0000 0.43680  0.84258  0.19804  Biso   1.000  C
  C51      1.0000 0.93680  0.65742  0.69804  Biso   1.000  C
  C52      1.0000 0.56320  0.15742  0.80196  Biso   1.000  C
  H81      1.0000 0.03760  0.39060  0.32990  Biso   1.000  H
  H82      1.0000 0.46240  0.89060  0.17010  Biso   1.000  H
  H83      1.0000 0.96240  0.60940  0.67010  Biso   1.000  H
  H84      1.0000 0.53760  0.10940  0.82990  Biso   1.000  H
  C53      1.0000 0.25470  0.46724  0.20783  Biso   1.000  C
  C54      1.0000 0.24530  0.96724  0.29217  Biso   1.000  C
  C55      1.0000 0.74530  0.53276  0.79217  Biso   1.000  C
  C56      1.0000 0.75470  0.03276  0.70783  Biso   1.000  C
  H85      1.0000 0.16240  0.47590  0.18600  Biso   1.000  H
  H86      1.0000 0.33760  0.97590  0.31400  Biso   1.000  H
  H87      1.0000 0.83760  0.52410  0.81400  Biso   1.000  H
  H88      1.0000 0.66240  0.02410  0.68600  Biso   1.000  H
  C57      1.0000 0.22150  0.26177  0.21578  Biso   1.000  C
  C58      1.0000 0.27850  0.76177  0.28422  Biso   1.000  C
  C59      1.0000 0.77850  0.73823  0.78422  Biso   1.000  C
  C60      1.0000 0.72150  0.23823  0.71578  Biso   1.000  C
  H89      1.0000 0.30780  0.25280  0.18430  Biso   1.000  H
  H90      1.0000 0.19220  0.75280  0.31570  Biso   1.000  H
  H91      1.0000 0.69220  0.74720  0.81570  Biso   1.000  H
  H92      1.0000 0.80780  0.24720  0.68430  Biso   1.000  H
  C61      1.0000 0.97350  0.28113  0.30556  Biso   1.000  C
  C62      1.0000 0.52650  0.78113  0.19444  Biso   1.000  C
  C63      1.0000 0.02650  0.71887  0.69444  Biso   1.000  C
  C64      1.0000 0.47350  0.21887  0.80556  Biso   1.000  C
  H93      1.0000 0.88710  0.28810  0.33770  Biso   1.000  H
  H94      1.0000 0.61290  0.78810  0.16230  Biso   1.000  H
  H95      1.0000 0.11290  0.71190  0.66230  Biso   1.000  H
  H96      1.0000 0.38710  0.21190  0.83770  Biso   1.000  H
  C65      1.0000 0.57780  0.07353  0.25526  Biso   1.000  C
  C66      1.0000 0.92220  0.57353  0.24474  Biso   1.000  C
  C67      1.0000 0.42220  0.92647  0.74474  Biso   1.000  C
  C68      1.0000 0.07780  0.42647  0.75526  Biso   1.000  C
  H97      1.0000 0.47990  0.08780  0.25200  Biso   1.000  H
  H98      1.0000 0.02010  0.58780  0.24800  Biso   1.000  H
  H99      1.0000 0.52010  0.91220  0.74800  Biso   1.000  H
  H100     1.0000 0.97990  0.41220  0.75200  Biso   1.000  H
  H101     1.0000 0.59400  0.04080  0.31390  Biso   1.000  H
  H102     1.0000 0.90600  0.54080  0.18610  Biso   1.000  H
  H103     1.0000 0.40600  0.95920  0.68610  Biso   1.000  H
  H104     1.0000 0.09400  0.45920  0.81390  Biso   1.000  H
  H105     1.0000 0.60290  0.04560  0.19420  Biso   1.000  H
  H106     1.0000 0.89710  0.54560  0.30580  Biso   1.000  H
  H107     1.0000 0.39710  0.95440  0.80580  Biso   1.000  H
  H108     1.0000 0.10290  0.45440  0.69420  Biso   1.000  H
  Cl1      1.0000 0.26768  0.11242  0.53582  Biso   1.000  Cl
  Cl2      1.0000 0.23232  0.61242  0.96418  Biso   1.000  Cl
  Cl3      1.0000 0.73232  0.88758  0.46418  Biso   1.000  Cl
  Cl4      1.0000 0.76768  0.38758  0.03582  Biso   1.000  Cl
  O1       1.0000 0.28532  0.16332  0.45268  Biso   1.000  O
  O2       1.0000 0.21468  0.66332  0.04732  Biso   1.000  O
  O3       1.0000 0.71468  0.83668  0.54732  Biso   1.000  O
  O4       1.0000 0.78532  0.33668  0.95268  Biso   1.000  O
  O5       1.0000 0.12274  0.09898  0.55046  Biso   1.000  O
  O6       1.0000 0.37726  0.59898  0.94954  Biso   1.000  O
  O7       1.0000 0.87726  0.90102  0.44954  Biso   1.000  O
  O8       1.0000 0.62274  0.40102  0.05046  Biso   1.000  O
  O9       1.0000 0.32697  0.14431  0.62482  Biso   1.000  O
  O10      1.0000 0.17303  0.64431  0.87518  Biso   1.000  O
  O11      1.0000 0.67303  0.85569  0.37518  Biso   1.000  O
  O12      1.0000 0.82697  0.35569  0.12482  Biso   1.000  O
  O13      1.0000 0.33210  0.04014  0.51410  Biso   1.000  O
  O14      1.0000 0.16790  0.54014  0.98590  Biso   1.000  O
  O15      1.0000 0.66790  0.95986  0.48590  Biso   1.000  O
  O16      1.0000 0.83210  0.45986  0.01410  Biso   1.000  O
  Cl5      1.0000 0.24853  0.09281  0.00218  Biso   1.000  Cl
  Cl6      1.0000 0.25147  0.59281  0.49782  Biso   1.000  Cl
  Cl7      1.0000 0.75147  0.90719  0.99782  Biso   1.000  Cl
  Cl8      1.0000 0.74853  0.40719  0.50218  Biso   1.000  Cl
  O17      1.0000 0.34974  0.12779  0.06393  Biso   1.000  O
  O18      1.0000 0.15026  0.62779  0.43607  Biso   1.000  O
  O19      1.0000 0.65026  0.87221  0.93607  Biso   1.000  O
  O20      1.0000 0.84974  0.37221  0.56393  Biso   1.000  O
  O21      1.0000 0.17060  0.03774  0.05727  Biso   1.000  O
  O22      1.0000 0.32940  0.53774  0.44273  Biso   1.000  O
  O23      1.0000 0.82940  0.96226  0.94273  Biso   1.000  O
  O24      1.0000 0.67060  0.46226  0.55727  Biso   1.000  O
  O25      1.0000 0.31196  0.05517  0.91784  Biso   1.000  O
  O26      1.0000 0.18804  0.55517  0.58216  Biso   1.000  O
  O27      1.0000 0.68804  0.94483  0.08216  Biso   1.000  O
  O28      1.0000 0.81196  0.44483  0.41784  Biso   1.000  O
  O29      1.0000 0.15370  0.15016  0.96719  Biso   1.000  O
  O30      1.0000 0.34630  0.65016  0.53281  Biso   1.000  O
  O31      1.0000 0.84630  0.84984  0.03281  Biso   1.000  O
  O32      1.0000 0.65370  0.34984  0.46719  Biso   1.000  O
