data_image0
_cell_length_a       8.1011
_cell_length_b       9.1551
_cell_length_c       13.6071
_cell_angle_alpha    79.2
_cell_angle_beta     83.589
_cell_angle_gamma    78.661

_symmetry_space_group_name_H-M    "P 1"
_symmetry_int_tables_number       1

loop_
  _symmetry_equiv_pos_as_xyz
  'x, y, z'

loop_
  _atom_site_label
  _atom_site_occupancy
  _atom_site_fract_x
  _atom_site_fract_y
  _atom_site_fract_z
  _atom_site_thermal_displace_type
  _atom_site_B_iso_or_equiv
  _atom_site_type_symbol
  Mo1      1.0000 0.19880  0.38370  0.44800  Biso   1.000  Mo
  Mo2      1.0000 0.80120  0.61630  0.55200  Biso   1.000  Mo
  Mo3      1.0000 0.66350  0.31810  0.42440  Biso   1.000  Mo
  Mo4      1.0000 0.33650  0.68190  0.57560  Biso   1.000  Mo
  Cu1      1.0000 0.00000  0.00000  0.50000  Biso   1.000  Cu
  O1       1.0000 0.19180  0.46990  0.32610  Biso   1.000  O
  O2       1.0000 0.80820  0.53010  0.67390  Biso   1.000  O
  O3       1.0000 0.00000  0.50000  0.50000  Biso   1.000  O
  O4       1.0000 0.44460  0.29450  0.43170  Biso   1.000  O
  O5       1.0000 0.55540  0.70550  0.56830  Biso   1.000  O
  O6       1.0000 0.12420  0.21890  0.45040  Biso   1.000  O
  O7       1.0000 0.87580  0.78110  0.54960  Biso   1.000  O
  O8       1.0000 0.78760  0.13970  0.46290  Biso   1.000  O
  O9       1.0000 0.21240  0.86030  0.53710  Biso   1.000  O
  O10      1.0000 0.31030  0.55240  0.49800  Biso   1.000  O
  O11      1.0000 0.68970  0.44760  0.50200  Biso   1.000  O
  O12      1.0000 0.73110  0.38260  0.30300  Biso   1.000  O
  O13      1.0000 0.26890  0.61740  0.69700  Biso   1.000  O
  N1       1.0000 0.90110  0.35910  0.98780  Biso   1.000  N
  N2       1.0000 0.09890  0.64090  0.01220  Biso   1.000  N
  N3       1.0000 0.26130  0.25230  0.61890  Biso   1.000  N
  N4       1.0000 0.73870  0.74770  0.38110  Biso   1.000  N
  N5       1.0000 0.06050  0.97090  0.35490  Biso   1.000  N
  N6       1.0000 0.93950  0.02910  0.64510  Biso   1.000  N
  N7       1.0000 0.47700  0.83980  0.89720  Biso   1.000  N
  N8       1.0000 0.52300  0.16020  0.10280  Biso   1.000  N
  N9       1.0000 0.26600  0.99930  0.98390  Biso   1.000  N
  N10      1.0000 0.73400  0.00070  0.01610  Biso   1.000  N
  N11      1.0000 0.42400  0.77410  0.07320  Biso   1.000  N
  N12      1.0000 0.57600  0.22590  0.92680  Biso   1.000  N
  C1       1.0000 0.85850  0.45360  0.90100  Biso   1.000  C
  C2       1.0000 0.14150  0.54640  0.09900  Biso   1.000  C
  C3       1.0000 0.73310  0.58090  0.89740  Biso   1.000  C
  C4       1.0000 0.26690  0.41910  0.10260  Biso   1.000  C
  C5       1.0000 0.64430  0.61550  0.98680  Biso   1.000  C
  C6       1.0000 0.35570  0.38450  0.01320  Biso   1.000  C
  C7       1.0000 0.68440  0.51940  0.07690  Biso   1.000  C
  C8       1.0000 0.31560  0.48060  0.92310  Biso   1.000  C
  C9       1.0000 0.81330  0.39170  0.07230  Biso   1.000  C
  C10      1.0000 0.18670  0.60830  0.92770  Biso   1.000  C
  C11      1.0000 0.18850  0.29570  0.70570  Biso   1.000  C
  C12      1.0000 0.81150  0.70430  0.29430  Biso   1.000  C
  C13      1.0000 0.21320  0.20270  0.80060  Biso   1.000  C
  C14      1.0000 0.78680  0.79730  0.19940  Biso   1.000  C
  C15      1.0000 0.32100  0.06390  0.80430  Biso   1.000  C
  C16      1.0000 0.67900  0.93610  0.19570  Biso   1.000  C
  C17      1.0000 0.39630  0.01930  0.71410  Biso   1.000  C
  C18      1.0000 0.60370  0.98070  0.28590  Biso   1.000  C
  C19      1.0000 0.36320  0.11510  0.62400  Biso   1.000  C
  C20      1.0000 0.63680  0.88490  0.37600  Biso   1.000  C
  C21      1.0000 0.13880  0.83120  0.33780  Biso   1.000  C
  C22      1.0000 0.86120  0.16880  0.66220  Biso   1.000  C
  C23      1.0000 0.21960  0.80480  0.24610  Biso   1.000  C
  C24      1.0000 0.78040  0.19520  0.75390  Biso   1.000  C
  C25      1.0000 0.21170  0.92610  0.16500  Biso   1.000  C
  C26      1.0000 0.78830  0.07390  0.83500  Biso   1.000  C
  C27      1.0000 0.12060  0.06740  0.17880  Biso   1.000  C
  C28      1.0000 0.87940  0.93260  0.82120  Biso   1.000  C
  C29      1.0000 0.05020  0.08810  0.27560  Biso   1.000  C
  C30      1.0000 0.94980  0.91190  0.72440  Biso   1.000  C
  C31      1.0000 0.50820  0.74900  0.98520  Biso   1.000  C
  C32      1.0000 0.49180  0.25100  0.01480  Biso   1.000  C
  C33      1.0000 0.35700  0.96170  0.90110  Biso   1.000  C
  C34      1.0000 0.64300  0.03830  0.09890  Biso   1.000  C
  C35      1.0000 0.30470  0.90000  0.06870  Biso   1.000  C
  C36      1.0000 0.69530  0.10000  0.93130  Biso   1.000  C
