data_image0
_cell_length_a       6.1672
_cell_length_b       8.3595
_cell_length_c       14.223
_cell_angle_alpha    77.35
_cell_angle_beta     86.8
_cell_angle_gamma    87.7

_symmetry_space_group_name_H-M    "P 1"
_symmetry_int_tables_number       1

loop_
  _symmetry_equiv_pos_as_xyz
  'x, y, z'

loop_
  _atom_site_label
  _atom_site_occupancy
  _atom_site_fract_x
  _atom_site_fract_y
  _atom_site_fract_z
  _atom_site_thermal_displace_type
  _atom_site_B_iso_or_equiv
  _atom_site_type_symbol
  Ag1      1.0000 0.08350  0.81290  0.74770  Biso   1.000  Ag
  Ag2      1.0000 0.91650  0.18710  0.25230  Biso   1.000  Ag
  Cu1      1.0000 0.00000  0.00000  0.00000  Biso   1.000  Cu
  Cu2      1.0000 0.50000  0.50000  0.50000  Biso   1.000  Cu
  C1       1.0000 0.30460  0.21710  0.02030  Biso   1.000  C
  C2       1.0000 0.69540  0.78290  0.97970  Biso   1.000  C
  C3       1.0000 0.15140  0.31510  0.94750  Biso   1.000  C
  C4       1.0000 0.84860  0.68490  0.05250  Biso   1.000  C
  C5       1.0000 0.18060  0.47630  0.89860  Biso   1.000  C
  C6       1.0000 0.81940  0.52370  0.10140  Biso   1.000  C
  C7       1.0000 0.86730  0.47320  0.82000  Biso   1.000  C
  C8       1.0000 0.13270  0.52680  0.18000  Biso   1.000  C
  C9       1.0000 0.83730  0.31230  0.86840  Biso   1.000  C
  C10      1.0000 0.16270  0.68770  0.13160  Biso   1.000  C
  C11      1.0000 0.40120  0.30360  0.67550  Biso   1.000  C
  C12      1.0000 0.59880  0.69640  0.32450  Biso   1.000  C
  C13      1.0000 0.61990  0.23600  0.64400  Biso   1.000  C
  C14      1.0000 0.38010  0.76400  0.35600  Biso   1.000  C
  C15      1.0000 0.72630  0.09620  0.69300  Biso   1.000  C
  C16      1.0000 0.27370  0.90380  0.30700  Biso   1.000  C
  C17      1.0000 0.00770  0.13230  0.57900  Biso   1.000  C
  C18      1.0000 0.99230  0.86770  0.42100  Biso   1.000  C
  C19      1.0000 0.90040  0.27450  0.52870  Biso   1.000  C
  C20      1.0000 0.09960  0.72550  0.47130  Biso   1.000  C
  N1       1.0000 0.03780  0.55490  0.83450  Biso   1.000  N
  N2       1.0000 0.96220  0.44510  0.16550  Biso   1.000  N
  N3       1.0000 0.98100  0.23410  0.93130  Biso   1.000  N
  N4       1.0000 0.01900  0.76590  0.06870  Biso   1.000  N
  N5       1.0000 0.91910  0.04250  0.66030  Biso   1.000  N
  N6       1.0000 0.08090  0.95750  0.33970  Biso   1.000  N
  N7       1.0000 0.70800  0.32390  0.56070  Biso   1.000  N
  N8       1.0000 0.29200  0.67610  0.43930  Biso   1.000  N
  N9       1.0000 0.48070  0.24000  0.36160  Biso   1.000  N
  N10      1.0000 0.51930  0.76000  0.63840  Biso   1.000  N
  O1       1.0000 0.25130  0.07150  0.05740  Biso   1.000  O
  O2       1.0000 0.74870  0.92850  0.94260  Biso   1.000  O
  O3       1.0000 0.46770  0.28310  0.03790  Biso   1.000  O
  O4       1.0000 0.53230  0.71690  0.96210  Biso   1.000  O
  O5       1.0000 0.31790  0.42190  0.61520  Biso   1.000  O
  O6       1.0000 0.68210  0.57810  0.38480  Biso   1.000  O
  O7       1.0000 0.32130  0.23920  0.75560  Biso   1.000  O
  O8       1.0000 0.67870  0.76080  0.24440  Biso   1.000  O
  O9       1.0000 0.23250  0.94070  0.87010  Biso   1.000  O
  O10      1.0000 0.76750  0.05930  0.12990  Biso   1.000  O
  O11      1.0000 0.33710  0.31080  0.40550  Biso   1.000  O
  O12      1.0000 0.66290  0.68920  0.59450  Biso   1.000  O
  O13      1.0000 0.49230  0.26920  0.27270  Biso   1.000  O
  O14      1.0000 0.50770  0.73080  0.72730  Biso   1.000  O
  O15      1.0000 0.62060  0.14610  0.40330  Biso   1.000  O
  O16      1.0000 0.37940  0.85390  0.59670  Biso   1.000  O
  H1       1.0000 0.30120  0.53110  0.91020  Biso   1.000  H
  H2       1.0000 0.69880  0.46890  0.08980  Biso   1.000  H
  H3       1.0000 0.76600  0.52500  0.77650  Biso   1.000  H
  H4       1.0000 0.23400  0.47500  0.22350  Biso   1.000  H
  H5       1.0000 0.71610  0.25770  0.85710  Biso   1.000  H
  H6       1.0000 0.28390  0.74230  0.14290  Biso   1.000  H
  H7       1.0000 0.66270  0.03730  0.75040  Biso   1.000  H
  H8       1.0000 0.33730  0.96270  0.24960  Biso   1.000  H
  H9       1.0000 0.14230  0.10040  0.55530  Biso   1.000  H
  H10      1.0000 0.85770  0.89960  0.44470  Biso   1.000  H
  H11      1.0000 0.96520  0.33490  0.47220  Biso   1.000  H
  H12      1.0000 0.03480  0.66510  0.52780  Biso   1.000  H
  H13      1.0000 0.28700  0.01500  0.83800  Biso   1.000  H
  H14      1.0000 0.71300  0.98500  0.16200  Biso   1.000  H
  H15      1.0000 0.32700  0.89000  0.89100  Biso   1.000  H
  H16      1.0000 0.67300  0.11000  0.10900  Biso   1.000  H
