data_image0
_cell_length_a       7.9911
_cell_length_b       10.4006
_cell_length_c       12.3578
_cell_angle_alpha    103.151
_cell_angle_beta     94.245
_cell_angle_gamma    104.285

_symmetry_space_group_name_H-M    "P 1"
_symmetry_int_tables_number       1

loop_
  _symmetry_equiv_pos_as_xyz
  'x, y, z'

loop_
  _atom_site_label
  _atom_site_occupancy
  _atom_site_fract_x
  _atom_site_fract_y
  _atom_site_fract_z
  _atom_site_thermal_displace_type
  _atom_site_B_iso_or_equiv
  _atom_site_type_symbol
  C1       1.0000 0.06480  0.15250  0.41250  Biso   1.000  C
  H1       1.0000 0.09360  0.08120  0.43650  Biso   1.000  H
  C2       1.0000 0.04820  0.37160  0.45060  Biso   1.000  C
  H2       1.0000 0.06500  0.45630  0.50140  Biso   1.000  H
  C3       1.0000 0.98670  0.35850  0.33950  Biso   1.000  C
  H3       1.0000 0.95840  0.43100  0.31730  Biso   1.000  H
  C4       1.0000 0.00540  0.12990  0.30200  Biso   1.000  C
  H4       1.0000 0.98980  0.04400  0.25330  Biso   1.000  H
  C5       1.0000 0.96870  0.23440  0.26280  Biso   1.000  C
  C6       1.0000 0.90460  0.20800  0.14020  Biso   1.000  C
  H5       1.0000 0.79220  0.14010  0.12360  Biso   1.000  H
  H6       1.0000 0.98430  0.16760  0.09770  Biso   1.000  H
  C7       1.0000 0.88440  0.33070  0.09730  Biso   1.000  C
  H7       1.0000 0.99360  0.40240  0.11620  Biso   1.000  H
  H8       1.0000 0.79580  0.36730  0.13280  Biso   1.000  H
  C8       1.0000 0.83210  0.28570  0.96930  Biso   1.000  C
  H9       1.0000 0.92400  0.25330  0.93460  Biso   1.000  H
  H10      1.0000 0.72730  0.20970  0.95110  Biso   1.000  H
  C9       1.0000 0.79990  0.39700  0.92150  Biso   1.000  C
  C10      1.0000 0.92810  0.47310  0.87340  Biso   1.000  C
  H11      1.0000 0.03560  0.45400  0.86970  Biso   1.000  H
  C11      1.0000 0.64520  0.43180  0.92380  Biso   1.000  C
  H12      1.0000 0.55590  0.38260  0.95460  Biso   1.000  H
  C12      1.0000 0.89360  0.57880  0.83080  Biso   1.000  C
  H13      1.0000 0.97950  0.62780  0.79750  Biso   1.000  H
  C13      1.0000 0.61890  0.53850  0.88120  Biso   1.000  C
  H14      1.0000 0.51270  0.55970  0.88410  Biso   1.000  H
  C14      1.0000 0.81020  0.01550  0.69900  Biso   1.000  C
  H15      1.0000 0.91580  0.99290  0.69950  Biso   1.000  H
  C15      1.0000 0.53120  0.97510  0.73660  Biso   1.000  C
  H16      1.0000 0.43850  0.92480  0.76420  Biso   1.000  H
  C16      1.0000 0.50940  0.08240  0.69690  Biso   1.000  C
  H17      1.0000 0.40290  0.10340  0.69730  Biso   1.000  H
  C17      1.0000 0.79690  0.12480  0.65890  Biso   1.000  C
  H18      1.0000 0.89210  0.17520  0.63350  Biso   1.000  H
  C18      1.0000 0.64310  0.16000  0.65610  Biso   1.000  C
  C19      1.0000 0.62400  0.27800  0.60830  Biso   1.000  C
  H19      1.0000 0.73500  0.34740  0.62350  Biso   1.000  H
  H20      1.0000 0.54000  0.31910  0.64540  Biso   1.000  H
  C20      1.0000 0.56460  0.23230  0.48300  Biso   1.000  C
  H21      1.0000 0.45320  0.16330  0.46700  Biso   1.000  H
  H22      1.0000 0.64870  0.19220  0.44510  Biso   1.000  H
  C21      1.0000 0.54740  0.35530  0.44070  Biso   1.000  C
  H23      1.0000 0.46990  0.39780  0.48390  Biso   1.000  H
  H24      1.0000 0.66090  0.42160  0.45590  Biso   1.000  H
  C22      1.0000 0.48080  0.32750  0.31840  Biso   1.000  C
  C23      1.0000 0.44290  0.43540  0.27870  Biso   1.000  C
  H25      1.0000 0.45670  0.52090  0.32750  Biso   1.000  H
  C24      1.0000 0.45780  0.20520  0.24010  Biso   1.000  C
  H26      1.0000 0.48160  0.13060  0.26130  Biso   1.000  H
  C25      1.0000 0.39920  0.19420  0.13040  Biso   1.000  C
  H27      1.0000 0.38560  0.11040  0.07910  Biso   1.000  H
  C26      1.0000 0.38510  0.41190  0.16610  Biso   1.000  C
  H28      1.0000 0.36180  0.48430  0.14100  Biso   1.000  H
  C27      1.0000 0.65190  0.84030  0.01590  Biso   1.000  C
  C28      1.0000 0.51660  0.82300  0.09500  Biso   1.000  C
  C29      1.0000 0.34400  0.76980  0.05740  Biso   1.000  C
  H29      1.0000 0.30610  0.74640  0.98070  Biso   1.000  H
  C30      1.0000 0.57200  0.85630  0.21000  Biso   1.000  C
  H30      1.0000 0.69020  0.89050  0.23730  Biso   1.000  H
  C31      1.0000 0.22380  0.74990  0.13000  Biso   1.000  C
  H31      1.0000 0.10620  0.71310  0.10160  Biso   1.000  H
  C32      1.0000 0.45050  0.83820  0.28350  Biso   1.000  C
  H32      1.0000 0.48870  0.86350  0.36020  Biso   1.000  H
  C33      1.0000 0.27530  0.78400  0.24620  Biso   1.000  C
  C34      1.0000 0.14550  0.76360  0.32580  Biso   1.000  C
  C35      1.0000 0.96960  0.74300  0.29210  Biso   1.000  C
  H33      1.0000 0.93140  0.74090  0.21860  Biso   1.000  H
  C36      1.0000 0.19720  0.76320  0.43470  Biso   1.000  C
  H34      1.0000 0.31430  0.77480  0.45880  Biso   1.000  H
  C37      1.0000 0.84920  0.72560  0.36730  Biso   1.000  C
  H35      1.0000 0.73170  0.71180  0.34280  Biso   1.000  H
  C38      1.0000 0.07490  0.74550  0.50930  Biso   1.000  C
  H36      1.0000 0.11190  0.74530  0.58240  Biso   1.000  H
  C39      1.0000 0.89990  0.72820  0.47600  Biso   1.000  C
  C40      1.0000 0.76770  0.71390  0.55650  Biso   1.000  C
  H37      1.0000 0.45300  0.63000  0.63200  Biso   1.000  H
  H38      1.0000 0.37300  0.56400  0.69100  Biso   1.000  H
  H39      1.0000 0.11100  0.91100  0.90400  Biso   1.000  H
  H40      1.0000 0.98300  0.91800  0.95800  Biso   1.000  H
  N1       1.0000 0.08440  0.27110  0.48900  Biso   1.000  N
  N2       1.0000 0.74520  0.61210  0.83560  Biso   1.000  N
  N3       1.0000 0.67990  0.93910  0.73770  Biso   1.000  N
  N4       1.0000 0.36070  0.29370  0.09190  Biso   1.000  N
  O1       1.0000 0.58650  0.82330  0.91400  Biso   1.000  O
  O2       1.0000 0.80680  0.86680  0.05160  Biso   1.000  O
  O3       1.0000 0.61260  0.69740  0.52080  Biso   1.000  O
  O4       1.0000 0.82700  0.72630  0.65670  Biso   1.000  O
  O5       1.0000 0.40830  0.64380  0.68210  Biso   1.000  O
  O6       1.0000 0.03680  0.93440  0.90730  Biso   1.000  O
  Cu1      1.0000 0.70073  0.77237  0.78371  Biso   1.000  Cu
  H41      1.0000 0.16700  0.32000  0.65400  Biso   1.000  H
  H42      1.0000 0.24900  0.33200  0.75100  Biso   1.000  H
  O7       1.0000 0.24710  0.37610  0.71410  Biso   1.000  O
  H43      1.0000 0.12300  0.20100  0.88400  Biso   1.000  H
  H44      1.0000 0.24700  0.23200  0.93800  Biso   1.000  H
  O8       1.0000 0.20690  0.19580  0.86290  Biso   1.000  O
