data_image0
_cell_length_a       9.2346
_cell_length_b       14.668
_cell_length_c       15.049
_cell_angle_alpha    76.84
_cell_angle_beta     73.38
_cell_angle_gamma    75.5

_symmetry_space_group_name_H-M    "P 1"
_symmetry_int_tables_number       1

loop_
  _symmetry_equiv_pos_as_xyz
  'x, y, z'

loop_
  _atom_site_label
  _atom_site_occupancy
  _atom_site_fract_x
  _atom_site_fract_y
  _atom_site_fract_z
  _atom_site_thermal_displace_type
  _atom_site_B_iso_or_equiv
  _atom_site_type_symbol
  Cu1      1.0000 0.00201  0.75232  0.74568  Biso   1.000  Cu
  Cu2      1.0000 0.99799  0.24768  0.25432  Biso   1.000  Cu
  S1       1.0000 0.70214  0.75743  0.34805  Biso   1.000  S
  S2       1.0000 0.29786  0.24257  0.65195  Biso   1.000  S
  O1       1.0000 0.68090  0.88890  0.47970  Biso   1.000  O
  O2       1.0000 0.31910  0.11110  0.52030  Biso   1.000  O
  O3       1.0000 0.93210  0.88070  0.45470  Biso   1.000  O
  O4       1.0000 0.06790  0.11930  0.54530  Biso   1.000  O
  O5       1.0000 0.62990  0.64910  0.22440  Biso   1.000  O
  O6       1.0000 0.37010  0.35090  0.77560  Biso   1.000  O
  O7       1.0000 0.86950  0.57850  0.16790  Biso   1.000  O
  O8       1.0000 0.13050  0.42150  0.83210  Biso   1.000  O
  O9       1.0000 0.07320  0.60549  0.85810  Biso   1.000  O
  O10      1.0000 0.92680  0.39451  0.14190  Biso   1.000  O
  O11      1.0000 0.93590  0.89590  0.63120  Biso   1.000  O
  O12      1.0000 0.06410  0.10410  0.36880  Biso   1.000  O
  O13      1.0000 0.62420  0.06610  0.54330  Biso   1.000  O
  O14      1.0000 0.37580  0.93390  0.45670  Biso   1.000  O
  O15      1.0000 0.20920  0.91170  0.33960  Biso   1.000  O
  O16      1.0000 0.79080  0.08830  0.66040  Biso   1.000  O
  O17      1.0000 0.64810  0.57540  0.04750  Biso   1.000  O
  O18      1.0000 0.35190  0.42460  0.95250  Biso   1.000  O
  O19      1.0000 0.14110  0.59380  0.03140  Biso   1.000  O
  O20      1.0000 0.85890  0.40620  0.96860  Biso   1.000  O
  O21      1.0000 0.37460  0.79250  0.19500  Biso   1.000  O
  O22      1.0000 0.62540  0.20750  0.80500  Biso   1.000  O
  O23      1.0000 0.34750  0.68140  0.06830  Biso   1.000  O
  O24      1.0000 0.65250  0.31860  0.93170  Biso   1.000  O
  N1       1.0000 0.19450  0.80020  0.74740  Biso   1.000  N
  N2       1.0000 0.80550  0.19980  0.25260  Biso   1.000  N
  N3       1.0000 0.11050  0.17720  0.14350  Biso   1.000  N
  N4       1.0000 0.88950  0.82280  0.85650  Biso   1.000  N
  N5       1.0000 0.80850  0.70530  0.74740  Biso   1.000  N
  N6       1.0000 0.19150  0.29470  0.25260  Biso   1.000  N
  N7       1.0000 0.88490  0.31800  0.36620  Biso   1.000  N
  N8       1.0000 0.11510  0.68200  0.63380  Biso   1.000  N
  C1       1.0000 0.23770  0.87590  0.69040  Biso   1.000  C
  C2       1.0000 0.76230  0.12410  0.30960  Biso   1.000  C
  H1       1.0000 0.19630  0.90040  0.63830  Biso   1.000  H
  H2       1.0000 0.80370  0.09960  0.36170  Biso   1.000  H
  C3       1.0000 0.34300  0.92150  0.70460  Biso   1.000  C
  C4       1.0000 0.65700  0.07850  0.29540  Biso   1.000  C
  H3       1.0000 0.37040  0.97480  0.66190  Biso   1.000  H
  H4       1.0000 0.62960  0.02520  0.33810  Biso   1.000  H
  C5       1.0000 0.40590  0.88920  0.78000  Biso   1.000  C
  C6       1.0000 0.59410  0.11080  0.22000  Biso   1.000  C
  C7       1.0000 0.36240  0.80700  0.83940  Biso   1.000  C
  C8       1.0000 0.63760  0.19300  0.16060  Biso   1.000  C
  H5       1.0000 0.40360  0.78080  0.89140  Biso   1.000  H
  H6       1.0000 0.59640  0.21920  0.10860  Biso   1.000  H
  C9       1.0000 0.25900  0.76510  0.82110  Biso   1.000  C
  C10      1.0000 0.74100  0.23490  0.17890  Biso   1.000  C
  H7       1.0000 0.23240  0.71020  0.86120  Biso   1.000  H
  H8       1.0000 0.76760  0.28980  0.13880  Biso   1.000  H
  C11      1.0000 0.18090  0.22240  0.06090  Biso   1.000  C
  C12      1.0000 0.81910  0.77760  0.93910  Biso   1.000  C
  H9       1.0000 0.18980  0.28500  0.05720  Biso   1.000  H
  H10      1.0000 0.81020  0.71500  0.94280  Biso   1.000  H
  C13      1.0000 0.24080  0.18170  0.98150  Biso   1.000  C
  C14      1.0000 0.75920  0.81830  0.01850  Biso   1.000  C
  H11      1.0000 0.29170  0.21590  0.92650  Biso   1.000  H
  H12      1.0000 0.70830  0.78410  0.07350  Biso   1.000  H
  C15      1.0000 0.22590  0.08950  0.98280  Biso   1.000  C
  C16      1.0000 0.77410  0.91050  0.01720  Biso   1.000  C
  C17      1.0000 0.15780  0.04260  0.06890  Biso   1.000  C
  C18      1.0000 0.84220  0.95740  0.93110  Biso   1.000  C
  H13      1.0000 0.14900  0.97960  0.07460  Biso   1.000  H
  H14      1.0000 0.85100  0.02040  0.92540  Biso   1.000  H
  C19      1.0000 0.10310  0.08620  0.14620  Biso   1.000  C
  C20      1.0000 0.89690  0.91380  0.85380  Biso   1.000  C
  H15      1.0000 0.05880  0.05150  0.20310  Biso   1.000  H
  H16      1.0000 0.94120  0.94850  0.79690  Biso   1.000  H
  C21      1.0000 0.28740  0.04530  0.89580  Biso   1.000  C
  C22      1.0000 0.71260  0.95470  0.10420  Biso   1.000  C
  H17      1.0000 0.21500  0.00910  0.89240  Biso   1.000  H
  H18      1.0000 0.78500  0.99090  0.10760  Biso   1.000  H
  H19      1.0000 0.29570  0.09560  0.84120  Biso   1.000  H
  H20      1.0000 0.70430  0.90440  0.15880  Biso   1.000  H
  C23      1.0000 0.44110  0.98090  0.89260  Biso   1.000  C
  C24      1.0000 0.55890  0.01910  0.10740  Biso   1.000  C
  H21      1.0000 0.43090  0.92840  0.94500  Biso   1.000  H
  H22      1.0000 0.56910  0.07160  0.05500  Biso   1.000  H
  H23      1.0000 0.51120  0.01610  0.90060  Biso   1.000  H
  H24      1.0000 0.48880  0.98390  0.09940  Biso   1.000  H
  C25      1.0000 0.51220  0.93970  0.80080  Biso   1.000  C
  C26      1.0000 0.48780  0.06030  0.19920  Biso   1.000  C
  H25      1.0000 0.53580  0.99120  0.74910  Biso   1.000  H
  H26      1.0000 0.46420  0.00880  0.25090  Biso   1.000  H
  H27      1.0000 0.60810  0.89530  0.80580  Biso   1.000  H
  H28      1.0000 0.39190  0.10470  0.19420  Biso   1.000  H
  C27      1.0000 0.73910  0.74020  0.67490  Biso   1.000  C
  C28      1.0000 0.26090  0.25980  0.32510  Biso   1.000  C
  H29      1.0000 0.76450  0.79500  0.63420  Biso   1.000  H
  H30      1.0000 0.23550  0.20500  0.36580  Biso   1.000  H
  C29      1.0000 0.63370  0.69900  0.65840  Biso   1.000  C
  C30      1.0000 0.36630  0.30100  0.34160  Biso   1.000  C
  H31      1.0000 0.59050  0.72550  0.60730  Biso   1.000  H
  H32      1.0000 0.40950  0.27450  0.39270  Biso   1.000  H
  C31      1.0000 0.59130  0.61740  0.71830  Biso   1.000  C
  C32      1.0000 0.40870  0.38260  0.28170  Biso   1.000  C
  C33      1.0000 0.65740  0.58340  0.79490  Biso   1.000  C
  C34      1.0000 0.34260  0.41660  0.20510  Biso   1.000  C
  H33      1.0000 0.62990  0.53050  0.83810  Biso   1.000  H
  H34      1.0000 0.37010  0.46950  0.16190  Biso   1.000  H
  C35      1.0000 0.76400  0.62860  0.80660  Biso   1.000  C
  C36      1.0000 0.23600  0.37140  0.19340  Biso   1.000  C
  H35      1.0000 0.80680  0.60440  0.85820  Biso   1.000  H
  H36      1.0000 0.19320  0.39560  0.14180  Biso   1.000  H
  C37      1.0000 0.80030  0.27620  0.44560  Biso   1.000  C
  C38      1.0000 0.19970  0.72380  0.55440  Biso   1.000  C
  H37      1.0000 0.78360  0.21590  0.44690  Biso   1.000  H
  H38      1.0000 0.21640  0.78410  0.55310  Biso   1.000  H
  C39      1.0000 0.73730  0.31630  0.52450  Biso   1.000  C
  C40      1.0000 0.26270  0.68370  0.47550  Biso   1.000  C
  H39      1.0000 0.67740  0.28410  0.57700  Biso   1.000  H
  H40      1.0000 0.32260  0.71590  0.42300  Biso   1.000  H
  C41      1.0000 0.76210  0.40560  0.52680  Biso   1.000  C
  C42      1.0000 0.23790  0.59440  0.47320  Biso   1.000  C
  C43      1.0000 0.84440  0.45060  0.44320  Biso   1.000  C
  C44      1.0000 0.15560  0.54940  0.55680  Biso   1.000  C
  H41      1.0000 0.86050  0.51160  0.43930  Biso   1.000  H
  H42      1.0000 0.13950  0.48840  0.56070  Biso   1.000  H
  C45      1.0000 0.90140  0.40610  0.36710  Biso   1.000  C
  C46      1.0000 0.09860  0.59390  0.63290  Biso   1.000  C
  H43      1.0000 0.95530  0.43870  0.31210  Biso   1.000  H
  H44      1.0000 0.04470  0.56130  0.68790  Biso   1.000  H
  C47      1.0000 0.48130  0.56760  0.69950  Biso   1.000  C
  C48      1.0000 0.51870  0.43240  0.30050  Biso   1.000  C
  H45      1.0000 0.45560  0.51770  0.75250  Biso   1.000  H
  H46      1.0000 0.54440  0.48230  0.24750  Biso   1.000  H
  H47      1.0000 0.38680  0.61310  0.69360  Biso   1.000  H
  H48      1.0000 0.61320  0.38690  0.30640  Biso   1.000  H
  C49      1.0000 0.55020  0.52400  0.61020  Biso   1.000  C
  C50      1.0000 0.44980  0.47600  0.38980  Biso   1.000  C
  H49      1.0000 0.57050  0.57460  0.55700  Biso   1.000  H
  H50      1.0000 0.42950  0.42540  0.44300  Biso   1.000  H
  H51      1.0000 0.47530  0.49350  0.60050  Biso   1.000  H
  H52      1.0000 0.52470  0.50650  0.39950  Biso   1.000  H
  C51      1.0000 0.69840  0.45100  0.61330  Biso   1.000  C
  C52      1.0000 0.30160  0.54900  0.38670  Biso   1.000  C
  H53      1.0000 0.77470  0.48210  0.62040  Biso   1.000  H
  H54      1.0000 0.22530  0.51790  0.37960  Biso   1.000  H
  H55      1.0000 0.67910  0.40170  0.66780  Biso   1.000  H
  H56      1.0000 0.32090  0.59830  0.33220  Biso   1.000  H
  C53      1.0000 0.82030  0.85860  0.43940  Biso   1.000  C
  C54      1.0000 0.17970  0.14140  0.56060  Biso   1.000  C
  C55      1.0000 0.84920  0.79300  0.37170  Biso   1.000  C
  C56      1.0000 0.15080  0.20700  0.62830  Biso   1.000  C
  C57      1.0000 0.98860  0.75270  0.32010  Biso   1.000  C
  C58      1.0000 0.01140  0.24730  0.67990  Biso   1.000  C
  H57      1.0000 0.08210  0.76430  0.32200  Biso   1.000  H
  H58      1.0000 0.91790  0.23570  0.67800  Biso   1.000  H
  C59      1.0000 0.97610  0.69140  0.26320  Biso   1.000  C
  C60      1.0000 0.02390  0.30860  0.73680  Biso   1.000  C
  H59      1.0000 0.06030  0.65710  0.22530  Biso   1.000  H
  H60      1.0000 0.93970  0.34290  0.77470  Biso   1.000  H
  C61      1.0000 0.82790  0.68850  0.27020  Biso   1.000  C
  C62      1.0000 0.17210  0.31150  0.72980  Biso   1.000  C
  C63      1.0000 0.77570  0.63340  0.21640  Biso   1.000  C
  C64      1.0000 0.22430  0.36660  0.78360  Biso   1.000  C
  O25      1.0000 0.30260  0.74380  0.14830  Biso   1.000  O
  O26      1.0000 0.69740  0.25620  0.85170  Biso   1.000  O
