data_image0
_cell_length_a       7.54
_cell_length_b       11.44
_cell_length_c       11.757
_cell_angle_alpha    90
_cell_angle_beta     106.66
_cell_angle_gamma    90

_symmetry_space_group_name_H-M    "P 1"
_symmetry_int_tables_number       1

loop_
  _symmetry_equiv_pos_as_xyz
  'x, y, z'

loop_
  _atom_site_label
  _atom_site_occupancy
  _atom_site_fract_x
  _atom_site_fract_y
  _atom_site_fract_z
  _atom_site_thermal_displace_type
  _atom_site_B_iso_or_equiv
  _atom_site_type_symbol
  Cu1      1.0000 0.17323  0.54051  0.23852  Biso   1.000  Cu
  Cu2      1.0000 0.17323  0.95949  0.73852  Biso   1.000  Cu
  Cu3      1.0000 0.82677  0.45949  0.76148  Biso   1.000  Cu
  Cu4      1.0000 0.82677  0.04051  0.26148  Biso   1.000  Cu
  N1       1.0000 0.98690  0.61670  0.09540  Biso   1.000  N
  N2       1.0000 0.98690  0.88330  0.59540  Biso   1.000  N
  N3       1.0000 0.01310  0.38330  0.90460  Biso   1.000  N
  N4       1.0000 0.01310  0.11670  0.40460  Biso   1.000  N
  N5       1.0000 0.83770  0.58500  0.89190  Biso   1.000  N
  N6       1.0000 0.83770  0.91500  0.39190  Biso   1.000  N
  N7       1.0000 0.16230  0.41500  0.10810  Biso   1.000  N
  N8       1.0000 0.16230  0.08500  0.60810  Biso   1.000  N
  N9       1.0000 0.95950  0.47280  0.30860  Biso   1.000  N
  N10      1.0000 0.95950  0.02720  0.80860  Biso   1.000  N
  N11      1.0000 0.04050  0.52720  0.69140  Biso   1.000  N
  N12      1.0000 0.04050  0.97280  0.19140  Biso   1.000  N
  N13      1.0000 0.72030  0.44040  0.40560  Biso   1.000  N
  N14      1.0000 0.72030  0.05960  0.90560  Biso   1.000  N
  N15      1.0000 0.27970  0.55960  0.59440  Biso   1.000  N
  N16      1.0000 0.27970  0.94040  0.09440  Biso   1.000  N
  N17      1.0000 0.38930  0.46230  0.34050  Biso   1.000  N
  N18      1.0000 0.38930  0.03770  0.84050  Biso   1.000  N
  N19      1.0000 0.61070  0.53770  0.65950  Biso   1.000  N
  N20      1.0000 0.61070  0.96230  0.15950  Biso   1.000  N
  N21      1.0000 0.21910  0.68890  0.32390  Biso   1.000  N
  N22      1.0000 0.21910  0.81110  0.82390  Biso   1.000  N
  N23      1.0000 0.78090  0.31110  0.67610  Biso   1.000  N
  N24      1.0000 0.78090  0.18890  0.17610  Biso   1.000  N
  N25      1.0000 0.31310  0.85270  0.45830  Biso   1.000  N
  N26      1.0000 0.31310  0.64730  0.95830  Biso   1.000  N
  N27      1.0000 0.68690  0.14730  0.54170  Biso   1.000  N
  N28      1.0000 0.68690  0.35270  0.04170  Biso   1.000  N
  N29      1.0000 0.52110  0.85700  0.65900  Biso   1.000  N
  N30      1.0000 0.52110  0.64300  0.15900  Biso   1.000  N
  N31      1.0000 0.47890  0.14300  0.34100  Biso   1.000  N
  N32      1.0000 0.47890  0.35700  0.84100  Biso   1.000  N
  C1       1.0000 0.95340  0.55530  0.99650  Biso   1.000  C
  C2       1.0000 0.95340  0.94470  0.49650  Biso   1.000  C
  C3       1.0000 0.04660  0.44470  0.00350  Biso   1.000  C
  C4       1.0000 0.04660  0.05530  0.50350  Biso   1.000  C
  C5       1.0000 0.75260  0.68960  0.88640  Biso   1.000  C
  C6       1.0000 0.75260  0.81040  0.38640  Biso   1.000  C
  C7       1.0000 0.24740  0.31040  0.11360  Biso   1.000  C
  C8       1.0000 0.24740  0.18960  0.61360  Biso   1.000  C
  H1       1.0000 0.67530  0.71520  0.81410  Biso   1.000  H
  H2       1.0000 0.67530  0.78480  0.31410  Biso   1.000  H
  H3       1.0000 0.32470  0.28480  0.18590  Biso   1.000  H
  H4       1.0000 0.32470  0.21520  0.68590  Biso   1.000  H
  C9       1.0000 0.77760  0.75950  0.98600  Biso   1.000  C
  C10      1.0000 0.77760  0.74050  0.48600  Biso   1.000  C
  C11      1.0000 0.22240  0.24050  0.01400  Biso   1.000  C
  C12      1.0000 0.22240  0.25950  0.51400  Biso   1.000  C
  H5       1.0000 0.71740  0.83080  0.98320  Biso   1.000  H
  H6       1.0000 0.71740  0.66920  0.48320  Biso   1.000  H
  H7       1.0000 0.28260  0.16920  0.01680  Biso   1.000  H
  H8       1.0000 0.28260  0.33080  0.51680  Biso   1.000  H
  C13      1.0000 0.89760  0.71680  0.08980  Biso   1.000  C
  C14      1.0000 0.89760  0.78320  0.58980  Biso   1.000  C
  C15      1.0000 0.10240  0.28320  0.91020  Biso   1.000  C
  C16      1.0000 0.10240  0.21680  0.41020  Biso   1.000  C
  H9       1.0000 0.93200  0.76600  0.16200  Biso   1.000  H
  H10      1.0000 0.93200  0.73400  0.66200  Biso   1.000  H
  H11      1.0000 0.06800  0.23400  0.83800  Biso   1.000  H
  H12      1.0000 0.06800  0.26600  0.33800  Biso   1.000  H
  C17      1.0000 0.84110  0.45980  0.34870  Biso   1.000  C
  C18      1.0000 0.84110  0.04020  0.84870  Biso   1.000  C
  C19      1.0000 0.15890  0.54020  0.65130  Biso   1.000  C
  C20      1.0000 0.15890  0.95980  0.15130  Biso   1.000  C
  C21      1.0000 0.54770  0.45430  0.36470  Biso   1.000  C
  C22      1.0000 0.54770  0.04570  0.86470  Biso   1.000  C
  C23      1.0000 0.45230  0.54570  0.63530  Biso   1.000  C
  C24      1.0000 0.45230  0.95430  0.13530  Biso   1.000  C
  C25      1.0000 0.26980  0.76230  0.39100  Biso   1.000  C
  C26      1.0000 0.26980  0.73770  0.89100  Biso   1.000  C
  C27      1.0000 0.73020  0.23770  0.60900  Biso   1.000  C
  C28      1.0000 0.73020  0.26230  0.10900  Biso   1.000  C
  C29      1.0000 0.42540  0.84960  0.56620  Biso   1.000  C
  C30      1.0000 0.42540  0.65040  0.06620  Biso   1.000  C
  C31      1.0000 0.57460  0.15040  0.43380  Biso   1.000  C
  C32      1.0000 0.57460  0.34960  0.93380  Biso   1.000  C
