data_image0
_cell_length_a       7.555
_cell_length_b       11.3017
_cell_length_c       11.8904
_cell_angle_alpha    90
_cell_angle_beta     107.142
_cell_angle_gamma    90

_symmetry_space_group_name_H-M    "P 1"
_symmetry_int_tables_number       1

loop_
  _symmetry_equiv_pos_as_xyz
  'x, y, z'

loop_
  _atom_site_label
  _atom_site_occupancy
  _atom_site_fract_x
  _atom_site_fract_y
  _atom_site_fract_z
  _atom_site_thermal_displace_type
  _atom_site_B_iso_or_equiv
  _atom_site_type_symbol
  Cu1      1.0000 0.32845  0.04027  0.26173  Biso   1.000  Cu
  Cu2      1.0000 0.32845  0.45973  0.76173  Biso   1.000  Cu
  Cu3      1.0000 0.67155  0.95973  0.73827  Biso   1.000  Cu
  Cu4      1.0000 0.67155  0.54027  0.23827  Biso   1.000  Cu
  N1       1.0000 0.33570  0.91407  0.39188  Biso   1.000  N
  N2       1.0000 0.33570  0.58593  0.89188  Biso   1.000  N
  N3       1.0000 0.66430  0.08593  0.60812  Biso   1.000  N
  N4       1.0000 0.66430  0.41407  0.10812  Biso   1.000  N
  N5       1.0000 0.48070  0.88312  0.59708  Biso   1.000  N
  N6       1.0000 0.48070  0.61688  0.09708  Biso   1.000  N
  N7       1.0000 0.51930  0.11688  0.40292  Biso   1.000  N
  N8       1.0000 0.51930  0.38312  0.90292  Biso   1.000  N
  N9       1.0000 0.28030  0.19143  0.17628  Biso   1.000  N
  N10      1.0000 0.28030  0.30857  0.67628  Biso   1.000  N
  N11      1.0000 0.71970  0.80857  0.82372  Biso   1.000  N
  N12      1.0000 0.71970  0.69143  0.32372  Biso   1.000  N
  N13      1.0000 0.19280  0.35836  0.04058  Biso   1.000  N
  N14      1.0000 0.19280  0.14164  0.54058  Biso   1.000  N
  N15      1.0000 0.80720  0.64164  0.95942  Biso   1.000  N
  N16      1.0000 0.80720  0.85836  0.45942  Biso   1.000  N
  N17      1.0000 0.98160  0.35921  0.83775  Biso   1.000  N
  N18      1.0000 0.98160  0.14079  0.33775  Biso   1.000  N
  N19      1.0000 0.01840  0.64079  0.16225  Biso   1.000  N
  N20      1.0000 0.01840  0.85921  0.66225  Biso   1.000  N
  N21      1.0000 0.10890  0.96101  0.15800  Biso   1.000  N
  N22      1.0000 0.10890  0.53899  0.65800  Biso   1.000  N
  N23      1.0000 0.89110  0.03899  0.84200  Biso   1.000  N
  N24      1.0000 0.89110  0.46101  0.34200  Biso   1.000  N
  N25      1.0000 0.77280  0.93840  0.08972  Biso   1.000  N
  N26      1.0000 0.77280  0.56160  0.58972  Biso   1.000  N
  N27      1.0000 0.22720  0.06160  0.91028  Biso   1.000  N
  N28      1.0000 0.22720  0.43840  0.41028  Biso   1.000  N
  N29      1.0000 0.53960  0.97116  0.19279  Biso   1.000  N
  N30      1.0000 0.53960  0.52884  0.69279  Biso   1.000  N
  N31      1.0000 0.46040  0.02884  0.80721  Biso   1.000  N
  N32      1.0000 0.46040  0.47116  0.30721  Biso   1.000  N
  C1       1.0000 0.44910  0.94421  0.49662  Biso   1.000  C
  C2       1.0000 0.44910  0.55579  0.99662  Biso   1.000  C
  C3       1.0000 0.55090  0.05579  0.50338  Biso   1.000  C
  C4       1.0000 0.55090  0.44421  0.00338  Biso   1.000  C
  C5       1.0000 0.24370  0.81039  0.38605  Biso   1.000  C
  C6       1.0000 0.24370  0.68961  0.88605  Biso   1.000  C
  C7       1.0000 0.75630  0.18961  0.61395  Biso   1.000  C
  C8       1.0000 0.75630  0.31039  0.11395  Biso   1.000  C
  H1       1.0000 0.16310  0.78432  0.31286  Biso   1.000  H
  H2       1.0000 0.16310  0.71568  0.81286  Biso   1.000  H
  H3       1.0000 0.83690  0.21568  0.68714  Biso   1.000  H
  H4       1.0000 0.83690  0.28432  0.18714  Biso   1.000  H
  C9       1.0000 0.26640  0.74185  0.48618  Biso   1.000  C
  C10      1.0000 0.26640  0.75815  0.98618  Biso   1.000  C
  C11      1.0000 0.73360  0.25815  0.51382  Biso   1.000  C
  C12      1.0000 0.73360  0.24185  0.01382  Biso   1.000  C
  H5       1.0000 0.20160  0.66920  0.48241  Biso   1.000  H
  H6       1.0000 0.20160  0.83080  0.98241  Biso   1.000  H
  H7       1.0000 0.79840  0.33080  0.51759  Biso   1.000  H
  H8       1.0000 0.79840  0.16920  0.01759  Biso   1.000  H
  C13      1.0000 0.38590  0.78181  0.59229  Biso   1.000  C
  C14      1.0000 0.38590  0.71819  0.09229  Biso   1.000  C
  C15      1.0000 0.61410  0.21819  0.40771  Biso   1.000  C
  C16      1.0000 0.61410  0.28181  0.90771  Biso   1.000  C
  H9       1.0000 0.40060  0.73691  0.66199  Biso   1.000  H
  H10      1.0000 0.40060  0.76309  0.16199  Biso   1.000  H
  H11      1.0000 0.59940  0.26309  0.33801  Biso   1.000  H
  H12      1.0000 0.59940  0.23691  0.83801  Biso   1.000  H
  C17      1.0000 0.23380  0.26558  0.10802  Biso   1.000  C
  C18      1.0000 0.23380  0.23442  0.60802  Biso   1.000  C
  C19      1.0000 0.76620  0.73442  0.89198  Biso   1.000  C
  C20      1.0000 0.76620  0.76558  0.39198  Biso   1.000  C
  C21      1.0000 0.07850  0.35245  0.93283  Biso   1.000  C
  C22      1.0000 0.07850  0.14755  0.43283  Biso   1.000  C
  C23      1.0000 0.92150  0.64755  0.06717  Biso   1.000  C
  C24      1.0000 0.92150  0.85245  0.56717  Biso   1.000  C
  C25      1.0000 0.94940  0.95252  0.13245  Biso   1.000  C
  C26      1.0000 0.94940  0.54748  0.63245  Biso   1.000  C
  C27      1.0000 0.05060  0.04748  0.86755  Biso   1.000  C
  C28      1.0000 0.05060  0.45252  0.36755  Biso   1.000  C
  C29      1.0000 0.65680  0.95808  0.15026  Biso   1.000  C
  C30      1.0000 0.65680  0.54192  0.65026  Biso   1.000  C
  C31      1.0000 0.34320  0.04192  0.84974  Biso   1.000  C
  C32      1.0000 0.34320  0.45808  0.34974  Biso   1.000  C
