data_image0
_cell_length_a       7.1732
_cell_length_b       9.2338
_cell_length_c       9.994
_cell_angle_alpha    94.15
_cell_angle_beta     106.13
_cell_angle_gamma    106.28

_symmetry_space_group_name_H-M    "P 1"
_symmetry_int_tables_number       1

loop_
  _symmetry_equiv_pos_as_xyz
  'x, y, z'

loop_
  _atom_site_label
  _atom_site_occupancy
  _atom_site_fract_x
  _atom_site_fract_y
  _atom_site_fract_z
  _atom_site_thermal_displace_type
  _atom_site_B_iso_or_equiv
  _atom_site_type_symbol
  Cu1      1.0000 0.00000  0.00000  0.00000  Biso   1.000  Cu
  Cu2      1.0000 0.86747  0.25717  0.47928  Biso   1.000  Cu
  Cu3      1.0000 0.13253  0.74283  0.52072  Biso   1.000  Cu
  O1       1.0000 0.15880  0.95780  0.31810  Biso   1.000  O
  O2       1.0000 0.84120  0.04220  0.68190  Biso   1.000  O
  O3       1.0000 0.59310  0.52180  0.67730  Biso   1.000  O
  O4       1.0000 0.40690  0.47820  0.32270  Biso   1.000  O
  O5       1.0000 0.74120  0.19040  0.26840  Biso   1.000  O
  O6       1.0000 0.25880  0.80960  0.73160  Biso   1.000  O
  O7       1.0000 0.36270  0.12380  0.69810  Biso   1.000  O
  O8       1.0000 0.63730  0.87620  0.30190  Biso   1.000  O
  N1       1.0000 0.82870  0.55580  0.08750  Biso   1.000  N
  N2       1.0000 0.17130  0.44420  0.91250  Biso   1.000  N
  N3       1.0000 0.01910  0.70460  0.30960  Biso   1.000  N
  N4       1.0000 0.98090  0.29540  0.69040  Biso   1.000  N
  N5       1.0000 0.96610  0.82040  0.10220  Biso   1.000  N
  N6       1.0000 0.03390  0.17960  0.89780  Biso   1.000  N
  N7       1.0000 0.78570  0.67420  0.88430  Biso   1.000  N
  N8       1.0000 0.21430  0.32580  0.11570  Biso   1.000  N
  N9       1.0000 0.63510  0.40180  0.86730  Biso   1.000  N
  N10      1.0000 0.36490  0.59820  0.13270  Biso   1.000  N
  N11      1.0000 0.68340  0.28920  0.06700  Biso   1.000  N
  N12      1.0000 0.31660  0.71080  0.93300  Biso   1.000  N
  N13      1.0000 0.87650  0.44510  0.29430  Biso   1.000  N
  N14      1.0000 0.12350  0.55490  0.70570  Biso   1.000  N
  N15      1.0000 0.70690  0.98190  0.95110  Biso   1.000  N
  N16      1.0000 0.29310  0.01810  0.04890  Biso   1.000  N
  N17      1.0000 0.59680  0.25880  0.48470  Biso   1.000  N
  N18      1.0000 0.40320  0.74120  0.51530  Biso   1.000  N
  N19      1.0000 0.12920  0.24530  0.46300  Biso   1.000  N
  N20      1.0000 0.87080  0.75470  0.53700  Biso   1.000  N
  C1       1.0000 0.90900  0.56810  0.23390  Biso   1.000  C
  C2       1.0000 0.09100  0.43190  0.76610  Biso   1.000  C
  C3       1.0000 0.85850  0.68390  0.02120  Biso   1.000  C
  C4       1.0000 0.14150  0.31610  0.97880  Biso   1.000  C
  C5       1.0000 0.71260  0.41210  0.00410  Biso   1.000  C
  C6       1.0000 0.28740  0.58790  0.99590  Biso   1.000  C
  C7       1.0000 0.05150  0.83220  0.24520  Biso   1.000  C
  C8       1.0000 0.94850  0.16780  0.75480  Biso   1.000  C
  C9       1.0000 0.66860  0.53230  0.80580  Biso   1.000  C
  C10      1.0000 0.33140  0.46770  0.19420  Biso   1.000  C
  C11      1.0000 0.76630  0.30840  0.20830  Biso   1.000  C
  C12      1.0000 0.23370  0.69160  0.79170  Biso   1.000  C
  H1       1.0000 0.69200  0.05700  0.98700  Biso   1.000  H
  H2       1.0000 0.30800  0.94300  0.01300  Biso   1.000  H
  H3       1.0000 0.63300  0.90700  0.97100  Biso   1.000  H
  H4       1.0000 0.36700  0.09300  0.02900  Biso   1.000  H
  H5       1.0000 0.66100  0.97300  0.85900  Biso   1.000  H
  H6       1.0000 0.33900  0.02700  0.14100  Biso   1.000  H
  H7       1.0000 0.60800  0.32600  0.55200  Biso   1.000  H
  H8       1.0000 0.39200  0.67400  0.44800  Biso   1.000  H
  H9       1.0000 0.52300  0.17400  0.48800  Biso   1.000  H
  H10      1.0000 0.47700  0.82600  0.51200  Biso   1.000  H
  H11      1.0000 0.52500  0.28300  0.42200  Biso   1.000  H
  H12      1.0000 0.47500  0.71700  0.57800  Biso   1.000  H
  H13      1.0000 0.20200  0.32500  0.45600  Biso   1.000  H
  H14      1.0000 0.79800  0.67500  0.54400  Biso   1.000  H
  H15      1.0000 0.20900  0.22400  0.52500  Biso   1.000  H
  H16      1.0000 0.79100  0.77600  0.47500  Biso   1.000  H
  H17      1.0000 0.09800  0.18000  0.39500  Biso   1.000  H
  H18      1.0000 0.90200  0.82000  0.60500  Biso   1.000  H
  H19      1.0000 0.43900  0.19600  0.75200  Biso   1.000  H
  H20      1.0000 0.56100  0.80400  0.24800  Biso   1.000  H
  H21      1.0000 0.34000  0.05300  0.73400  Biso   1.000  H
  H22      1.0000 0.66000  0.94700  0.26600  Biso   1.000  H
