data_image0
_cell_length_a       10.1336
_cell_length_b       16.7572
_cell_length_c       16.207
_cell_angle_alpha    90
_cell_angle_beta     95.402
_cell_angle_gamma    90

_symmetry_space_group_name_H-M    "P 1"
_symmetry_int_tables_number       1

loop_
  _symmetry_equiv_pos_as_xyz
  'x, y, z'

loop_
  _atom_site_label
  _atom_site_occupancy
  _atom_site_fract_x
  _atom_site_fract_y
  _atom_site_fract_z
  _atom_site_thermal_displace_type
  _atom_site_B_iso_or_equiv
  _atom_site_type_symbol
  Mn1      1.0000 0.14457  0.32809  0.08722  Biso   1.000  Mn
  Mn2      1.0000 0.35543  0.82809  0.41278  Biso   1.000  Mn
  Mn3      1.0000 0.85543  0.67191  0.91278  Biso   1.000  Mn
  Mn4      1.0000 0.64457  0.17191  0.58722  Biso   1.000  Mn
  Mn5      1.0000 0.93417  0.31244  0.38256  Biso   1.000  Mn
  Mn6      1.0000 0.56583  0.81244  0.11744  Biso   1.000  Mn
  Mn7      1.0000 0.06583  0.68756  0.61744  Biso   1.000  Mn
  Mn8      1.0000 0.43417  0.18756  0.88256  Biso   1.000  Mn
  Cu1      1.0000 0.03882  0.10726  0.05715  Biso   1.000  Cu
  Cu2      1.0000 0.46118  0.60726  0.44285  Biso   1.000  Cu
  Cu3      1.0000 0.96118  0.89274  0.94285  Biso   1.000  Cu
  Cu4      1.0000 0.53882  0.39274  0.55715  Biso   1.000  Cu
  Cu5      1.0000 0.66335  0.20985  0.24057  Biso   1.000  Cu
  Cu6      1.0000 0.83665  0.70985  0.25943  Biso   1.000  Cu
  Cu7      1.0000 0.33665  0.79015  0.75943  Biso   1.000  Cu
  Cu8      1.0000 0.16335  0.29015  0.74057  Biso   1.000  Cu
  P1       1.0000 0.95634  0.21037  0.19949  Biso   1.000  P
  P2       1.0000 0.54366  0.71037  0.30051  Biso   1.000  P
  P3       1.0000 0.04366  0.78963  0.80051  Biso   1.000  P
  P4       1.0000 0.45634  0.28963  0.69949  Biso   1.000  P
  P5       1.0000 0.62336  0.28295  0.41190  Biso   1.000  P
  P6       1.0000 0.87664  0.78295  0.08810  Biso   1.000  P
  P7       1.0000 0.37664  0.71705  0.58810  Biso   1.000  P
  P8       1.0000 0.12336  0.21705  0.91190  Biso   1.000  P
  C1       1.0000 0.08570  0.98785  0.17424  Biso   1.000  C
  C2       1.0000 0.41430  0.48785  0.32576  Biso   1.000  C
  C3       1.0000 0.91430  0.01215  0.82576  Biso   1.000  C
  C4       1.0000 0.58570  0.51215  0.67424  Biso   1.000  C
  H1       1.0000 0.05970  0.94220  0.13750  Biso   1.000  H
  H2       1.0000 0.44030  0.44220  0.36250  Biso   1.000  H
  H3       1.0000 0.94030  0.05780  0.86250  Biso   1.000  H
  H4       1.0000 0.55970  0.55780  0.63750  Biso   1.000  H
  H5       1.0000 0.09010  0.96920  0.23240  Biso   1.000  H
  H6       1.0000 0.40990  0.46920  0.26760  Biso   1.000  H
  H7       1.0000 0.90990  0.03080  0.76760  Biso   1.000  H
  H8       1.0000 0.59010  0.53080  0.73240  Biso   1.000  H
  C5       1.0000 0.84920  0.02386  0.14528  Biso   1.000  C
  C6       1.0000 0.65080  0.52386  0.35472  Biso   1.000  C
  C7       1.0000 0.15080  0.97614  0.85472  Biso   1.000  C
  C8       1.0000 0.34920  0.47614  0.64528  Biso   1.000  C
  H9       1.0000 0.79890  0.03960  0.19220  Biso   1.000  H
  H10      1.0000 0.70110  0.53960  0.30780  Biso   1.000  H
  H11      1.0000 0.20110  0.96040  0.80780  Biso   1.000  H
  H12      1.0000 0.29890  0.46040  0.69220  Biso   1.000  H
  H13      1.0000 0.84930  0.96490  0.14230  Biso   1.000  H
  H14      1.0000 0.65070  0.46490  0.35770  Biso   1.000  H
  H15      1.0000 0.15070  0.03510  0.85770  Biso   1.000  H
  H16      1.0000 0.34930  0.53510  0.64230  Biso   1.000  H
  C9       1.0000 0.00400  0.11021  0.23115  Biso   1.000  C
  C10      1.0000 0.49600  0.61021  0.26885  Biso   1.000  C
  C11      1.0000 0.99600  0.88979  0.76885  Biso   1.000  C
  C12      1.0000 0.50400  0.38979  0.73115  Biso   1.000  C
  H17      1.0000 0.09780  0.11030  0.25460  Biso   1.000  H
  H18      1.0000 0.40220  0.61030  0.24540  Biso   1.000  H
  H19      1.0000 0.90220  0.88970  0.74540  Biso   1.000  H
  H20      1.0000 0.59780  0.38970  0.75460  Biso   1.000  H
  H21      1.0000 0.94910  0.09250  0.27510  Biso   1.000  H
  H22      1.0000 0.55090  0.59250  0.22490  Biso   1.000  H
  H23      1.0000 0.05090  0.90750  0.72490  Biso   1.000  H
  H24      1.0000 0.44910  0.40750  0.77510  Biso   1.000  H
  C13      1.0000 0.22030  0.01989  0.15519  Biso   1.000  C
  C14      1.0000 0.27970  0.51989  0.34481  Biso   1.000  C
  C15      1.0000 0.77970  0.98011  0.84481  Biso   1.000  C
  C16      1.0000 0.72030  0.48011  0.65519  Biso   1.000  C
  C17      1.0000 0.78090  0.05718  0.06556  Biso   1.000  C
  C18      1.0000 0.71910  0.55718  0.43444  Biso   1.000  C
  C19      1.0000 0.21910  0.94282  0.93444  Biso   1.000  C
  C20      1.0000 0.28090  0.44282  0.56556  Biso   1.000  C
  C21      1.0000 0.48970  0.11630  0.32950  Biso   1.000  C
  C22      1.0000 0.01030  0.61630  0.17050  Biso   1.000  C
  C23      1.0000 0.51030  0.88370  0.67050  Biso   1.000  C
  C24      1.0000 0.98970  0.38370  0.82950  Biso   1.000  C
  H25      1.0000 0.43150  0.07900  0.29560  Biso   1.000  H
  H26      1.0000 0.06850  0.57900  0.20440  Biso   1.000  H
  H27      1.0000 0.56850  0.92100  0.70440  Biso   1.000  H
  H28      1.0000 0.93150  0.42100  0.79560  Biso   1.000  H
  H29      1.0000 0.45440  0.12190  0.38410  Biso   1.000  H
  H30      1.0000 0.04560  0.62190  0.11590  Biso   1.000  H
  H31      1.0000 0.54560  0.87810  0.61590  Biso   1.000  H
  H32      1.0000 0.95440  0.37810  0.88410  Biso   1.000  H
  C25      1.0000 0.38930  0.20290  0.21514  Biso   1.000  C
  C26      1.0000 0.11070  0.70290  0.28486  Biso   1.000  C
  C27      1.0000 0.61070  0.79710  0.78486  Biso   1.000  C
  C28      1.0000 0.88930  0.29710  0.71514  Biso   1.000  C
  H33      1.0000 0.30260  0.21890  0.23340  Biso   1.000  H
  H34      1.0000 0.19740  0.71890  0.26660  Biso   1.000  H
  H35      1.0000 0.69740  0.78110  0.76660  Biso   1.000  H
  H36      1.0000 0.80260  0.28110  0.73340  Biso   1.000  H
  H37      1.0000 0.37810  0.15090  0.18640  Biso   1.000  H
  H38      1.0000 0.12190  0.65090  0.31360  Biso   1.000  H
  H39      1.0000 0.62190  0.84910  0.81360  Biso   1.000  H
  H40      1.0000 0.87810  0.34910  0.68640  Biso   1.000  H
  H41      1.0000 0.43930  0.30930  0.31530  Biso   1.000  H
  H42      1.0000 0.06070  0.80930  0.18470  Biso   1.000  H
  H43      1.0000 0.56070  0.69070  0.68470  Biso   1.000  H
  H44      1.0000 0.93930  0.19070  0.81530  Biso   1.000  H
  H45      1.0000 0.39910  0.24610  0.38220  Biso   1.000  H
  H46      1.0000 0.10090  0.74610  0.11780  Biso   1.000  H
  H47      1.0000 0.60090  0.75390  0.61780  Biso   1.000  H
  H48      1.0000 0.89910  0.25390  0.88220  Biso   1.000  H
  C29      1.0000 0.47220  0.26219  0.34629  Biso   1.000  C
  C30      1.0000 0.02780  0.76219  0.15371  Biso   1.000  C
  C31      1.0000 0.52780  0.73781  0.65371  Biso   1.000  C
  C32      1.0000 0.97220  0.23781  0.84629  Biso   1.000  C
  C33      1.0000 0.62900  0.08230  0.34140  Biso   1.000  C
  C34      1.0000 0.87100  0.58230  0.15860  Biso   1.000  C
  C35      1.0000 0.37100  0.91770  0.65860  Biso   1.000  C
  C36      1.0000 0.12900  0.41770  0.84140  Biso   1.000  C
  C37      1.0000 0.43580  0.26530  0.15619  Biso   1.000  C
  C38      1.0000 0.06420  0.76530  0.34381  Biso   1.000  C
  C39      1.0000 0.56420  0.73470  0.84381  Biso   1.000  C
  C40      1.0000 0.93580  0.23470  0.65619  Biso   1.000  C
  N1       1.0000 0.98760  0.05286  0.16074  Biso   1.000  N
  N2       1.0000 0.51240  0.55286  0.33926  Biso   1.000  N
  N3       1.0000 0.01240  0.94714  0.83926  Biso   1.000  N
  N4       1.0000 0.48760  0.44714  0.66074  Biso   1.000  N
  N5       1.0000 0.48820  0.19530  0.28802  Biso   1.000  N
  N6       1.0000 0.01180  0.69530  0.21198  Biso   1.000  N
  N7       1.0000 0.51180  0.80470  0.71198  Biso   1.000  N
  N8       1.0000 0.98820  0.30470  0.78802  Biso   1.000  N
  O1       1.0000 0.21940  0.07331  0.09974  Biso   1.000  O
  O2       1.0000 0.28060  0.57331  0.40026  Biso   1.000  O
  O3       1.0000 0.78060  0.92669  0.90026  Biso   1.000  O
  O4       1.0000 0.71940  0.42669  0.59974  Biso   1.000  O
  O5       1.0000 0.32240  0.99267  0.19374  Biso   1.000  O
  O6       1.0000 0.17760  0.49267  0.30626  Biso   1.000  O
  O7       1.0000 0.67760  0.00733  0.80626  Biso   1.000  O
  O8       1.0000 0.82240  0.50733  0.69374  Biso   1.000  O
  O9       1.0000 0.85190  0.09250  0.01555  Biso   1.000  O
  O10      1.0000 0.64810  0.59250  0.48445  Biso   1.000  O
  O11      1.0000 0.14810  0.90750  0.98445  Biso   1.000  O
  O12      1.0000 0.35190  0.40750  0.51555  Biso   1.000  O
  O13      1.0000 0.65960  0.04653  0.05150  Biso   1.000  O
  O14      1.0000 0.84040  0.54653  0.44850  Biso   1.000  O
  O15      1.0000 0.34040  0.95347  0.94850  Biso   1.000  O
  O16      1.0000 0.15960  0.45347  0.55150  Biso   1.000  O
  O17      1.0000 0.80780  0.21116  0.17250  Biso   1.000  O
  O18      1.0000 0.69220  0.71116  0.32750  Biso   1.000  O
  O19      1.0000 0.19220  0.78884  0.82750  Biso   1.000  O
  O20      1.0000 0.30780  0.28884  0.67250  Biso   1.000  O
  O21      1.0000 0.99490  0.26344  0.27315  Biso   1.000  O
  O22      1.0000 0.50510  0.76344  0.22685  Biso   1.000  O
  O23      1.0000 0.00510  0.73656  0.72685  Biso   1.000  O
  O24      1.0000 0.49490  0.23656  0.77315  Biso   1.000  O
  O25      1.0000 0.03550  0.22604  0.12564  Biso   1.000  O
  O26      1.0000 0.46450  0.72604  0.37436  Biso   1.000  O
  O27      1.0000 0.96450  0.77396  0.87436  Biso   1.000  O
  O28      1.0000 0.53550  0.27396  0.62564  Biso   1.000  O
  O29      1.0000 0.71950  0.11628  0.30512  Biso   1.000  O
  O30      1.0000 0.78050  0.61628  0.19488  Biso   1.000  O
  O31      1.0000 0.28050  0.88372  0.69488  Biso   1.000  O
  O32      1.0000 0.21950  0.38372  0.80512  Biso   1.000  O
  O33      1.0000 0.64910  0.02131  0.38464  Biso   1.000  O
  O34      1.0000 0.85090  0.52131  0.11536  Biso   1.000  O
  O35      1.0000 0.35090  0.97869  0.61536  Biso   1.000  O
  O36      1.0000 0.14910  0.47869  0.88464  Biso   1.000  O
  O37      1.0000 0.55990  0.28034  0.16258  Biso   1.000  O
  O38      1.0000 0.94010  0.78034  0.33742  Biso   1.000  O
  O39      1.0000 0.44010  0.71966  0.83742  Biso   1.000  O
  O40      1.0000 0.05990  0.21966  0.66258  Biso   1.000  O
  O41      1.0000 0.35580  0.29587  0.10311  Biso   1.000  O
  O42      1.0000 0.14420  0.79587  0.39689  Biso   1.000  O
  O43      1.0000 0.64420  0.70413  0.89689  Biso   1.000  O
  O44      1.0000 0.85580  0.20413  0.60311  Biso   1.000  O
  O45      1.0000 0.72870  0.29336  0.35085  Biso   1.000  O
  O46      1.0000 0.77130  0.79336  0.14915  Biso   1.000  O
  O47      1.0000 0.27130  0.70664  0.64915  Biso   1.000  O
  O48      1.0000 0.22870  0.20664  0.85085  Biso   1.000  O
  O49      1.0000 0.65080  0.21254  0.46843  Biso   1.000  O
  O50      1.0000 0.84920  0.71254  0.03157  Biso   1.000  O
  O51      1.0000 0.34920  0.78746  0.53157  Biso   1.000  O
  O52      1.0000 0.15080  0.28746  0.96843  Biso   1.000  O
  O53      1.0000 0.59740  0.36102  0.45452  Biso   1.000  O
  O54      1.0000 0.90260  0.86102  0.04548  Biso   1.000  O
  O55      1.0000 0.40260  0.63898  0.54548  Biso   1.000  O
  O56      1.0000 0.09740  0.13898  0.95452  Biso   1.000  O
  O57      1.0000 0.95890  0.38964  0.05189  Biso   1.000  O
  O58      1.0000 0.54110  0.88964  0.44811  Biso   1.000  O
  O59      1.0000 0.04110  0.61036  0.94811  Biso   1.000  O
  O60      1.0000 0.45890  0.11036  0.55189  Biso   1.000  O
  H49      1.0000 0.94480  0.42480  0.08760  Biso   1.000  H
  H50      1.0000 0.55520  0.92480  0.41240  Biso   1.000  H
  H51      1.0000 0.05520  0.57520  0.91240  Biso   1.000  H
  H52      1.0000 0.44480  0.07520  0.58760  Biso   1.000  H
  H53      1.0000 0.89150  0.38760  0.01690  Biso   1.000  H
  H54      1.0000 0.60850  0.88760  0.48310  Biso   1.000  H
  H55      1.0000 0.10850  0.61240  0.98310  Biso   1.000  H
  H56      1.0000 0.39150  0.11240  0.51690  Biso   1.000  H
  O61      1.0000 0.21410  0.45072  0.05670  Biso   1.000  O
  O62      1.0000 0.28590  0.95072  0.44330  Biso   1.000  O
  O63      1.0000 0.78590  0.54928  0.94330  Biso   1.000  O
  O64      1.0000 0.71410  0.04928  0.55670  Biso   1.000  O
  H57      1.0000 0.28210  0.47590  0.07680  Biso   1.000  H
  H58      1.0000 0.21790  0.97590  0.42320  Biso   1.000  H
  H59      1.0000 0.71790  0.52410  0.92320  Biso   1.000  H
  H60      1.0000 0.78210  0.02410  0.57680  Biso   1.000  H
  H61      1.0000 0.21640  0.44830  0.00460  Biso   1.000  H
  H62      1.0000 0.28360  0.94830  0.49540  Biso   1.000  H
  H63      1.0000 0.78360  0.55170  0.99540  Biso   1.000  H
  H64      1.0000 0.71640  0.05170  0.50460  Biso   1.000  H
  O65      1.0000 0.17670  0.35857  0.21532  Biso   1.000  O
  O66      1.0000 0.32330  0.85857  0.28468  Biso   1.000  O
  O67      1.0000 0.82330  0.64143  0.78468  Biso   1.000  O
  O68      1.0000 0.67670  0.14143  0.71532  Biso   1.000  O
  H65      1.0000 0.24320  0.38350  0.23800  Biso   1.000  H
  H66      1.0000 0.25680  0.88350  0.26200  Biso   1.000  H
  H67      1.0000 0.75680  0.61650  0.76200  Biso   1.000  H
  H68      1.0000 0.74320  0.11650  0.73800  Biso   1.000  H
  H69      1.0000 0.14030  0.33480  0.25320  Biso   1.000  H
  H70      1.0000 0.35970  0.83480  0.24680  Biso   1.000  H
  H71      1.0000 0.85970  0.66520  0.74680  Biso   1.000  H
  H72      1.0000 0.64030  0.16520  0.75320  Biso   1.000  H
  O69      1.0000 0.15090  0.32200  0.41373  Biso   1.000  O
  O70      1.0000 0.34910  0.82200  0.08627  Biso   1.000  O
  O71      1.0000 0.84910  0.67800  0.58627  Biso   1.000  O
  O72      1.0000 0.65090  0.17800  0.91373  Biso   1.000  O
  H73      1.0000 0.21230  0.29360  0.43760  Biso   1.000  H
  H74      1.0000 0.28770  0.79360  0.06240  Biso   1.000  H
  H75      1.0000 0.78770  0.70640  0.56240  Biso   1.000  H
  H76      1.0000 0.71230  0.20640  0.93760  Biso   1.000  H
  H77      1.0000 0.16830  0.37040  0.42570  Biso   1.000  H
  H78      1.0000 0.33170  0.87040  0.07430  Biso   1.000  H
  H79      1.0000 0.83170  0.62960  0.57430  Biso   1.000  H
  H80      1.0000 0.66830  0.12960  0.92570  Biso   1.000  H
  O73      1.0000 0.95000  0.19189  0.44664  Biso   1.000  O
  O74      1.0000 0.55000  0.69189  0.05336  Biso   1.000  O
  O75      1.0000 0.05000  0.80811  0.55336  Biso   1.000  O
  O76      1.0000 0.45000  0.30811  0.94664  Biso   1.000  O
  H81      1.0000 0.87350  0.18800  0.46250  Biso   1.000  H
  H82      1.0000 0.62650  0.68800  0.03750  Biso   1.000  H
  H83      1.0000 0.12650  0.81200  0.53750  Biso   1.000  H
  H84      1.0000 0.37350  0.31200  0.96250  Biso   1.000  H
  H85      1.0000 0.00290  0.20310  0.48870  Biso   1.000  H
  H86      1.0000 0.49710  0.70310  0.01130  Biso   1.000  H
  H87      1.0000 0.99710  0.79690  0.51130  Biso   1.000  H
  H88      1.0000 0.50290  0.29690  0.98870  Biso   1.000  H
  O77      1.0000 0.92670  0.36277  0.50972  Biso   1.000  O
  O78      1.0000 0.57330  0.86277  0.99028  Biso   1.000  O
  O79      1.0000 0.07330  0.63723  0.49028  Biso   1.000  O
  O80      1.0000 0.42670  0.13723  0.00972  Biso   1.000  O
  H89      1.0000 0.86410  0.37860  0.53640  Biso   1.000  H
  H90      1.0000 0.63590  0.87860  0.96360  Biso   1.000  H
  H91      1.0000 0.13590  0.62140  0.46360  Biso   1.000  H
  H92      1.0000 0.36410  0.12140  0.03640  Biso   1.000  H
  H93      1.0000 0.99410  0.35660  0.54420  Biso   1.000  H
  H94      1.0000 0.50590  0.85660  0.95580  Biso   1.000  H
  H95      1.0000 0.00590  0.64340  0.45580  Biso   1.000  H
  H96      1.0000 0.49410  0.14340  0.04420  Biso   1.000  H
  O81      1.0000 0.93740  0.43742  0.34375  Biso   1.000  O
  O82      1.0000 0.56260  0.93742  0.15625  Biso   1.000  O
  O83      1.0000 0.06260  0.56258  0.65625  Biso   1.000  O
  O84      1.0000 0.43740  0.06258  0.84375  Biso   1.000  O
  H97      1.0000 0.88190  0.47400  0.33020  Biso   1.000  H
  H98      1.0000 0.61810  0.97400  0.16980  Biso   1.000  H
  H99      1.0000 0.11810  0.52600  0.66980  Biso   1.000  H
  H100     1.0000 0.38190  0.02600  0.83020  Biso   1.000  H
  H101     1.0000 0.01380  0.45770  0.34480  Biso   1.000  H
  H102     1.0000 0.48620  0.95770  0.15520  Biso   1.000  H
  H103     1.0000 0.98620  0.54230  0.65520  Biso   1.000  H
  H104     1.0000 0.51380  0.04230  0.84480  Biso   1.000  H
  O85      1.0000 0.74270  0.29279  0.02588  Biso   1.000  O
  O86      1.0000 0.75730  0.79279  0.47412  Biso   1.000  O
  O87      1.0000 0.25730  0.70721  0.97412  Biso   1.000  O
  O88      1.0000 0.24270  0.20721  0.52588  Biso   1.000  O
  H105     1.0000 0.73770  0.27390  0.07400  Biso   1.000  H
  H106     1.0000 0.76230  0.77390  0.42600  Biso   1.000  H
  H107     1.0000 0.26230  0.72610  0.92600  Biso   1.000  H
  H108     1.0000 0.23770  0.22610  0.57400  Biso   1.000  H
  H109     1.0000 0.67890  0.27380  0.99430  Biso   1.000  H
  H110     1.0000 0.82110  0.77380  0.50570  Biso   1.000  H
  H111     1.0000 0.32110  0.72620  0.00570  Biso   1.000  H
  H112     1.0000 0.17890  0.22620  0.49430  Biso   1.000  H
  O89      1.0000 0.04450  0.03020  0.42890  Biso   1.000  O
  O90      1.0000 0.45550  0.53020  0.07110  Biso   1.000  O
  O91      1.0000 0.95550  0.96980  0.57110  Biso   1.000  O
  O92      1.0000 0.54450  0.46980  0.92890  Biso   1.000  O
  H113     1.0000 0.12790  0.02800  0.43710  Biso   1.000  H
  H114     1.0000 0.37210  0.52800  0.06290  Biso   1.000  H
  H115     1.0000 0.87210  0.97200  0.56290  Biso   1.000  H
  H116     1.0000 0.62790  0.47200  0.93710  Biso   1.000  H
  H117     1.0000 0.02450  0.07150  0.40010  Biso   1.000  H
  H118     1.0000 0.47550  0.57150  0.09990  Biso   1.000  H
  H119     1.0000 0.97550  0.92850  0.59990  Biso   1.000  H
  H120     1.0000 0.52450  0.42850  0.90010  Biso   1.000  H
  O93      1.0000 0.88080  0.94660  0.33550  Biso   1.000  O
  O94      1.0000 0.61920  0.44660  0.16450  Biso   1.000  O
  O95      1.0000 0.11920  0.05340  0.66450  Biso   1.000  O
  O96      1.0000 0.38080  0.55340  0.83550  Biso   1.000  O
  H121     1.0000 0.80760  0.96590  0.34640  Biso   1.000  H
  H122     1.0000 0.69240  0.46590  0.15360  Biso   1.000  H
  H123     1.0000 0.19240  0.03410  0.65360  Biso   1.000  H
  H124     1.0000 0.30760  0.53410  0.84640  Biso   1.000  H
  H125     1.0000 0.86630  0.90040  0.31530  Biso   1.000  H
  H126     1.0000 0.63370  0.40040  0.18470  Biso   1.000  H
  H127     1.0000 0.13370  0.09960  0.68470  Biso   1.000  H
  H128     1.0000 0.36630  0.59960  0.81530  Biso   1.000  H
