data_image0
_cell_length_a       8.2368
_cell_length_b       20.366
_cell_length_c       9.4063
_cell_angle_alpha    90
_cell_angle_beta     110.286
_cell_angle_gamma    90

_symmetry_space_group_name_H-M    "P 1"
_symmetry_int_tables_number       1

loop_
  _symmetry_equiv_pos_as_xyz
  'x, y, z'

loop_
  _atom_site_label
  _atom_site_occupancy
  _atom_site_fract_x
  _atom_site_fract_y
  _atom_site_fract_z
  _atom_site_thermal_displace_type
  _atom_site_B_iso_or_equiv
  _atom_site_type_symbol
  Cu1      1.0000 0.96034  0.29709  0.04591  Biso   1.000  Cu
  Cu2      1.0000 0.03966  0.79709  0.45409  Biso   1.000  Cu
  Cu3      1.0000 0.03966  0.70291  0.95409  Biso   1.000  Cu
  Cu4      1.0000 0.96034  0.20291  0.54591  Biso   1.000  Cu
  Nd1      1.0000 0.61932  0.35192  0.59720  Biso   1.000  Nd
  Nd2      1.0000 0.38068  0.85192  0.90280  Biso   1.000  Nd
  Nd3      1.0000 0.38068  0.64808  0.40280  Biso   1.000  Nd
  Nd4      1.0000 0.61932  0.14808  0.09720  Biso   1.000  Nd
  P1       1.0000 0.78227  0.30062  0.30036  Biso   1.000  P
  P2       1.0000 0.21773  0.80062  0.19964  Biso   1.000  P
  P3       1.0000 0.21773  0.69938  0.69964  Biso   1.000  P
  P4       1.0000 0.78227  0.19938  0.80036  Biso   1.000  P
  C1       1.0000 0.21740  0.31042  0.32040  Biso   1.000  C
  C2       1.0000 0.78260  0.81042  0.17960  Biso   1.000  C
  C3       1.0000 0.78260  0.68958  0.67960  Biso   1.000  C
  C4       1.0000 0.21740  0.18958  0.82040  Biso   1.000  C
  C5       1.0000 0.13870  0.37900  0.29090  Biso   1.000  C
  C6       1.0000 0.86130  0.87900  0.20910  Biso   1.000  C
  C7       1.0000 0.86130  0.62100  0.70910  Biso   1.000  C
  C8       1.0000 0.13870  0.12100  0.79090  Biso   1.000  C
  H1       1.0000 0.21730  0.40860  0.26180  Biso   1.000  H
  H2       1.0000 0.78270  0.90860  0.23820  Biso   1.000  H
  H3       1.0000 0.78270  0.59140  0.73820  Biso   1.000  H
  H4       1.0000 0.21730  0.09140  0.76180  Biso   1.000  H
  H5       1.0000 0.12650  0.39630  0.38500  Biso   1.000  H
  H6       1.0000 0.87350  0.89630  0.11500  Biso   1.000  H
  H7       1.0000 0.87350  0.60370  0.61500  Biso   1.000  H
  H8       1.0000 0.12650  0.10370  0.88500  Biso   1.000  H
  C9       1.0000 0.94000  0.43322  0.05960  Biso   1.000  C
  C10      1.0000 0.06000  0.93322  0.44040  Biso   1.000  C
  C11      1.0000 0.06000  0.56678  0.94040  Biso   1.000  C
  C12      1.0000 0.94000  0.06678  0.55960  Biso   1.000  C
  H9       1.0000 0.88930  0.47130  0.09490  Biso   1.000  H
  H10      1.0000 0.11070  0.97130  0.40510  Biso   1.000  H
  H11      1.0000 0.11070  0.52870  0.90510  Biso   1.000  H
  H12      1.0000 0.88930  0.02870  0.59490  Biso   1.000  H
  H13      1.0000 0.05260  0.44680  0.05330  Biso   1.000  H
  H14      1.0000 0.94740  0.94680  0.44670  Biso   1.000  H
  H15      1.0000 0.94740  0.55320  0.94670  Biso   1.000  H
  H16      1.0000 0.05260  0.05320  0.55330  Biso   1.000  H
  C13      1.0000 0.81910  0.41136  0.90430  Biso   1.000  C
  C14      1.0000 0.18090  0.91136  0.59570  Biso   1.000  C
  C15      1.0000 0.18090  0.58864  0.09570  Biso   1.000  C
  C16      1.0000 0.81910  0.08864  0.40430  Biso   1.000  C
  C17      1.0000 0.82010  0.37913  0.22840  Biso   1.000  C
  C18      1.0000 0.17990  0.87913  0.27160  Biso   1.000  C
  C19      1.0000 0.17990  0.62087  0.77160  Biso   1.000  C
  C20      1.0000 0.82010  0.12087  0.72840  Biso   1.000  C
  H17      1.0000 0.84780  0.41050  0.31160  Biso   1.000  H
  H18      1.0000 0.15220  0.91050  0.18840  Biso   1.000  H
  H19      1.0000 0.15220  0.58950  0.68840  Biso   1.000  H
  H20      1.0000 0.84780  0.08950  0.81160  Biso   1.000  H
  H21      1.0000 0.71360  0.39340  0.14960  Biso   1.000  H
  H22      1.0000 0.28640  0.89340  0.35040  Biso   1.000  H
  H23      1.0000 0.28640  0.60660  0.85040  Biso   1.000  H
  H24      1.0000 0.71360  0.10660  0.64960  Biso   1.000  H
  C21      1.0000 0.43040  0.49736  0.53800  Biso   1.000  C
  C22      1.0000 0.56960  0.99736  0.96200  Biso   1.000  C
  C23      1.0000 0.56960  0.50264  0.46200  Biso   1.000  C
  C24      1.0000 0.43040  0.00264  0.03800  Biso   1.000  C
  N1       1.0000 0.96590  0.37825  0.16790  Biso   1.000  N
  N2       1.0000 0.03410  0.87825  0.33210  Biso   1.000  N
  N3       1.0000 0.03410  0.62175  0.83210  Biso   1.000  N
  N4       1.0000 0.96590  0.12175  0.66790  Biso   1.000  N
  O1       1.0000 0.15600  0.26667  0.21880  Biso   1.000  O
  O2       1.0000 0.84400  0.76667  0.28120  Biso   1.000  O
  O3       1.0000 0.84400  0.73333  0.78120  Biso   1.000  O
  O4       1.0000 0.15600  0.23333  0.71880  Biso   1.000  O
  O5       1.0000 0.34170  0.30030  0.44100  Biso   1.000  O
  O6       1.0000 0.65830  0.80030  0.05900  Biso   1.000  O
  O7       1.0000 0.65830  0.69970  0.55900  Biso   1.000  O
  O8       1.0000 0.34170  0.19970  0.94100  Biso   1.000  O
  O9       1.0000 0.79600  0.34881  0.88320  Biso   1.000  O
  O10      1.0000 0.20400  0.84881  0.61680  Biso   1.000  O
  O11      1.0000 0.20400  0.65119  0.11680  Biso   1.000  O
  O12      1.0000 0.79600  0.15119  0.38320  Biso   1.000  O
  O13      1.0000 0.75150  0.45070  0.80170  Biso   1.000  O
  O14      1.0000 0.24850  0.95070  0.69830  Biso   1.000  O
  O15      1.0000 0.24850  0.54930  0.19830  Biso   1.000  O
  O16      1.0000 0.75150  0.04930  0.30170  Biso   1.000  O
  O17      1.0000 0.63720  0.31045  0.36190  Biso   1.000  O
  O18      1.0000 0.36280  0.81045  0.13810  Biso   1.000  O
  O19      1.0000 0.36280  0.68955  0.63810  Biso   1.000  O
  O20      1.0000 0.63720  0.18955  0.86190  Biso   1.000  O
  O21      1.0000 0.95220  0.28140  0.42920  Biso   1.000  O
  O22      1.0000 0.04780  0.78140  0.07080  Biso   1.000  O
  O23      1.0000 0.04780  0.71860  0.57080  Biso   1.000  O
  O24      1.0000 0.95220  0.21860  0.92920  Biso   1.000  O
  O25      1.0000 0.73900  0.25503  0.16460  Biso   1.000  O
  O26      1.0000 0.26100  0.75503  0.33540  Biso   1.000  O
  O27      1.0000 0.26100  0.74497  0.83540  Biso   1.000  O
  O28      1.0000 0.73900  0.24497  0.66460  Biso   1.000  O
  O29      1.0000 0.94230  0.36893  0.64330  Biso   1.000  O
  O30      1.0000 0.05770  0.86893  0.85670  Biso   1.000  O
  O31      1.0000 0.05770  0.63107  0.35670  Biso   1.000  O
  O32      1.0000 0.94230  0.13107  0.14330  Biso   1.000  O
  H25      1.0000 0.00120  0.36100  0.73440  Biso   1.000  H
  H26      1.0000 0.99880  0.86100  0.76560  Biso   1.000  H
  H27      1.0000 0.99880  0.63900  0.26560  Biso   1.000  H
  H28      1.0000 0.00120  0.13900  0.23440  Biso   1.000  H
  H29      1.0000 0.99490  0.35290  0.58860  Biso   1.000  H
  H30      1.0000 0.00510  0.85290  0.91140  Biso   1.000  H
  H31      1.0000 0.00510  0.64710  0.41140  Biso   1.000  H
  H32      1.0000 0.99490  0.14710  0.08860  Biso   1.000  H
  O33      1.0000 0.45400  0.31182  0.75940  Biso   1.000  O
  O34      1.0000 0.54600  0.81182  0.74060  Biso   1.000  O
  O35      1.0000 0.54600  0.68818  0.24060  Biso   1.000  O
  O36      1.0000 0.45400  0.18818  0.25940  Biso   1.000  O
  H33      1.0000 0.48200  0.27700  0.80980  Biso   1.000  H
  H34      1.0000 0.51800  0.77700  0.69020  Biso   1.000  H
  H35      1.0000 0.51800  0.72300  0.19020  Biso   1.000  H
  H36      1.0000 0.48200  0.22300  0.30980  Biso   1.000  H
  H37      1.0000 0.34540  0.31460  0.72880  Biso   1.000  H
  H38      1.0000 0.65460  0.81460  0.77120  Biso   1.000  H
  H39      1.0000 0.65460  0.68540  0.27120  Biso   1.000  H
  H40      1.0000 0.34540  0.18540  0.22880  Biso   1.000  H
  O37      1.0000 0.40640  0.44147  0.58540  Biso   1.000  O
  O38      1.0000 0.59360  0.94147  0.91460  Biso   1.000  O
  O39      1.0000 0.59360  0.55853  0.41460  Biso   1.000  O
  O40      1.0000 0.40640  0.05853  0.08540  Biso   1.000  O
  O41      1.0000 0.35180  0.54905  0.54500  Biso   1.000  O
  O42      1.0000 0.64820  0.04905  0.95500  Biso   1.000  O
  O43      1.0000 0.64820  0.45095  0.45500  Biso   1.000  O
  O44      1.0000 0.35180  0.95095  0.04500  Biso   1.000  O
  O45      1.0000 0.00000  0.50000  0.50000  Biso   1.000  O
  O46      1.0000 0.00000  0.00000  0.00000  Biso   1.000  O
  H41      1.0000 0.08990  0.51690  0.49220  Biso   1.000  H
  H42      1.0000 0.91010  0.01690  0.00780  Biso   1.000  H
  H43      1.0000 0.91010  0.48310  0.50780  Biso   1.000  H
  H44      1.0000 0.08990  0.98310  0.99220  Biso   1.000  H
  O47      1.0000 0.07400  0.47690  0.61900  Biso   1.000  O
  O48      1.0000 0.92600  0.97690  0.88100  Biso   1.000  O
  O49      1.0000 0.92600  0.52310  0.38100  Biso   1.000  O
  O50      1.0000 0.07400  0.02310  0.11900  Biso   1.000  O
  H45      1.0000 0.18170  0.47170  0.64560  Biso   1.000  H
  H46      1.0000 0.81830  0.97170  0.85440  Biso   1.000  H
  H47      1.0000 0.81830  0.52830  0.35440  Biso   1.000  H
  H48      1.0000 0.18170  0.02830  0.14560  Biso   1.000  H
  H49      1.0000 0.03770  0.45260  0.67470  Biso   1.000  H
  H50      1.0000 0.96230  0.95260  0.82530  Biso   1.000  H
  H51      1.0000 0.96230  0.54740  0.32530  Biso   1.000  H
  H52      1.0000 0.03770  0.04740  0.17470  Biso   1.000  H
  O51      1.0000 0.19330  0.34655  0.94610  Biso   1.000  O
  O52      1.0000 0.80670  0.84655  0.55390  Biso   1.000  O
  O53      1.0000 0.80670  0.65345  0.05390  Biso   1.000  O
  O54      1.0000 0.19330  0.15345  0.44610  Biso   1.000  O
  H53      1.0000 0.11100  0.37020  0.91340  Biso   1.000  H
  H54      1.0000 0.88900  0.87020  0.58660  Biso   1.000  H
  H55      1.0000 0.88900  0.62980  0.08660  Biso   1.000  H
  H56      1.0000 0.11100  0.12980  0.41340  Biso   1.000  H
  H57      1.0000 0.21110  0.32350  0.88100  Biso   1.000  H
  H58      1.0000 0.78890  0.82350  0.61900  Biso   1.000  H
  H59      1.0000 0.78890  0.67650  0.11900  Biso   1.000  H
  H60      1.0000 0.21110  0.17650  0.38100  Biso   1.000  H
  O55      1.0000 0.37840  0.04127  0.40020  Biso   1.000  O
  O56      1.0000 0.62160  0.54127  0.09980  Biso   1.000  O
  O57      1.0000 0.62160  0.95873  0.59980  Biso   1.000  O
  O58      1.0000 0.37840  0.45873  0.90020  Biso   1.000  O
  H61      1.0000 0.40320  0.04920  0.32190  Biso   1.000  H
  H62      1.0000 0.59680  0.54920  0.17810  Biso   1.000  H
  H63      1.0000 0.59680  0.95080  0.67810  Biso   1.000  H
  H64      1.0000 0.40320  0.45080  0.82190  Biso   1.000  H
  H65      1.0000 0.37110  0.07730  0.44110  Biso   1.000  H
  H66      1.0000 0.62890  0.57730  0.05890  Biso   1.000  H
  H67      1.0000 0.62890  0.92270  0.55890  Biso   1.000  H
  H68      1.0000 0.37110  0.42270  0.94110  Biso   1.000  H
  H69      1.0000 0.95340  0.52800  0.53970  Biso   1.000  H
  H70      1.0000 0.04660  0.02800  0.96030  Biso   1.000  H
  H71      1.0000 0.04660  0.47200  0.46030  Biso   1.000  H
  H72      1.0000 0.95340  0.97200  0.03970  Biso   1.000  H
