data_image0
_cell_length_a       10.2176
_cell_length_b       16.7881
_cell_length_c       16.2442
_cell_angle_alpha    90
_cell_angle_beta     95.647
_cell_angle_gamma    90

_symmetry_space_group_name_H-M    "P 1"
_symmetry_int_tables_number       1

loop_
  _symmetry_equiv_pos_as_xyz
  'x, y, z'

loop_
  _atom_site_label
  _atom_site_occupancy
  _atom_site_fract_x
  _atom_site_fract_y
  _atom_site_fract_z
  _atom_site_thermal_displace_type
  _atom_site_B_iso_or_equiv
  _atom_site_type_symbol
  Cd1      1.0000 0.14428  0.33033  0.08846  Biso   1.000  Cd
  Cd2      1.0000 0.35572  0.83033  0.41154  Biso   1.000  Cd
  Cd3      1.0000 0.85572  0.66967  0.91154  Biso   1.000  Cd
  Cd4      1.0000 0.64428  0.16967  0.58846  Biso   1.000  Cd
  Cd5      1.0000 0.93467  0.31260  0.38595  Biso   1.000  Cd
  Cd6      1.0000 0.56533  0.81260  0.11405  Biso   1.000  Cd
  Cd7      1.0000 0.06533  0.68740  0.61405  Biso   1.000  Cd
  Cd8      1.0000 0.43467  0.18740  0.88595  Biso   1.000  Cd
  Cu1      1.0000 0.03883  0.10693  0.05720  Biso   1.000  Cu
  Cu2      1.0000 0.46117  0.60693  0.44280  Biso   1.000  Cu
  Cu3      1.0000 0.96117  0.89307  0.94280  Biso   1.000  Cu
  Cu4      1.0000 0.53883  0.39307  0.55720  Biso   1.000  Cu
  Cu5      1.0000 0.66444  0.20865  0.24216  Biso   1.000  Cu
  Cu6      1.0000 0.83556  0.70865  0.25784  Biso   1.000  Cu
  Cu7      1.0000 0.33556  0.79135  0.75784  Biso   1.000  Cu
  Cu8      1.0000 0.16444  0.29135  0.74216  Biso   1.000  Cu
  P1       1.0000 0.95663  0.20851  0.19936  Biso   1.000  P
  P2       1.0000 0.54337  0.70851  0.30064  Biso   1.000  P
  P3       1.0000 0.04337  0.79149  0.80064  Biso   1.000  P
  P4       1.0000 0.45663  0.29149  0.69936  Biso   1.000  P
  P5       1.0000 0.62132  0.28116  0.41207  Biso   1.000  P
  P6       1.0000 0.87868  0.78116  0.08793  Biso   1.000  P
  P7       1.0000 0.37868  0.71884  0.58793  Biso   1.000  P
  P8       1.0000 0.12132  0.21884  0.91207  Biso   1.000  P
  C1       1.0000 0.08590  0.98650  0.17330  Biso   1.000  C
  C2       1.0000 0.41410  0.48650  0.32670  Biso   1.000  C
  C3       1.0000 0.91410  0.01350  0.82670  Biso   1.000  C
  C4       1.0000 0.58590  0.51350  0.67330  Biso   1.000  C
  H1       1.0000 0.05970  0.94100  0.13660  Biso   1.000  H
  H2       1.0000 0.44030  0.44100  0.36340  Biso   1.000  H
  H3       1.0000 0.94030  0.05900  0.86340  Biso   1.000  H
  H4       1.0000 0.55970  0.55900  0.63660  Biso   1.000  H
  H5       1.0000 0.09070  0.96790  0.23140  Biso   1.000  H
  H6       1.0000 0.40930  0.46790  0.26860  Biso   1.000  H
  H7       1.0000 0.90930  0.03210  0.76860  Biso   1.000  H
  H8       1.0000 0.59070  0.53210  0.73140  Biso   1.000  H
  C5       1.0000 0.85080  0.02220  0.14470  Biso   1.000  C
  C6       1.0000 0.64920  0.52220  0.35530  Biso   1.000  C
  C7       1.0000 0.14920  0.97780  0.85530  Biso   1.000  C
  C8       1.0000 0.35080  0.47780  0.64470  Biso   1.000  C
  H9       1.0000 0.80100  0.03860  0.19120  Biso   1.000  H
  H10      1.0000 0.69900  0.53860  0.30880  Biso   1.000  H
  H11      1.0000 0.19900  0.96140  0.80880  Biso   1.000  H
  H12      1.0000 0.30100  0.46140  0.69120  Biso   1.000  H
  H13      1.0000 0.85080  0.96330  0.14240  Biso   1.000  H
  H14      1.0000 0.64920  0.46330  0.35760  Biso   1.000  H
  H15      1.0000 0.14920  0.03670  0.85760  Biso   1.000  H
  H16      1.0000 0.35080  0.53670  0.64240  Biso   1.000  H
  C9       1.0000 0.00460  0.10850  0.23040  Biso   1.000  C
  C10      1.0000 0.49540  0.60850  0.26960  Biso   1.000  C
  C11      1.0000 0.99540  0.89150  0.76960  Biso   1.000  C
  C12      1.0000 0.50460  0.39150  0.73040  Biso   1.000  C
  H17      1.0000 0.09770  0.10870  0.25400  Biso   1.000  H
  H18      1.0000 0.40230  0.60870  0.24600  Biso   1.000  H
  H19      1.0000 0.90230  0.89130  0.74600  Biso   1.000  H
  H20      1.0000 0.59770  0.39130  0.75400  Biso   1.000  H
  H21      1.0000 0.95040  0.09050  0.27410  Biso   1.000  H
  H22      1.0000 0.54960  0.59050  0.22590  Biso   1.000  H
  H23      1.0000 0.04960  0.90950  0.72590  Biso   1.000  H
  H24      1.0000 0.45040  0.40950  0.77410  Biso   1.000  H
  C13      1.0000 0.21960  0.01840  0.15420  Biso   1.000  C
  C14      1.0000 0.28040  0.51840  0.34580  Biso   1.000  C
  C15      1.0000 0.78040  0.98160  0.84580  Biso   1.000  C
  C16      1.0000 0.71960  0.48160  0.65420  Biso   1.000  C
  C17      1.0000 0.78330  0.05480  0.06460  Biso   1.000  C
  C18      1.0000 0.71670  0.55480  0.43540  Biso   1.000  C
  C19      1.0000 0.21670  0.94520  0.93540  Biso   1.000  C
  C20      1.0000 0.28330  0.44520  0.56460  Biso   1.000  C
  C21      1.0000 0.49270  0.11320  0.32880  Biso   1.000  C
  C22      1.0000 0.00730  0.61320  0.17120  Biso   1.000  C
  C23      1.0000 0.50730  0.88680  0.67120  Biso   1.000  C
  C24      1.0000 0.99270  0.38680  0.82880  Biso   1.000  C
  H25      1.0000 0.43610  0.07590  0.29420  Biso   1.000  H
  H26      1.0000 0.06390  0.57590  0.20580  Biso   1.000  H
  H27      1.0000 0.56390  0.92410  0.70580  Biso   1.000  H
  H28      1.0000 0.93610  0.42410  0.79420  Biso   1.000  H
  H29      1.0000 0.45690  0.11770  0.38310  Biso   1.000  H
  H30      1.0000 0.04310  0.61770  0.11690  Biso   1.000  H
  H31      1.0000 0.54310  0.88230  0.61690  Biso   1.000  H
  H32      1.0000 0.95690  0.38230  0.88310  Biso   1.000  H
  C25      1.0000 0.39210  0.20060  0.21510  Biso   1.000  C
  C26      1.0000 0.10790  0.70060  0.28490  Biso   1.000  C
  C27      1.0000 0.60790  0.79940  0.78490  Biso   1.000  C
  C28      1.0000 0.89210  0.29940  0.71510  Biso   1.000  C
  H33      1.0000 0.30560  0.21610  0.23280  Biso   1.000  H
  H34      1.0000 0.19440  0.71610  0.26720  Biso   1.000  H
  H35      1.0000 0.69440  0.78390  0.76720  Biso   1.000  H
  H36      1.0000 0.80560  0.28390  0.73280  Biso   1.000  H
  H37      1.0000 0.38190  0.14880  0.18620  Biso   1.000  H
  H38      1.0000 0.11810  0.64880  0.31380  Biso   1.000  H
  H39      1.0000 0.61810  0.85120  0.81380  Biso   1.000  H
  H40      1.0000 0.88190  0.35120  0.68620  Biso   1.000  H
  H41      1.0000 0.44210  0.30700  0.31530  Biso   1.000  H
  H42      1.0000 0.05790  0.80700  0.18470  Biso   1.000  H
  H43      1.0000 0.55790  0.69300  0.68470  Biso   1.000  H
  H44      1.0000 0.94210  0.19300  0.81530  Biso   1.000  H
  H45      1.0000 0.40190  0.24380  0.38220  Biso   1.000  H
  H46      1.0000 0.09810  0.74380  0.11780  Biso   1.000  H
  H47      1.0000 0.59810  0.75620  0.61780  Biso   1.000  H
  H48      1.0000 0.90190  0.25620  0.88220  Biso   1.000  H
  C29      1.0000 0.47120  0.25870  0.34690  Biso   1.000  C
  C30      1.0000 0.02880  0.75870  0.15310  Biso   1.000  C
  C31      1.0000 0.52880  0.74130  0.65310  Biso   1.000  C
  C32      1.0000 0.97120  0.24130  0.84690  Biso   1.000  C
  C33      1.0000 0.63160  0.08030  0.34130  Biso   1.000  C
  C34      1.0000 0.86840  0.58030  0.15870  Biso   1.000  C
  C35      1.0000 0.36840  0.91970  0.65870  Biso   1.000  C
  C36      1.0000 0.13160  0.41970  0.84130  Biso   1.000  C
  C37      1.0000 0.43860  0.26350  0.15700  Biso   1.000  C
  C38      1.0000 0.06140  0.76350  0.34300  Biso   1.000  C
  C39      1.0000 0.56140  0.73650  0.84300  Biso   1.000  C
  C40      1.0000 0.93860  0.23650  0.65700  Biso   1.000  C
  N1       1.0000 0.98870  0.05140  0.15990  Biso   1.000  N
  N2       1.0000 0.51130  0.55140  0.34010  Biso   1.000  N
  N3       1.0000 0.01130  0.94860  0.84010  Biso   1.000  N
  N4       1.0000 0.48870  0.44860  0.65990  Biso   1.000  N
  N5       1.0000 0.48950  0.19320  0.28820  Biso   1.000  N
  N6       1.0000 0.01050  0.69320  0.21180  Biso   1.000  N
  N7       1.0000 0.51050  0.80680  0.71180  Biso   1.000  N
  N8       1.0000 0.98950  0.30680  0.78820  Biso   1.000  N
  O1       1.0000 0.21890  0.07200  0.09960  Biso   1.000  O
  O2       1.0000 0.28110  0.57200  0.40040  Biso   1.000  O
  O3       1.0000 0.78110  0.92800  0.90040  Biso   1.000  O
  O4       1.0000 0.71890  0.42800  0.59960  Biso   1.000  O
  O5       1.0000 0.32120  0.99030  0.19190  Biso   1.000  O
  O6       1.0000 0.17880  0.49030  0.30810  Biso   1.000  O
  O7       1.0000 0.67880  0.00970  0.80810  Biso   1.000  O
  O8       1.0000 0.82120  0.50970  0.69190  Biso   1.000  O
  O9       1.0000 0.85340  0.09010  0.01500  Biso   1.000  O
  O10      1.0000 0.64660  0.59010  0.48500  Biso   1.000  O
  O11      1.0000 0.14660  0.90990  0.98500  Biso   1.000  O
  O12      1.0000 0.35340  0.40990  0.51500  Biso   1.000  O
  O13      1.0000 0.66320  0.04340  0.05020  Biso   1.000  O
  O14      1.0000 0.83680  0.54340  0.44980  Biso   1.000  O
  O15      1.0000 0.33680  0.95660  0.94980  Biso   1.000  O
  O16      1.0000 0.16320  0.45660  0.55020  Biso   1.000  O
  O17      1.0000 0.80870  0.21030  0.17510  Biso   1.000  O
  O18      1.0000 0.69130  0.71030  0.32490  Biso   1.000  O
  O19      1.0000 0.19130  0.78970  0.82490  Biso   1.000  O
  O20      1.0000 0.30870  0.28970  0.67510  Biso   1.000  O
  O21      1.0000 0.00120  0.26170  0.27190  Biso   1.000  O
  O22      1.0000 0.49880  0.76170  0.22810  Biso   1.000  O
  O23      1.0000 0.99880  0.73830  0.72810  Biso   1.000  O
  O24      1.0000 0.50120  0.23830  0.77190  Biso   1.000  O
  O25      1.0000 0.03100  0.22340  0.12390  Biso   1.000  O
  O26      1.0000 0.46900  0.72340  0.37610  Biso   1.000  O
  O27      1.0000 0.96900  0.77660  0.87610  Biso   1.000  O
  O28      1.0000 0.53100  0.27660  0.62390  Biso   1.000  O
  O29      1.0000 0.72120  0.11520  0.30560  Biso   1.000  O
  O30      1.0000 0.77880  0.61520  0.19440  Biso   1.000  O
  O31      1.0000 0.27880  0.88480  0.69440  Biso   1.000  O
  O32      1.0000 0.22120  0.38480  0.80560  Biso   1.000  O
  O33      1.0000 0.65280  0.02020  0.38450  Biso   1.000  O
  O34      1.0000 0.84720  0.52020  0.11550  Biso   1.000  O
  O35      1.0000 0.34720  0.97980  0.61550  Biso   1.000  O
  O36      1.0000 0.15280  0.47980  0.88450  Biso   1.000  O
  O37      1.0000 0.56120  0.27880  0.16450  Biso   1.000  O
  O38      1.0000 0.93880  0.77880  0.33550  Biso   1.000  O
  O39      1.0000 0.43880  0.72120  0.83550  Biso   1.000  O
  O40      1.0000 0.06120  0.22120  0.66450  Biso   1.000  O
  O41      1.0000 0.35980  0.29480  0.10380  Biso   1.000  O
  O42      1.0000 0.14020  0.79480  0.39620  Biso   1.000  O
  O43      1.0000 0.64020  0.70520  0.89620  Biso   1.000  O
  O44      1.0000 0.85980  0.20520  0.60380  Biso   1.000  O
  O45      1.0000 0.72260  0.29340  0.34970  Biso   1.000  O
  O46      1.0000 0.77740  0.79340  0.15030  Biso   1.000  O
  O47      1.0000 0.27740  0.70660  0.65030  Biso   1.000  O
  O48      1.0000 0.22260  0.20660  0.84970  Biso   1.000  O
  O49      1.0000 0.65410  0.21090  0.46690  Biso   1.000  O
  O50      1.0000 0.84590  0.71090  0.03310  Biso   1.000  O
  O51      1.0000 0.34590  0.78910  0.53310  Biso   1.000  O
  O52      1.0000 0.15410  0.28910  0.96690  Biso   1.000  O
  O53      1.0000 0.59510  0.35850  0.45510  Biso   1.000  O
  O54      1.0000 0.90490  0.85850  0.04490  Biso   1.000  O
  O55      1.0000 0.40490  0.64150  0.54490  Biso   1.000  O
  O56      1.0000 0.09510  0.14150  0.95510  Biso   1.000  O
  O57      1.0000 0.95450  0.39350  0.04750  Biso   1.000  O
  O58      1.0000 0.54550  0.89350  0.45250  Biso   1.000  O
  O59      1.0000 0.04550  0.60650  0.95250  Biso   1.000  O
  O60      1.0000 0.45450  0.10650  0.54750  Biso   1.000  O
  H49      1.0000 0.94040  0.42860  0.08330  Biso   1.000  H
  H50      1.0000 0.55960  0.92860  0.41670  Biso   1.000  H
  H51      1.0000 0.05960  0.57140  0.91670  Biso   1.000  H
  H52      1.0000 0.44040  0.07140  0.58330  Biso   1.000  H
  H53      1.0000 0.88710  0.39150  0.01250  Biso   1.000  H
  H54      1.0000 0.61290  0.89150  0.48750  Biso   1.000  H
  H55      1.0000 0.11290  0.60850  0.98750  Biso   1.000  H
  H56      1.0000 0.38710  0.10850  0.51250  Biso   1.000  H
  O61      1.0000 0.21710  0.45820  0.06020  Biso   1.000  O
  O62      1.0000 0.28290  0.95820  0.43980  Biso   1.000  O
  O63      1.0000 0.78290  0.54180  0.93980  Biso   1.000  O
  O64      1.0000 0.71710  0.04180  0.56020  Biso   1.000  O
  H57      1.0000 0.28510  0.48330  0.08030  Biso   1.000  H
  H58      1.0000 0.21490  0.98330  0.41970  Biso   1.000  H
  H59      1.0000 0.71490  0.51670  0.91970  Biso   1.000  H
  H60      1.0000 0.78510  0.01670  0.58030  Biso   1.000  H
  H61      1.0000 0.21940  0.45570  0.00810  Biso   1.000  H
  H62      1.0000 0.28060  0.95570  0.49190  Biso   1.000  H
  H63      1.0000 0.78060  0.54430  0.99190  Biso   1.000  H
  H64      1.0000 0.71940  0.04430  0.50810  Biso   1.000  H
  O65      1.0000 0.18270  0.35560  0.21920  Biso   1.000  O
  O66      1.0000 0.31730  0.85560  0.28080  Biso   1.000  O
  O67      1.0000 0.81730  0.64440  0.78080  Biso   1.000  O
  O68      1.0000 0.68270  0.14440  0.71920  Biso   1.000  O
  H65      1.0000 0.24920  0.38050  0.24190  Biso   1.000  H
  H66      1.0000 0.25080  0.88050  0.25810  Biso   1.000  H
  H67      1.0000 0.75080  0.61950  0.75810  Biso   1.000  H
  H68      1.0000 0.74920  0.11950  0.74190  Biso   1.000  H
  H69      1.0000 0.14630  0.33180  0.25710  Biso   1.000  H
  H70      1.0000 0.35370  0.83180  0.24290  Biso   1.000  H
  H71      1.0000 0.85370  0.66820  0.74290  Biso   1.000  H
  H72      1.0000 0.64630  0.16820  0.75710  Biso   1.000  H
  O69      1.0000 0.15980  0.32010  0.41570  Biso   1.000  O
  O70      1.0000 0.34020  0.82010  0.08430  Biso   1.000  O
  O71      1.0000 0.84020  0.67990  0.58430  Biso   1.000  O
  O72      1.0000 0.65980  0.17990  0.91570  Biso   1.000  O
  H73      1.0000 0.22110  0.29180  0.43960  Biso   1.000  H
  H74      1.0000 0.27890  0.79180  0.06040  Biso   1.000  H
  H75      1.0000 0.77890  0.70820  0.56040  Biso   1.000  H
  H76      1.0000 0.72110  0.20820  0.93960  Biso   1.000  H
  H77      1.0000 0.17710  0.36850  0.42770  Biso   1.000  H
  H78      1.0000 0.32290  0.86850  0.07230  Biso   1.000  H
  H79      1.0000 0.82290  0.63150  0.57230  Biso   1.000  H
  H80      1.0000 0.67710  0.13150  0.92770  Biso   1.000  H
  O73      1.0000 0.95190  0.18770  0.45130  Biso   1.000  O
  O74      1.0000 0.54810  0.68770  0.04870  Biso   1.000  O
  O75      1.0000 0.04810  0.81230  0.54870  Biso   1.000  O
  O76      1.0000 0.45190  0.31230  0.95130  Biso   1.000  O
  H81      1.0000 0.87540  0.18380  0.46720  Biso   1.000  H
  H82      1.0000 0.62460  0.68380  0.03280  Biso   1.000  H
  H83      1.0000 0.12460  0.81620  0.53280  Biso   1.000  H
  H84      1.0000 0.37540  0.31620  0.96720  Biso   1.000  H
  H85      1.0000 0.00480  0.19900  0.49340  Biso   1.000  H
  H86      1.0000 0.49520  0.69900  0.00660  Biso   1.000  H
  H87      1.0000 0.99520  0.80100  0.50660  Biso   1.000  H
  H88      1.0000 0.50480  0.30100  0.99340  Biso   1.000  H
  O77      1.0000 0.93280  0.36610  0.51740  Biso   1.000  O
  O78      1.0000 0.56720  0.86610  0.98260  Biso   1.000  O
  O79      1.0000 0.06720  0.63390  0.48260  Biso   1.000  O
  O80      1.0000 0.43280  0.13390  0.01740  Biso   1.000  O
  H89      1.0000 0.87020  0.38190  0.54410  Biso   1.000  H
  H90      1.0000 0.62980  0.88190  0.95590  Biso   1.000  H
  H91      1.0000 0.12980  0.61810  0.45590  Biso   1.000  H
  H92      1.0000 0.37020  0.11810  0.04410  Biso   1.000  H
  H93      1.0000 0.00020  0.35990  0.55190  Biso   1.000  H
  H94      1.0000 0.49980  0.85990  0.94810  Biso   1.000  H
  H95      1.0000 0.99980  0.64010  0.44810  Biso   1.000  H
  H96      1.0000 0.50020  0.14010  0.05190  Biso   1.000  H
  O81      1.0000 0.93720  0.44160  0.34280  Biso   1.000  O
  O82      1.0000 0.56280  0.94160  0.15720  Biso   1.000  O
  O83      1.0000 0.06280  0.55840  0.65720  Biso   1.000  O
  O84      1.0000 0.43720  0.05840  0.84280  Biso   1.000  O
  H97      1.0000 0.88170  0.47820  0.32920  Biso   1.000  H
  H98      1.0000 0.61830  0.97820  0.17080  Biso   1.000  H
  H99      1.0000 0.11830  0.52180  0.67080  Biso   1.000  H
  H100     1.0000 0.38170  0.02180  0.82920  Biso   1.000  H
  H101     1.0000 0.01360  0.46180  0.34380  Biso   1.000  H
  H102     1.0000 0.48640  0.96180  0.15620  Biso   1.000  H
  H103     1.0000 0.98640  0.53820  0.65620  Biso   1.000  H
  H104     1.0000 0.51360  0.03820  0.84380  Biso   1.000  H
  O85      1.0000 0.74580  0.29400  0.02910  Biso   1.000  O
  O86      1.0000 0.75420  0.79400  0.47090  Biso   1.000  O
  O87      1.0000 0.25420  0.70600  0.97090  Biso   1.000  O
  O88      1.0000 0.24580  0.20600  0.52910  Biso   1.000  O
  H105     1.0000 0.74090  0.27510  0.07730  Biso   1.000  H
  H106     1.0000 0.75910  0.77510  0.42270  Biso   1.000  H
  H107     1.0000 0.25910  0.72490  0.92270  Biso   1.000  H
  H108     1.0000 0.24090  0.22490  0.57730  Biso   1.000  H
  H109     1.0000 0.68210  0.27500  0.99760  Biso   1.000  H
  H110     1.0000 0.81790  0.77500  0.50240  Biso   1.000  H
  H111     1.0000 0.31790  0.72500  0.00240  Biso   1.000  H
  H112     1.0000 0.18210  0.22500  0.49760  Biso   1.000  H
  O89      1.0000 0.04310  0.02830  0.42810  Biso   1.000  O
  O90      1.0000 0.45690  0.52830  0.07190  Biso   1.000  O
  O91      1.0000 0.95690  0.97170  0.57190  Biso   1.000  O
  O92      1.0000 0.54310  0.47170  0.92810  Biso   1.000  O
  H113     1.0000 0.12650  0.02610  0.43630  Biso   1.000  H
  H114     1.0000 0.37350  0.52610  0.06370  Biso   1.000  H
  H115     1.0000 0.87350  0.97390  0.56370  Biso   1.000  H
  H116     1.0000 0.62650  0.47390  0.93630  Biso   1.000  H
  H117     1.0000 0.02310  0.06960  0.39930  Biso   1.000  H
  H118     1.0000 0.47690  0.56960  0.10070  Biso   1.000  H
  H119     1.0000 0.97690  0.93040  0.60070  Biso   1.000  H
  H120     1.0000 0.52310  0.43040  0.89930  Biso   1.000  H
  O93      1.0000 0.89050  0.94720  0.33880  Biso   1.000  O
  O94      1.0000 0.60950  0.44720  0.16120  Biso   1.000  O
  O95      1.0000 0.10950  0.05280  0.66120  Biso   1.000  O
  O96      1.0000 0.39050  0.55280  0.83880  Biso   1.000  O
  H121     1.0000 0.81720  0.96650  0.34970  Biso   1.000  H
  H122     1.0000 0.68280  0.46650  0.15030  Biso   1.000  H
  H123     1.0000 0.18280  0.03350  0.65030  Biso   1.000  H
  H124     1.0000 0.31720  0.53350  0.84970  Biso   1.000  H
  H125     1.0000 0.87590  0.90090  0.31860  Biso   1.000  H
  H126     1.0000 0.62410  0.40090  0.18140  Biso   1.000  H
  H127     1.0000 0.12410  0.09910  0.68140  Biso   1.000  H
  H128     1.0000 0.37590  0.59910  0.81860  Biso   1.000  H
