data_image0
_cell_length_a       10.0105
_cell_length_b       16.705
_cell_length_c       15.9762
_cell_angle_alpha    90
_cell_angle_beta     95.628
_cell_angle_gamma    90

_symmetry_space_group_name_H-M    "P 1"
_symmetry_int_tables_number       1

loop_
  _symmetry_equiv_pos_as_xyz
  'x, y, z'

loop_
  _atom_site_label
  _atom_site_occupancy
  _atom_site_fract_x
  _atom_site_fract_y
  _atom_site_fract_z
  _atom_site_thermal_displace_type
  _atom_site_B_iso_or_equiv
  _atom_site_type_symbol
  Co1      1.0000 0.14905  0.32459  0.09276  Biso   1.000  Co
  Co2      1.0000 0.35095  0.82459  0.40724  Biso   1.000  Co
  Co3      1.0000 0.85095  0.67541  0.90724  Biso   1.000  Co
  Co4      1.0000 0.64905  0.17541  0.59276  Biso   1.000  Co
  Co5      1.0000 0.93825  0.31174  0.38643  Biso   1.000  Co
  Co6      1.0000 0.56175  0.81174  0.11357  Biso   1.000  Co
  Co7      1.0000 0.06175  0.68826  0.61357  Biso   1.000  Co
  Co8      1.0000 0.43825  0.18826  0.88643  Biso   1.000  Co
  Cu1      1.0000 0.04302  0.10440  0.06168  Biso   1.000  Cu
  Cu2      1.0000 0.45698  0.60440  0.43832  Biso   1.000  Cu
  Cu3      1.0000 0.95698  0.89560  0.93832  Biso   1.000  Cu
  Cu4      1.0000 0.54302  0.39560  0.56168  Biso   1.000  Cu
  Cu5      1.0000 0.66745  0.20791  0.24580  Biso   1.000  Cu
  Cu6      1.0000 0.83255  0.70791  0.25420  Biso   1.000  Cu
  Cu7      1.0000 0.33255  0.79209  0.75420  Biso   1.000  Cu
  Cu8      1.0000 0.16745  0.29209  0.74580  Biso   1.000  Cu
  P1       1.0000 0.96113  0.20743  0.20458  Biso   1.000  P
  P2       1.0000 0.53887  0.70743  0.29542  Biso   1.000  P
  P3       1.0000 0.03887  0.79257  0.79542  Biso   1.000  P
  P4       1.0000 0.46113  0.29257  0.70458  Biso   1.000  P
  P5       1.0000 0.62907  0.28281  0.41787  Biso   1.000  P
  P6       1.0000 0.87093  0.78281  0.08213  Biso   1.000  P
  P7       1.0000 0.37093  0.71719  0.58213  Biso   1.000  P
  P8       1.0000 0.12907  0.21719  0.91787  Biso   1.000  P
  C1       1.0000 0.09120  0.98430  0.17980  Biso   1.000  C
  C2       1.0000 0.40880  0.48430  0.32020  Biso   1.000  C
  C3       1.0000 0.90880  0.01570  0.82020  Biso   1.000  C
  C4       1.0000 0.59120  0.51570  0.67980  Biso   1.000  C
  H1       1.0000 0.06480  0.93890  0.14200  Biso   1.000  H
  H2       1.0000 0.43520  0.43890  0.35800  Biso   1.000  H
  H3       1.0000 0.93520  0.06110  0.85800  Biso   1.000  H
  H4       1.0000 0.56480  0.56110  0.64200  Biso   1.000  H
  H5       1.0000 0.09560  0.96520  0.23870  Biso   1.000  H
  H6       1.0000 0.40440  0.46520  0.26130  Biso   1.000  H
  H7       1.0000 0.90440  0.03480  0.76130  Biso   1.000  H
  H8       1.0000 0.59560  0.53480  0.73870  Biso   1.000  H
  C5       1.0000 0.85150  0.02080  0.15090  Biso   1.000  C
  C6       1.0000 0.64850  0.52080  0.34910  Biso   1.000  C
  C7       1.0000 0.14850  0.97920  0.84910  Biso   1.000  C
  C8       1.0000 0.35150  0.47920  0.65090  Biso   1.000  C
  H9       1.0000 0.80100  0.03710  0.19840  Biso   1.000  H
  H10      1.0000 0.69900  0.53710  0.30160  Biso   1.000  H
  H11      1.0000 0.19900  0.96290  0.80160  Biso   1.000  H
  H12      1.0000 0.30100  0.46290  0.69840  Biso   1.000  H
  H13      1.0000 0.85130  0.96160  0.14840  Biso   1.000  H
  H14      1.0000 0.64870  0.46160  0.35160  Biso   1.000  H
  H15      1.0000 0.14870  0.03840  0.85160  Biso   1.000  H
  H16      1.0000 0.35130  0.53840  0.64840  Biso   1.000  H
  C9       1.0000 0.01010  0.10710  0.23790  Biso   1.000  C
  C10      1.0000 0.48990  0.60710  0.26210  Biso   1.000  C
  C11      1.0000 0.98990  0.89290  0.76210  Biso   1.000  C
  C12      1.0000 0.51010  0.39290  0.73790  Biso   1.000  C
  H17      1.0000 0.10540  0.10730  0.26140  Biso   1.000  H
  H18      1.0000 0.39460  0.60730  0.23860  Biso   1.000  H
  H19      1.0000 0.89460  0.89270  0.73860  Biso   1.000  H
  H20      1.0000 0.60540  0.39270  0.76140  Biso   1.000  H
  H21      1.0000 0.95520  0.08970  0.28280  Biso   1.000  H
  H22      1.0000 0.54480  0.58970  0.21720  Biso   1.000  H
  H23      1.0000 0.04480  0.91030  0.71720  Biso   1.000  H
  H24      1.0000 0.45520  0.41030  0.78280  Biso   1.000  H
  C13      1.0000 0.22730  0.01680  0.16110  Biso   1.000  C
  C14      1.0000 0.27270  0.51680  0.33890  Biso   1.000  C
  C15      1.0000 0.77270  0.98320  0.83890  Biso   1.000  C
  C16      1.0000 0.72730  0.48320  0.66110  Biso   1.000  C
  C17      1.0000 0.78190  0.05370  0.06970  Biso   1.000  C
  C18      1.0000 0.71810  0.55370  0.43030  Biso   1.000  C
  C19      1.0000 0.21810  0.94630  0.93030  Biso   1.000  C
  C20      1.0000 0.28190  0.44630  0.56970  Biso   1.000  C
  C21      1.0000 0.49250  0.11510  0.33720  Biso   1.000  C
  C22      1.0000 0.00750  0.61510  0.16280  Biso   1.000  C
  C23      1.0000 0.50750  0.88490  0.66280  Biso   1.000  C
  C24      1.0000 0.99250  0.38490  0.83720  Biso   1.000  C
  H25      1.0000 0.43280  0.07740  0.30350  Biso   1.000  H
  H26      1.0000 0.06720  0.57740  0.19650  Biso   1.000  H
  H27      1.0000 0.56720  0.92260  0.69650  Biso   1.000  H
  H28      1.0000 0.93280  0.42260  0.80350  Biso   1.000  H
  H29      1.0000 0.45760  0.12170  0.39260  Biso   1.000  H
  H30      1.0000 0.04240  0.62170  0.10740  Biso   1.000  H
  H31      1.0000 0.54240  0.87830  0.60740  Biso   1.000  H
  H32      1.0000 0.95760  0.37830  0.89260  Biso   1.000  H
  C25      1.0000 0.39060  0.20070  0.21980  Biso   1.000  C
  C26      1.0000 0.10940  0.70070  0.28020  Biso   1.000  C
  C27      1.0000 0.60940  0.79930  0.78020  Biso   1.000  C
  C28      1.0000 0.89060  0.29930  0.71980  Biso   1.000  C
  H33      1.0000 0.30260  0.21640  0.23810  Biso   1.000  H
  H34      1.0000 0.19740  0.71640  0.26190  Biso   1.000  H
  H35      1.0000 0.69740  0.78360  0.76190  Biso   1.000  H
  H36      1.0000 0.80260  0.28360  0.73810  Biso   1.000  H
  H37      1.0000 0.37970  0.14840  0.19080  Biso   1.000  H
  H38      1.0000 0.12030  0.64840  0.30920  Biso   1.000  H
  H39      1.0000 0.62030  0.85160  0.80920  Biso   1.000  H
  H40      1.0000 0.87970  0.35160  0.69080  Biso   1.000  H
  H41      1.0000 0.44060  0.30710  0.31990  Biso   1.000  H
  H42      1.0000 0.05940  0.80710  0.18010  Biso   1.000  H
  H43      1.0000 0.55940  0.69290  0.68010  Biso   1.000  H
  H44      1.0000 0.94060  0.19290  0.81990  Biso   1.000  H
  H45      1.0000 0.40040  0.24390  0.38690  Biso   1.000  H
  H46      1.0000 0.09960  0.74390  0.11310  Biso   1.000  H
  H47      1.0000 0.59960  0.75610  0.61310  Biso   1.000  H
  H48      1.0000 0.90040  0.25610  0.88690  Biso   1.000  H
  C29      1.0000 0.47590  0.26180  0.35180  Biso   1.000  C
  C30      1.0000 0.02410  0.76180  0.14820  Biso   1.000  C
  C31      1.0000 0.52410  0.73820  0.64820  Biso   1.000  C
  C32      1.0000 0.97590  0.23820  0.85180  Biso   1.000  C
  C33      1.0000 0.63310  0.08050  0.34950  Biso   1.000  C
  C34      1.0000 0.86690  0.58050  0.15050  Biso   1.000  C
  C35      1.0000 0.36690  0.91950  0.65050  Biso   1.000  C
  C36      1.0000 0.13310  0.41950  0.84950  Biso   1.000  C
  C37      1.0000 0.43660  0.26310  0.16000  Biso   1.000  C
  C38      1.0000 0.06340  0.76310  0.34000  Biso   1.000  C
  C39      1.0000 0.56340  0.73690  0.84000  Biso   1.000  C
  C40      1.0000 0.93660  0.23690  0.66000  Biso   1.000  C
  N1       1.0000 0.99220  0.04967  0.16643  Biso   1.000  N
  N2       1.0000 0.50780  0.54967  0.33357  Biso   1.000  N
  N3       1.0000 0.00780  0.95033  0.83357  Biso   1.000  N
  N4       1.0000 0.49220  0.45033  0.66643  Biso   1.000  N
  N5       1.0000 0.49090  0.19366  0.29379  Biso   1.000  N
  N6       1.0000 0.00910  0.69366  0.20621  Biso   1.000  N
  N7       1.0000 0.50910  0.80634  0.70621  Biso   1.000  N
  N8       1.0000 0.99090  0.30634  0.79379  Biso   1.000  N
  O1       1.0000 0.22570  0.06990  0.10452  Biso   1.000  O
  O2       1.0000 0.27430  0.56990  0.39548  Biso   1.000  O
  O3       1.0000 0.77430  0.93010  0.89548  Biso   1.000  O
  O4       1.0000 0.72570  0.43010  0.60452  Biso   1.000  O
  O5       1.0000 0.33090  0.99068  0.20112  Biso   1.000  O
  O6       1.0000 0.16910  0.49068  0.29888  Biso   1.000  O
  O7       1.0000 0.66910  0.00932  0.79888  Biso   1.000  O
  O8       1.0000 0.83090  0.50932  0.70112  Biso   1.000  O
  O9       1.0000 0.85420  0.08869  0.01898  Biso   1.000  O
  O10      1.0000 0.64580  0.58869  0.48102  Biso   1.000  O
  O11      1.0000 0.14580  0.91131  0.98102  Biso   1.000  O
  O12      1.0000 0.35420  0.41131  0.51898  Biso   1.000  O
  O13      1.0000 0.65960  0.04345  0.05507  Biso   1.000  O
  O14      1.0000 0.84040  0.54345  0.44493  Biso   1.000  O
  O15      1.0000 0.34040  0.95655  0.94493  Biso   1.000  O
  O16      1.0000 0.15960  0.45655  0.55507  Biso   1.000  O
  O17      1.0000 0.81120  0.20709  0.17560  Biso   1.000  O
  O18      1.0000 0.68880  0.70709  0.32440  Biso   1.000  O
  O19      1.0000 0.18880  0.79291  0.82440  Biso   1.000  O
  O20      1.0000 0.31120  0.29291  0.67560  Biso   1.000  O
  O21      1.0000 0.99820  0.26174  0.27877  Biso   1.000  O
  O22      1.0000 0.50180  0.76174  0.22123  Biso   1.000  O
  O23      1.0000 0.00180  0.73826  0.72123  Biso   1.000  O
  O24      1.0000 0.49820  0.23826  0.77877  Biso   1.000  O
  O25      1.0000 0.04230  0.22262  0.13025  Biso   1.000  O
  O26      1.0000 0.45770  0.72262  0.36975  Biso   1.000  O
  O27      1.0000 0.95770  0.77738  0.86975  Biso   1.000  O
  O28      1.0000 0.54230  0.27738  0.63025  Biso   1.000  O
  O29      1.0000 0.72510  0.11463  0.31295  Biso   1.000  O
  O30      1.0000 0.77490  0.61463  0.18705  Biso   1.000  O
  O31      1.0000 0.27490  0.88537  0.68705  Biso   1.000  O
  O32      1.0000 0.22510  0.38537  0.81295  Biso   1.000  O
  O33      1.0000 0.65300  0.01980  0.39380  Biso   1.000  O
  O34      1.0000 0.84700  0.51980  0.10620  Biso   1.000  O
  O35      1.0000 0.34700  0.98020  0.60620  Biso   1.000  O
  O36      1.0000 0.15300  0.48020  0.89380  Biso   1.000  O
  O37      1.0000 0.56260  0.27865  0.16688  Biso   1.000  O
  O38      1.0000 0.93740  0.77865  0.33312  Biso   1.000  O
  O39      1.0000 0.43740  0.72135  0.83312  Biso   1.000  O
  O40      1.0000 0.06260  0.22135  0.66688  Biso   1.000  O
  O41      1.0000 0.35570  0.29421  0.10632  Biso   1.000  O
  O42      1.0000 0.14430  0.79421  0.39368  Biso   1.000  O
  O43      1.0000 0.64430  0.70579  0.89368  Biso   1.000  O
  O44      1.0000 0.85570  0.20579  0.60632  Biso   1.000  O
  O45      1.0000 0.73590  0.29133  0.35601  Biso   1.000  O
  O46      1.0000 0.76410  0.79133  0.14399  Biso   1.000  O
  O47      1.0000 0.26410  0.70867  0.64399  Biso   1.000  O
  O48      1.0000 0.23590  0.20867  0.85601  Biso   1.000  O
  O49      1.0000 0.65510  0.21270  0.47640  Biso   1.000  O
  O50      1.0000 0.84490  0.71270  0.02360  Biso   1.000  O
  O51      1.0000 0.34490  0.78730  0.52360  Biso   1.000  O
  O52      1.0000 0.15510  0.28730  0.97640  Biso   1.000  O
  O53      1.0000 0.60450  0.36243  0.45915  Biso   1.000  O
  O54      1.0000 0.89550  0.86243  0.04085  Biso   1.000  O
  O55      1.0000 0.39550  0.63757  0.54085  Biso   1.000  O
  O56      1.0000 0.10450  0.13757  0.95915  Biso   1.000  O
  O57      1.0000 0.96820  0.38280  0.05940  Biso   1.000  O
  O58      1.0000 0.53180  0.88280  0.44060  Biso   1.000  O
  O59      1.0000 0.03180  0.61720  0.94060  Biso   1.000  O
  O60      1.0000 0.46820  0.11720  0.55940  Biso   1.000  O
  H49      1.0000 0.95410  0.41800  0.09510  Biso   1.000  H
  H50      1.0000 0.54590  0.91800  0.40490  Biso   1.000  H
  H51      1.0000 0.04590  0.58200  0.90490  Biso   1.000  H
  H52      1.0000 0.45410  0.08200  0.59510  Biso   1.000  H
  H53      1.0000 0.90080  0.38080  0.02440  Biso   1.000  H
  H54      1.0000 0.59920  0.88080  0.47560  Biso   1.000  H
  H55      1.0000 0.09920  0.61920  0.97560  Biso   1.000  H
  H56      1.0000 0.40080  0.11920  0.52440  Biso   1.000  H
  O61      1.0000 0.22530  0.44460  0.06590  Biso   1.000  O
  O62      1.0000 0.27470  0.94460  0.43410  Biso   1.000  O
  O63      1.0000 0.77470  0.55540  0.93410  Biso   1.000  O
  O64      1.0000 0.72530  0.05540  0.56590  Biso   1.000  O
  H57      1.0000 0.29330  0.46970  0.08590  Biso   1.000  H
  H58      1.0000 0.20670  0.96970  0.41410  Biso   1.000  H
  H59      1.0000 0.70670  0.53030  0.91410  Biso   1.000  H
  H60      1.0000 0.79330  0.03030  0.58590  Biso   1.000  H
  H61      1.0000 0.22760  0.44210  0.01380  Biso   1.000  H
  H62      1.0000 0.27240  0.94210  0.48620  Biso   1.000  H
  H63      1.0000 0.77240  0.55790  0.98620  Biso   1.000  H
  H64      1.0000 0.72760  0.05790  0.51380  Biso   1.000  H
  O65      1.0000 0.17680  0.35452  0.21522  Biso   1.000  O
  O66      1.0000 0.32320  0.85452  0.28478  Biso   1.000  O
  O67      1.0000 0.82320  0.64548  0.78478  Biso   1.000  O
  O68      1.0000 0.67680  0.14548  0.71522  Biso   1.000  O
  H65      1.0000 0.24330  0.37940  0.23790  Biso   1.000  H
  H66      1.0000 0.25670  0.87940  0.26210  Biso   1.000  H
  H67      1.0000 0.75670  0.62060  0.76210  Biso   1.000  H
  H68      1.0000 0.74330  0.12060  0.73790  Biso   1.000  H
  H69      1.0000 0.14040  0.33070  0.25310  Biso   1.000  H
  H70      1.0000 0.35960  0.83070  0.24690  Biso   1.000  H
  H71      1.0000 0.85960  0.66930  0.74690  Biso   1.000  H
  H72      1.0000 0.64040  0.16930  0.75310  Biso   1.000  H
  O69      1.0000 0.14800  0.32626  0.41468  Biso   1.000  O
  O70      1.0000 0.35200  0.82626  0.08532  Biso   1.000  O
  O71      1.0000 0.85200  0.67374  0.58532  Biso   1.000  O
  O72      1.0000 0.64800  0.17374  0.91468  Biso   1.000  O
  H73      1.0000 0.20940  0.29790  0.43860  Biso   1.000  H
  H74      1.0000 0.29060  0.79790  0.06140  Biso   1.000  H
  H75      1.0000 0.79060  0.70210  0.56140  Biso   1.000  H
  H76      1.0000 0.70940  0.20210  0.93860  Biso   1.000  H
  H77      1.0000 0.16540  0.37470  0.42660  Biso   1.000  H
  H78      1.0000 0.33460  0.87470  0.07340  Biso   1.000  H
  H79      1.0000 0.83460  0.62530  0.57340  Biso   1.000  H
  H80      1.0000 0.66540  0.12530  0.92660  Biso   1.000  H
  O73      1.0000 0.95330  0.19731  0.44767  Biso   1.000  O
  O74      1.0000 0.54670  0.69731  0.05233  Biso   1.000  O
  O75      1.0000 0.04670  0.80269  0.55233  Biso   1.000  O
  O76      1.0000 0.45330  0.30269  0.94767  Biso   1.000  O
  H81      1.0000 0.87670  0.19340  0.46360  Biso   1.000  H
  H82      1.0000 0.62330  0.69340  0.03640  Biso   1.000  H
  H83      1.0000 0.12330  0.80660  0.53640  Biso   1.000  H
  H84      1.0000 0.37670  0.30660  0.96360  Biso   1.000  H
  H85      1.0000 0.00620  0.20860  0.48980  Biso   1.000  H
  H86      1.0000 0.49380  0.70860  0.01020  Biso   1.000  H
  H87      1.0000 0.99380  0.79140  0.51020  Biso   1.000  H
  H88      1.0000 0.50620  0.29140  0.98980  Biso   1.000  H
  O77      1.0000 0.92610  0.36223  0.50902  Biso   1.000  O
  O78      1.0000 0.57390  0.86223  0.99098  Biso   1.000  O
  O79      1.0000 0.07390  0.63777  0.49098  Biso   1.000  O
  O80      1.0000 0.42610  0.13777  0.00902  Biso   1.000  O
  H89      1.0000 0.86350  0.37810  0.53570  Biso   1.000  H
  H90      1.0000 0.63650  0.87810  0.96430  Biso   1.000  H
  H91      1.0000 0.13650  0.62190  0.46430  Biso   1.000  H
  H92      1.0000 0.36350  0.12190  0.03570  Biso   1.000  H
  H93      1.0000 0.99350  0.35600  0.54350  Biso   1.000  H
  H94      1.0000 0.50650  0.85600  0.95650  Biso   1.000  H
  H95      1.0000 0.00650  0.64400  0.45650  Biso   1.000  H
  H96      1.0000 0.49350  0.14400  0.04350  Biso   1.000  H
  O81      1.0000 0.93210  0.42908  0.34146  Biso   1.000  O
  O82      1.0000 0.56790  0.92908  0.15854  Biso   1.000  O
  O83      1.0000 0.06790  0.57092  0.65854  Biso   1.000  O
  O84      1.0000 0.43210  0.07092  0.84146  Biso   1.000  O
  H97      1.0000 0.87660  0.46570  0.32790  Biso   1.000  H
  H98      1.0000 0.62340  0.96570  0.17210  Biso   1.000  H
  H99      1.0000 0.12340  0.53430  0.67210  Biso   1.000  H
  H100     1.0000 0.37660  0.03430  0.82790  Biso   1.000  H
  H101     1.0000 0.00850  0.44930  0.34250  Biso   1.000  H
  H102     1.0000 0.49150  0.94930  0.15750  Biso   1.000  H
  H103     1.0000 0.99150  0.55070  0.65750  Biso   1.000  H
  H104     1.0000 0.50850  0.05070  0.84250  Biso   1.000  H
  O85      1.0000 0.75000  0.28810  0.02570  Biso   1.000  O
  O86      1.0000 0.75000  0.78810  0.47430  Biso   1.000  O
  O87      1.0000 0.25000  0.71190  0.97430  Biso   1.000  O
  O88      1.0000 0.25000  0.21190  0.52570  Biso   1.000  O
  H105     1.0000 0.74500  0.26930  0.07380  Biso   1.000  H
  H106     1.0000 0.75500  0.76930  0.42620  Biso   1.000  H
  H107     1.0000 0.25500  0.73070  0.92620  Biso   1.000  H
  H108     1.0000 0.24500  0.23070  0.57380  Biso   1.000  H
  H109     1.0000 0.68620  0.26920  0.99410  Biso   1.000  H
  H110     1.0000 0.81380  0.76920  0.50590  Biso   1.000  H
  H111     1.0000 0.31380  0.73080  0.00590  Biso   1.000  H
  H112     1.0000 0.18620  0.23080  0.49410  Biso   1.000  H
  O89      1.0000 0.05110  0.03490  0.43870  Biso   1.000  O
  O90      1.0000 0.44890  0.53490  0.06130  Biso   1.000  O
  O91      1.0000 0.94890  0.96510  0.56130  Biso   1.000  O
  O92      1.0000 0.55110  0.46510  0.93870  Biso   1.000  O
  H113     1.0000 0.13450  0.03270  0.44680  Biso   1.000  H
  H114     1.0000 0.36550  0.53270  0.05320  Biso   1.000  H
  H115     1.0000 0.86550  0.96730  0.55320  Biso   1.000  H
  H116     1.0000 0.63450  0.46730  0.94680  Biso   1.000  H
  H117     1.0000 0.03110  0.07620  0.40990  Biso   1.000  H
  H118     1.0000 0.46890  0.57620  0.09010  Biso   1.000  H
  H119     1.0000 0.96890  0.92380  0.59010  Biso   1.000  H
  H120     1.0000 0.53110  0.42380  0.90990  Biso   1.000  H
  O93      1.0000 0.91510  0.94580  0.37420  Biso   1.000  O
  O94      1.0000 0.58490  0.44580  0.12580  Biso   1.000  O
  O95      1.0000 0.08490  0.05420  0.62580  Biso   1.000  O
  O96      1.0000 0.41510  0.55420  0.87420  Biso   1.000  O
  H121     1.0000 0.84190  0.96500  0.38510  Biso   1.000  H
  H122     1.0000 0.65810  0.46500  0.11490  Biso   1.000  H
  H123     1.0000 0.15810  0.03500  0.61490  Biso   1.000  H
  H124     1.0000 0.34190  0.53500  0.88510  Biso   1.000  H
  H125     1.0000 0.90060  0.89950  0.35400  Biso   1.000  H
  H126     1.0000 0.59940  0.39950  0.14600  Biso   1.000  H
  H127     1.0000 0.09940  0.10050  0.64600  Biso   1.000  H
  H128     1.0000 0.40060  0.60050  0.85400  Biso   1.000  H
