data_image0
_cell_length_a       8.3028
_cell_length_b       20.6398
_cell_length_c       9.463
_cell_angle_alpha    90
_cell_angle_beta     109.867
_cell_angle_gamma    90

_symmetry_space_group_name_H-M    "P 1"
_symmetry_int_tables_number       1

loop_
  _symmetry_equiv_pos_as_xyz
  'x, y, z'

loop_
  _atom_site_label
  _atom_site_occupancy
  _atom_site_fract_x
  _atom_site_fract_y
  _atom_site_fract_z
  _atom_site_thermal_displace_type
  _atom_site_B_iso_or_equiv
  _atom_site_type_symbol
  Cu1      1.0000 0.96315  0.29679  0.05105  Biso   1.000  Cu
  Cu2      1.0000 0.03685  0.79679  0.44895  Biso   1.000  Cu
  Cu3      1.0000 0.03685  0.70321  0.94895  Biso   1.000  Cu
  Cu4      1.0000 0.96315  0.20321  0.55105  Biso   1.000  Cu
  La1      1.0000 0.62315  0.35161  0.60107  Biso   1.000  La
  La2      1.0000 0.37685  0.85161  0.89893  Biso   1.000  La
  La3      1.0000 0.37685  0.64839  0.39893  Biso   1.000  La
  La4      1.0000 0.62315  0.14839  0.10107  Biso   1.000  La
  P1       1.0000 0.79087  0.30018  0.30559  Biso   1.000  P
  P2       1.0000 0.20913  0.80018  0.19441  Biso   1.000  P
  P3       1.0000 0.20913  0.69982  0.69441  Biso   1.000  P
  P4       1.0000 0.79087  0.19982  0.80559  Biso   1.000  P
  C1       1.0000 0.21920  0.31048  0.32250  Biso   1.000  C
  C2       1.0000 0.78080  0.81048  0.17750  Biso   1.000  C
  C3       1.0000 0.78080  0.68952  0.67750  Biso   1.000  C
  C4       1.0000 0.21920  0.18952  0.82250  Biso   1.000  C
  C5       1.0000 0.14300  0.37854  0.29220  Biso   1.000  C
  C6       1.0000 0.85700  0.87854  0.20780  Biso   1.000  C
  C7       1.0000 0.85700  0.62146  0.70780  Biso   1.000  C
  C8       1.0000 0.14300  0.12146  0.79220  Biso   1.000  C
  H1       1.0000 0.22070  0.40700  0.26080  Biso   1.000  H
  H2       1.0000 0.77930  0.90700  0.23920  Biso   1.000  H
  H3       1.0000 0.77930  0.59300  0.73920  Biso   1.000  H
  H4       1.0000 0.22070  0.09300  0.76080  Biso   1.000  H
  H5       1.0000 0.13280  0.39650  0.38580  Biso   1.000  H
  H6       1.0000 0.86720  0.89650  0.11420  Biso   1.000  H
  H7       1.0000 0.86720  0.60350  0.61420  Biso   1.000  H
  H8       1.0000 0.13280  0.10350  0.88580  Biso   1.000  H
  C9       1.0000 0.94400  0.43223  0.06370  Biso   1.000  C
  C10      1.0000 0.05600  0.93223  0.43630  Biso   1.000  C
  C11      1.0000 0.05600  0.56777  0.93630  Biso   1.000  C
  C12      1.0000 0.94400  0.06777  0.56370  Biso   1.000  C
  H9       1.0000 0.89380  0.46980  0.09890  Biso   1.000  H
  H10      1.0000 0.10620  0.96980  0.40110  Biso   1.000  H
  H11      1.0000 0.10620  0.53020  0.90110  Biso   1.000  H
  H12      1.0000 0.89380  0.03020  0.59890  Biso   1.000  H
  H13      1.0000 0.05490  0.44580  0.05570  Biso   1.000  H
  H14      1.0000 0.94510  0.94580  0.44430  Biso   1.000  H
  H15      1.0000 0.94510  0.55420  0.94430  Biso   1.000  H
  H16      1.0000 0.05490  0.05420  0.55570  Biso   1.000  H
  C13      1.0000 0.82350  0.40997  0.91070  Biso   1.000  C
  C14      1.0000 0.17650  0.90997  0.58930  Biso   1.000  C
  C15      1.0000 0.17650  0.59003  0.08930  Biso   1.000  C
  C16      1.0000 0.82350  0.09003  0.41070  Biso   1.000  C
  C17      1.0000 0.82940  0.37823  0.23630  Biso   1.000  C
  C18      1.0000 0.17060  0.87823  0.26370  Biso   1.000  C
  C19      1.0000 0.17060  0.62177  0.76370  Biso   1.000  C
  C20      1.0000 0.82940  0.12177  0.73630  Biso   1.000  C
  H17      1.0000 0.85700  0.40960  0.31960  Biso   1.000  H
  H18      1.0000 0.14300  0.90960  0.18040  Biso   1.000  H
  H19      1.0000 0.14300  0.59040  0.68040  Biso   1.000  H
  H20      1.0000 0.85700  0.09040  0.81960  Biso   1.000  H
  H21      1.0000 0.72290  0.39260  0.15750  Biso   1.000  H
  H22      1.0000 0.27710  0.89260  0.34250  Biso   1.000  H
  H23      1.0000 0.27710  0.60740  0.84250  Biso   1.000  H
  H24      1.0000 0.72290  0.10740  0.65750  Biso   1.000  H
  C21      1.0000 0.43080  0.49757  0.53810  Biso   1.000  C
  C22      1.0000 0.56920  0.99757  0.96190  Biso   1.000  C
  C23      1.0000 0.56920  0.50243  0.46190  Biso   1.000  C
  C24      1.0000 0.43080  0.00243  0.03810  Biso   1.000  C
  N1       1.0000 0.97130  0.37787  0.17270  Biso   1.000  N
  N2       1.0000 0.02870  0.87787  0.32730  Biso   1.000  N
  N3       1.0000 0.02870  0.62213  0.82730  Biso   1.000  N
  N4       1.0000 0.97130  0.12213  0.67270  Biso   1.000  N
  O1       1.0000 0.15750  0.26709  0.22170  Biso   1.000  O
  O2       1.0000 0.84250  0.76709  0.27830  Biso   1.000  O
  O3       1.0000 0.84250  0.73291  0.77830  Biso   1.000  O
  O4       1.0000 0.15750  0.23291  0.72170  Biso   1.000  O
  O5       1.0000 0.34160  0.30071  0.44110  Biso   1.000  O
  O6       1.0000 0.65840  0.80071  0.05890  Biso   1.000  O
  O7       1.0000 0.65840  0.69929  0.55890  Biso   1.000  O
  O8       1.0000 0.34160  0.19929  0.94110  Biso   1.000  O
  O9       1.0000 0.80070  0.34824  0.89120  Biso   1.000  O
  O10      1.0000 0.19930  0.84824  0.60880  Biso   1.000  O
  O11      1.0000 0.19930  0.65176  0.10880  Biso   1.000  O
  O12      1.0000 0.80070  0.15176  0.39120  Biso   1.000  O
  O13      1.0000 0.75520  0.44890  0.80920  Biso   1.000  O
  O14      1.0000 0.24480  0.94890  0.69080  Biso   1.000  O
  O15      1.0000 0.24480  0.55110  0.19080  Biso   1.000  O
  O16      1.0000 0.75520  0.05110  0.30920  Biso   1.000  O
  O17      1.0000 0.64330  0.30949  0.36370  Biso   1.000  O
  O18      1.0000 0.35670  0.80949  0.13630  Biso   1.000  O
  O19      1.0000 0.35670  0.69051  0.63630  Biso   1.000  O
  O20      1.0000 0.64330  0.19051  0.86370  Biso   1.000  O
  O21      1.0000 0.95650  0.28094  0.43510  Biso   1.000  O
  O22      1.0000 0.04350  0.78094  0.06490  Biso   1.000  O
  O23      1.0000 0.04350  0.71906  0.56490  Biso   1.000  O
  O24      1.0000 0.95650  0.21906  0.93510  Biso   1.000  O
  O25      1.0000 0.75160  0.25580  0.16970  Biso   1.000  O
  O26      1.0000 0.24840  0.75580  0.33030  Biso   1.000  O
  O27      1.0000 0.24840  0.74420  0.83030  Biso   1.000  O
  O28      1.0000 0.75160  0.24420  0.66970  Biso   1.000  O
  O29      1.0000 0.95160  0.36853  0.64890  Biso   1.000  O
  O30      1.0000 0.04840  0.86853  0.85110  Biso   1.000  O
  O31      1.0000 0.04840  0.63147  0.35110  Biso   1.000  O
  O32      1.0000 0.95160  0.13147  0.14890  Biso   1.000  O
  H25      1.0000 0.01060  0.36060  0.74000  Biso   1.000  H
  H26      1.0000 0.98940  0.86060  0.76000  Biso   1.000  H
  H27      1.0000 0.98940  0.63940  0.26000  Biso   1.000  H
  H28      1.0000 0.01060  0.13940  0.24000  Biso   1.000  H
  H29      1.0000 0.00430  0.35250  0.59420  Biso   1.000  H
  H30      1.0000 0.99570  0.85250  0.90580  Biso   1.000  H
  H31      1.0000 0.99570  0.64750  0.40580  Biso   1.000  H
  H32      1.0000 0.00430  0.14750  0.09420  Biso   1.000  H
  O33      1.0000 0.45640  0.30881  0.76430  Biso   1.000  O
  O34      1.0000 0.54360  0.80881  0.73570  Biso   1.000  O
  O35      1.0000 0.54360  0.69119  0.23570  Biso   1.000  O
  O36      1.0000 0.45640  0.19119  0.26430  Biso   1.000  O
  H33      1.0000 0.48450  0.27400  0.81470  Biso   1.000  H
  H34      1.0000 0.51550  0.77400  0.68530  Biso   1.000  H
  H35      1.0000 0.51550  0.72600  0.18530  Biso   1.000  H
  H36      1.0000 0.48450  0.22600  0.31470  Biso   1.000  H
  H37      1.0000 0.34780  0.31150  0.73370  Biso   1.000  H
  H38      1.0000 0.65220  0.81150  0.76630  Biso   1.000  H
  H39      1.0000 0.65220  0.68850  0.26630  Biso   1.000  H
  H40      1.0000 0.34780  0.18850  0.23370  Biso   1.000  H
  O37      1.0000 0.40870  0.44262  0.58770  Biso   1.000  O
  O38      1.0000 0.59130  0.94262  0.91230  Biso   1.000  O
  O39      1.0000 0.59130  0.55738  0.41230  Biso   1.000  O
  O40      1.0000 0.40870  0.05738  0.08770  Biso   1.000  O
  O41      1.0000 0.35010  0.54802  0.54330  Biso   1.000  O
  O42      1.0000 0.64990  0.04802  0.95670  Biso   1.000  O
  O43      1.0000 0.64990  0.45198  0.45670  Biso   1.000  O
  O44      1.0000 0.35010  0.95198  0.04330  Biso   1.000  O
  O45      1.0000 0.00000  0.50000  0.50000  Biso   1.000  O
  O46      1.0000 0.00000  0.00000  0.00000  Biso   1.000  O
  H41      1.0000 0.08990  0.51690  0.49220  Biso   1.000  H
  H42      1.0000 0.91010  0.01690  0.00780  Biso   1.000  H
  H43      1.0000 0.91010  0.48310  0.50780  Biso   1.000  H
  H44      1.0000 0.08990  0.98310  0.99220  Biso   1.000  H
  O47      1.0000 0.08850  0.47510  0.63490  Biso   1.000  O
  O48      1.0000 0.91150  0.97510  0.86510  Biso   1.000  O
  O49      1.0000 0.91150  0.52490  0.36510  Biso   1.000  O
  O50      1.0000 0.08850  0.02490  0.13490  Biso   1.000  O
  H45      1.0000 0.19630  0.46990  0.66100  Biso   1.000  H
  H46      1.0000 0.80370  0.96990  0.83900  Biso   1.000  H
  H47      1.0000 0.80370  0.53010  0.33900  Biso   1.000  H
  H48      1.0000 0.19630  0.03010  0.16100  Biso   1.000  H
  H49      1.0000 0.05230  0.45090  0.69020  Biso   1.000  H
  H50      1.0000 0.94770  0.95090  0.80980  Biso   1.000  H
  H51      1.0000 0.94770  0.54910  0.30980  Biso   1.000  H
  H52      1.0000 0.05230  0.04910  0.19020  Biso   1.000  H
  O51      1.0000 0.19550  0.34616  0.94910  Biso   1.000  O
  O52      1.0000 0.80450  0.84616  0.55090  Biso   1.000  O
  O53      1.0000 0.80450  0.65384  0.05090  Biso   1.000  O
  O54      1.0000 0.19550  0.15384  0.44910  Biso   1.000  O
  H53      1.0000 0.11310  0.36980  0.91640  Biso   1.000  H
  H54      1.0000 0.88690  0.86980  0.58360  Biso   1.000  H
  H55      1.0000 0.88690  0.63020  0.08360  Biso   1.000  H
  H56      1.0000 0.11310  0.13020  0.41640  Biso   1.000  H
  H57      1.0000 0.21320  0.32310  0.88400  Biso   1.000  H
  H58      1.0000 0.78680  0.82310  0.61600  Biso   1.000  H
  H59      1.0000 0.78680  0.67690  0.11600  Biso   1.000  H
  H60      1.0000 0.21320  0.17690  0.38400  Biso   1.000  H
  O55      1.0000 0.37960  0.04150  0.40290  Biso   1.000  O
  O56      1.0000 0.62040  0.54150  0.09710  Biso   1.000  O
  O57      1.0000 0.62040  0.95850  0.59710  Biso   1.000  O
  O58      1.0000 0.37960  0.45850  0.90290  Biso   1.000  O
  H61      1.0000 0.40450  0.04940  0.32460  Biso   1.000  H
  H62      1.0000 0.59550  0.54940  0.17540  Biso   1.000  H
  H63      1.0000 0.59550  0.95060  0.67540  Biso   1.000  H
  H64      1.0000 0.40450  0.45060  0.82460  Biso   1.000  H
  H65      1.0000 0.37240  0.07750  0.44380  Biso   1.000  H
  H66      1.0000 0.62760  0.57750  0.05620  Biso   1.000  H
  H67      1.0000 0.62760  0.92250  0.55620  Biso   1.000  H
  H68      1.0000 0.37240  0.42250  0.94380  Biso   1.000  H
  H69      1.0000 0.95340  0.52800  0.53970  Biso   1.000  H
  H70      1.0000 0.04660  0.02800  0.96030  Biso   1.000  H
  H71      1.0000 0.04660  0.47200  0.46030  Biso   1.000  H
  H72      1.0000 0.95340  0.97200  0.03970  Biso   1.000  H
