data_image0
_cell_length_a       10.3117
_cell_length_b       12.848
_cell_length_c       15.824
_cell_angle_alpha    90
_cell_angle_beta     104.618
_cell_angle_gamma    90

_symmetry_space_group_name_H-M    "P 1"
_symmetry_int_tables_number       1

loop_
  _symmetry_equiv_pos_as_xyz
  'x, y, z'

loop_
  _atom_site_label
  _atom_site_occupancy
  _atom_site_fract_x
  _atom_site_fract_y
  _atom_site_fract_z
  _atom_site_thermal_displace_type
  _atom_site_B_iso_or_equiv
  _atom_site_type_symbol
  Cu1      1.0000 0.29890  0.40447  0.94856  Biso   1.000  Cu
  Cu2      1.0000 0.70110  0.90447  0.55144  Biso   1.000  Cu
  Cu3      1.0000 0.70110  0.59553  0.05144  Biso   1.000  Cu
  Cu4      1.0000 0.29890  0.09553  0.44856  Biso   1.000  Cu
  Cu5      1.0000 0.39550  0.72925  0.98263  Biso   1.000  Cu
  Cu6      1.0000 0.60450  0.22925  0.51737  Biso   1.000  Cu
  Cu7      1.0000 0.60450  0.27075  0.01737  Biso   1.000  Cu
  Cu8      1.0000 0.39550  0.77075  0.48263  Biso   1.000  Cu
  O1       1.0000 0.40000  0.47830  0.87920  Biso   1.000  O
  O2       1.0000 0.60000  0.97830  0.62080  Biso   1.000  O
  O3       1.0000 0.60000  0.52170  0.12080  Biso   1.000  O
  O4       1.0000 0.40000  0.02170  0.37920  Biso   1.000  O
  O5       1.0000 0.49440  0.63160  0.92730  Biso   1.000  O
  O6       1.0000 0.50560  0.13160  0.57270  Biso   1.000  O
  O7       1.0000 0.50560  0.36840  0.07270  Biso   1.000  O
  O8       1.0000 0.49440  0.86840  0.42730  Biso   1.000  O
  O9       1.0000 0.65080  0.77410  0.59570  Biso   1.000  O
  O10      1.0000 0.34920  0.27410  0.90430  Biso   1.000  O
  O11      1.0000 0.34920  0.22590  0.40430  Biso   1.000  O
  O12      1.0000 0.65080  0.72590  0.09570  Biso   1.000  O
  O13      1.0000 0.75670  0.80760  0.73400  Biso   1.000  O
  O14      1.0000 0.24330  0.30760  0.76600  Biso   1.000  O
  O15      1.0000 0.24330  0.19240  0.26600  Biso   1.000  O
  O16      1.0000 0.75670  0.69240  0.23400  Biso   1.000  O
  O17      1.0000 0.53740  0.34930  0.56960  Biso   1.000  O
  O18      1.0000 0.46260  0.84930  0.93040  Biso   1.000  O
  O19      1.0000 0.46260  0.65070  0.43040  Biso   1.000  O
  O20      1.0000 0.53740  0.15070  0.06960  Biso   1.000  O
  O21      1.0000 0.72620  0.31290  0.66420  Biso   1.000  O
  O22      1.0000 0.27380  0.81290  0.83580  Biso   1.000  O
  O23      1.0000 0.27380  0.68710  0.33580  Biso   1.000  O
  O24      1.0000 0.72620  0.18710  0.16420  Biso   1.000  O
  O25      1.0000 0.08660  0.43600  0.82400  Biso   1.000  O
  O26      1.0000 0.91340  0.93600  0.67600  Biso   1.000  O
  O27      1.0000 0.91340  0.56400  0.17600  Biso   1.000  O
  O28      1.0000 0.08660  0.06400  0.32400  Biso   1.000  O
  H1       1.0000 0.01220  0.41290  0.83000  Biso   1.000  H
  H2       1.0000 0.98780  0.91290  0.67000  Biso   1.000  H
  H3       1.0000 0.98780  0.58710  0.17000  Biso   1.000  H
  H4       1.0000 0.01220  0.08710  0.33000  Biso   1.000  H
  H5       1.0000 0.10090  0.39690  0.78400  Biso   1.000  H
  H6       1.0000 0.89910  0.89690  0.71600  Biso   1.000  H
  H7       1.0000 0.89910  0.60310  0.21600  Biso   1.000  H
  H8       1.0000 0.10090  0.10310  0.28400  Biso   1.000  H
  N1       1.0000 0.17730  0.33210  0.01330  Biso   1.000  N
  N2       1.0000 0.82270  0.83210  0.48670  Biso   1.000  N
  N3       1.0000 0.82270  0.66790  0.98670  Biso   1.000  N
  N4       1.0000 0.17730  0.16790  0.51330  Biso   1.000  N
  N5       1.0000 0.25850  0.52280  0.01530  Biso   1.000  N
  N6       1.0000 0.74150  0.02280  0.48470  Biso   1.000  N
  N7       1.0000 0.74150  0.47720  0.98470  Biso   1.000  N
  N8       1.0000 0.25850  0.97720  0.51530  Biso   1.000  N
  N9       1.0000 0.29100  0.62570  0.02640  Biso   1.000  N
  N10      1.0000 0.70900  0.12570  0.47360  Biso   1.000  N
  N11      1.0000 0.70900  0.37430  0.97360  Biso   1.000  N
  N12      1.0000 0.29100  0.87430  0.52640  Biso   1.000  N
  N13      1.0000 0.14600  0.58720  0.10730  Biso   1.000  N
  N14      1.0000 0.85400  0.08720  0.39270  Biso   1.000  N
  N15      1.0000 0.85400  0.41280  0.89270  Biso   1.000  N
  N16      1.0000 0.14600  0.91280  0.60730  Biso   1.000  N
  N17      1.0000 0.31060  0.82120  0.05970  Biso   1.000  N
  N18      1.0000 0.68940  0.32120  0.44030  Biso   1.000  N
  N19      1.0000 0.68940  0.17880  0.94030  Biso   1.000  N
  N20      1.0000 0.31060  0.67880  0.55970  Biso   1.000  N
  C1       1.0000 0.14300  0.23280  0.00890  Biso   1.000  C
  C2       1.0000 0.85700  0.73280  0.49110  Biso   1.000  C
  C3       1.0000 0.85700  0.76720  0.99110  Biso   1.000  C
  C4       1.0000 0.14300  0.26720  0.50890  Biso   1.000  C
  H9       1.0000 0.18040  0.18790  0.97540  Biso   1.000  H
  H10      1.0000 0.81960  0.68790  0.52460  Biso   1.000  H
  H11      1.0000 0.81960  0.81210  0.02460  Biso   1.000  H
  H12      1.0000 0.18040  0.31210  0.47540  Biso   1.000  H
  C5       1.0000 0.05300  0.19360  0.05260  Biso   1.000  C
  C6       1.0000 0.94700  0.69360  0.44740  Biso   1.000  C
  C7       1.0000 0.94700  0.80640  0.94740  Biso   1.000  C
  C8       1.0000 0.05300  0.30640  0.55260  Biso   1.000  C
  H13      1.0000 0.02800  0.12390  0.04670  Biso   1.000  H
  H14      1.0000 0.97200  0.62390  0.45330  Biso   1.000  H
  H15      1.0000 0.97200  0.87610  0.95330  Biso   1.000  H
  H16      1.0000 0.02800  0.37610  0.54670  Biso   1.000  H
  C9       1.0000 0.00150  0.25810  0.10430  Biso   1.000  C
  C10      1.0000 0.99850  0.75810  0.39570  Biso   1.000  C
  C11      1.0000 0.99850  0.74190  0.89570  Biso   1.000  C
  C12      1.0000 0.00150  0.24190  0.60430  Biso   1.000  C
  H17      1.0000 0.94210  0.23270  0.13480  Biso   1.000  H
  H18      1.0000 0.05790  0.73270  0.36520  Biso   1.000  H
  H19      1.0000 0.05790  0.76730  0.86520  Biso   1.000  H
  H20      1.0000 0.94210  0.26730  0.63480  Biso   1.000  H
  C13      1.0000 0.03830  0.36060  0.11070  Biso   1.000  C
  C14      1.0000 0.96170  0.86060  0.38930  Biso   1.000  C
  C15      1.0000 0.96170  0.63940  0.88930  Biso   1.000  C
  C16      1.0000 0.03830  0.13940  0.61070  Biso   1.000  C
  H21      1.0000 0.00410  0.40550  0.14580  Biso   1.000  H
  H22      1.0000 0.99590  0.90550  0.35420  Biso   1.000  H
  H23      1.0000 0.99590  0.59450  0.85420  Biso   1.000  H
  H24      1.0000 0.00410  0.09450  0.64580  Biso   1.000  H
  C17      1.0000 0.12560  0.39700  0.06530  Biso   1.000  C
  C18      1.0000 0.87440  0.89700  0.43470  Biso   1.000  C
  C19      1.0000 0.87440  0.60300  0.93470  Biso   1.000  C
  C20      1.0000 0.12560  0.10300  0.56530  Biso   1.000  C
  C21      1.0000 0.17360  0.50350  0.06380  Biso   1.000  C
  C22      1.0000 0.82640  0.00350  0.43620  Biso   1.000  C
  C23      1.0000 0.82640  0.49650  0.93620  Biso   1.000  C
  C24      1.0000 0.17360  0.99650  0.56380  Biso   1.000  C
  C25      1.0000 0.22160  0.66110  0.08180  Biso   1.000  C
  C26      1.0000 0.77840  0.16110  0.41820  Biso   1.000  C
  C27      1.0000 0.77840  0.33890  0.91820  Biso   1.000  C
  C28      1.0000 0.22160  0.83890  0.58180  Biso   1.000  C
  C29      1.0000 0.23460  0.77080  0.10430  Biso   1.000  C
  C30      1.0000 0.76540  0.27080  0.39570  Biso   1.000  C
  C31      1.0000 0.76540  0.22920  0.89570  Biso   1.000  C
  C32      1.0000 0.23460  0.72920  0.60430  Biso   1.000  C
  C33      1.0000 0.17490  0.81960  0.16100  Biso   1.000  C
  C34      1.0000 0.82510  0.31960  0.33900  Biso   1.000  C
  C35      1.0000 0.82510  0.18040  0.83900  Biso   1.000  C
  C36      1.0000 0.17490  0.68040  0.66100  Biso   1.000  C
  H25      1.0000 0.12390  0.78220  0.19130  Biso   1.000  H
  H26      1.0000 0.87610  0.28220  0.30870  Biso   1.000  H
  H27      1.0000 0.87610  0.21780  0.80870  Biso   1.000  H
  H28      1.0000 0.12390  0.71780  0.69130  Biso   1.000  H
  C37      1.0000 0.19160  0.92490  0.17260  Biso   1.000  C
  C38      1.0000 0.80840  0.42490  0.32740  Biso   1.000  C
  C39      1.0000 0.80840  0.07510  0.82740  Biso   1.000  C
  C40      1.0000 0.19160  0.57510  0.67260  Biso   1.000  C
  H29      1.0000 0.15190  0.95980  0.21110  Biso   1.000  H
  H30      1.0000 0.84810  0.45980  0.28890  Biso   1.000  H
  H31      1.0000 0.84810  0.04020  0.78890  Biso   1.000  H
  H32      1.0000 0.15190  0.54020  0.71110  Biso   1.000  H
  C41      1.0000 0.26770  0.97870  0.12690  Biso   1.000  C
  C42      1.0000 0.73230  0.47870  0.37310  Biso   1.000  C
  C43      1.0000 0.73230  0.02130  0.87310  Biso   1.000  C
  C44      1.0000 0.26770  0.52130  0.62690  Biso   1.000  C
  H33      1.0000 0.28040  0.05020  0.13410  Biso   1.000  H
  H34      1.0000 0.71960  0.55020  0.36590  Biso   1.000  H
  H35      1.0000 0.71960  0.94980  0.86590  Biso   1.000  H
  H36      1.0000 0.28040  0.44980  0.63410  Biso   1.000  H
  C45      1.0000 0.32410  0.92420  0.07050  Biso   1.000  C
  C46      1.0000 0.67590  0.42420  0.42950  Biso   1.000  C
  C47      1.0000 0.67590  0.07580  0.92950  Biso   1.000  C
  C48      1.0000 0.32410  0.57580  0.57050  Biso   1.000  C
  H37      1.0000 0.37370  0.96050  0.03860  Biso   1.000  H
  H38      1.0000 0.62630  0.46050  0.46140  Biso   1.000  H
  H39      1.0000 0.62630  0.03950  0.96140  Biso   1.000  H
  H40      1.0000 0.37370  0.53950  0.53860  Biso   1.000  H
  C49      1.0000 0.54040  0.55560  0.80260  Biso   1.000  C
  C50      1.0000 0.45960  0.05560  0.69740  Biso   1.000  C
  C51      1.0000 0.45960  0.44440  0.19740  Biso   1.000  C
  C52      1.0000 0.54040  0.94440  0.30260  Biso   1.000  C
  C53      1.0000 0.58650  0.64840  0.77700  Biso   1.000  C
  C54      1.0000 0.41350  0.14840  0.72300  Biso   1.000  C
  C55      1.0000 0.41350  0.35160  0.22300  Biso   1.000  C
  C56      1.0000 0.58650  0.85160  0.27700  Biso   1.000  C
  H41      1.0000 0.58290  0.70890  0.80870  Biso   1.000  H
  H42      1.0000 0.41710  0.20890  0.69130  Biso   1.000  H
  H43      1.0000 0.41710  0.29110  0.19130  Biso   1.000  H
  H44      1.0000 0.58290  0.79110  0.30870  Biso   1.000  H
  C57      1.0000 0.63820  0.65150  0.70410  Biso   1.000  C
  C58      1.0000 0.36180  0.15150  0.79590  Biso   1.000  C
  C59      1.0000 0.36180  0.34850  0.29590  Biso   1.000  C
  C60      1.0000 0.63820  0.84850  0.20410  Biso   1.000  C
  C61      1.0000 0.64810  0.56050  0.65990  Biso   1.000  C
  C62      1.0000 0.35190  0.06050  0.84010  Biso   1.000  C
  C63      1.0000 0.35190  0.43950  0.34010  Biso   1.000  C
  C64      1.0000 0.64810  0.93950  0.15990  Biso   1.000  C
  H45      1.0000 0.68100  0.56270  0.61030  Biso   1.000  H
  H46      1.0000 0.31900  0.06270  0.88970  Biso   1.000  H
  H47      1.0000 0.31900  0.43730  0.38970  Biso   1.000  H
  H48      1.0000 0.68100  0.93730  0.11030  Biso   1.000  H
  C65      1.0000 0.60990  0.46560  0.68810  Biso   1.000  C
  C66      1.0000 0.39010  0.96560  0.81190  Biso   1.000  C
  C67      1.0000 0.39010  0.53440  0.31190  Biso   1.000  C
  C68      1.0000 0.60990  0.03440  0.18810  Biso   1.000  C
  C69      1.0000 0.55240  0.46300  0.75870  Biso   1.000  C
  C70      1.0000 0.44760  0.96300  0.74130  Biso   1.000  C
  C71      1.0000 0.44760  0.53700  0.24130  Biso   1.000  C
  C72      1.0000 0.55240  0.03700  0.25870  Biso   1.000  C
  H49      1.0000 0.52240  0.40050  0.77650  Biso   1.000  H
  H50      1.0000 0.47760  0.90050  0.72350  Biso   1.000  H
  H51      1.0000 0.47760  0.59950  0.22350  Biso   1.000  H
  H52      1.0000 0.52240  0.09950  0.27650  Biso   1.000  H
  C73      1.0000 0.47250  0.55590  0.87490  Biso   1.000  C
  C74      1.0000 0.52750  0.05590  0.62510  Biso   1.000  C
  C75      1.0000 0.52750  0.44410  0.12510  Biso   1.000  C
  C76      1.0000 0.47250  0.94410  0.37490  Biso   1.000  C
  C77      1.0000 0.68620  0.75290  0.67570  Biso   1.000  C
  C78      1.0000 0.31380  0.25290  0.82430  Biso   1.000  C
  C79      1.0000 0.31380  0.24710  0.32430  Biso   1.000  C
  C80      1.0000 0.68620  0.74710  0.17570  Biso   1.000  C
  C81      1.0000 0.62820  0.36740  0.63830  Biso   1.000  C
  C82      1.0000 0.37180  0.86740  0.86170  Biso   1.000  C
  C83      1.0000 0.37180  0.63260  0.36170  Biso   1.000  C
  C84      1.0000 0.62820  0.13260  0.13830  Biso   1.000  C
