data_image0
_cell_length_a       13.335
_cell_length_b       13.335
_cell_length_c       31.626
_cell_angle_alpha    90
_cell_angle_beta     90
_cell_angle_gamma    90

_symmetry_space_group_name_H-M    "P 1"
_symmetry_int_tables_number       1

loop_
  _symmetry_equiv_pos_as_xyz
  'x, y, z'

loop_
  _atom_site_label
  _atom_site_occupancy
  _atom_site_fract_x
  _atom_site_fract_y
  _atom_site_fract_z
  _atom_site_thermal_displace_type
  _atom_site_B_iso_or_equiv
  _atom_site_type_symbol
  Cu1      1.0000 0.50000  0.50000  0.04555  Biso   1.000  Cu
  Cu2      1.0000 0.50000  0.50000  0.95444  Biso   1.000  Cu
  Cu3      1.0000 0.50000  0.00000  0.20444  Biso   1.000  Cu
  Cu4      1.0000 0.50000  0.00000  0.29556  Biso   1.000  Cu
  Cu5      1.0000 0.00000  0.00000  0.54555  Biso   1.000  Cu
  Cu6      1.0000 0.00000  0.00000  0.45444  Biso   1.000  Cu
  Cu7      1.0000 0.00000  0.50000  0.70444  Biso   1.000  Cu
  Cu8      1.0000 0.00000  0.50000  0.79556  Biso   1.000  Cu
  O1       1.0000 0.36420  0.45210  0.04568  Biso   1.000  O
  O2       1.0000 0.45210  0.63580  0.95432  Biso   1.000  O
  O3       1.0000 0.63580  0.54790  0.04568  Biso   1.000  O
  O4       1.0000 0.54790  0.36420  0.95432  Biso   1.000  O
  O5       1.0000 0.36420  0.04790  0.20432  Biso   1.000  O
  O6       1.0000 0.63580  0.95210  0.20432  Biso   1.000  O
  O7       1.0000 0.54790  0.13580  0.29568  Biso   1.000  O
  O8       1.0000 0.45210  0.86420  0.29568  Biso   1.000  O
  O9       1.0000 0.86420  0.95210  0.54568  Biso   1.000  O
  O10      1.0000 0.95210  0.13580  0.45432  Biso   1.000  O
  O11      1.0000 0.13580  0.04790  0.54568  Biso   1.000  O
  O12      1.0000 0.04790  0.86420  0.45432  Biso   1.000  O
  O13      1.0000 0.86420  0.54790  0.70432  Biso   1.000  O
  O14      1.0000 0.13580  0.45210  0.70432  Biso   1.000  O
  O15      1.0000 0.04790  0.63580  0.79568  Biso   1.000  O
  O16      1.0000 0.95210  0.36420  0.79568  Biso   1.000  O
  O17      1.0000 0.36130  0.44990  0.97440  Biso   1.000  O
  O18      1.0000 0.44990  0.63870  0.02560  Biso   1.000  O
  O19      1.0000 0.63870  0.55010  0.97440  Biso   1.000  O
  O20      1.0000 0.55010  0.36130  0.02560  Biso   1.000  O
  O21      1.0000 0.36130  0.05010  0.27560  Biso   1.000  O
  O22      1.0000 0.63870  0.94990  0.27560  Biso   1.000  O
  O23      1.0000 0.55010  0.13870  0.22440  Biso   1.000  O
  O24      1.0000 0.44990  0.86130  0.22440  Biso   1.000  O
  O25      1.0000 0.86130  0.94990  0.47440  Biso   1.000  O
  O26      1.0000 0.94990  0.13870  0.52560  Biso   1.000  O
  O27      1.0000 0.13870  0.05010  0.47440  Biso   1.000  O
  O28      1.0000 0.05010  0.86130  0.52560  Biso   1.000  O
  O29      1.0000 0.86130  0.55010  0.77560  Biso   1.000  O
  O30      1.0000 0.13870  0.44990  0.77560  Biso   1.000  O
  O31      1.0000 0.05010  0.63870  0.72440  Biso   1.000  O
  O32      1.0000 0.94990  0.36130  0.72440  Biso   1.000  O
  O33      1.0000 0.47830  0.56600  0.11280  Biso   1.000  O
  O34      1.0000 0.56600  0.52170  0.88720  Biso   1.000  O
  O35      1.0000 0.52170  0.43400  0.11280  Biso   1.000  O
  O36      1.0000 0.43400  0.47830  0.88720  Biso   1.000  O
  O37      1.0000 0.47830  0.93400  0.13720  Biso   1.000  O
  O38      1.0000 0.52170  0.06600  0.13720  Biso   1.000  O
  O39      1.0000 0.43400  0.02170  0.36280  Biso   1.000  O
  O40      1.0000 0.56600  0.97830  0.36280  Biso   1.000  O
  O41      1.0000 0.97830  0.06600  0.61280  Biso   1.000  O
  O42      1.0000 0.06600  0.02170  0.38720  Biso   1.000  O
  O43      1.0000 0.02170  0.93400  0.61280  Biso   1.000  O
  O44      1.0000 0.93400  0.97830  0.38720  Biso   1.000  O
  O45      1.0000 0.97830  0.43400  0.63720  Biso   1.000  O
  O46      1.0000 0.02170  0.56600  0.63720  Biso   1.000  O
  O47      1.0000 0.93400  0.52170  0.86280  Biso   1.000  O
  O48      1.0000 0.06600  0.47830  0.86280  Biso   1.000  O
  O49      1.0000 0.50000  0.50000  0.17237  Biso   1.000  O
  O50      1.0000 0.50000  0.50000  0.82763  Biso   1.000  O
  O51      1.0000 0.50000  0.00000  0.07763  Biso   1.000  O
  O52      1.0000 0.50000  0.00000  0.42237  Biso   1.000  O
  O53      1.0000 0.00000  0.00000  0.67237  Biso   1.000  O
  O54      1.0000 0.00000  0.00000  0.32763  Biso   1.000  O
  O55      1.0000 0.00000  0.50000  0.57763  Biso   1.000  O
  O56      1.0000 0.00000  0.50000  0.92237  Biso   1.000  O
  N1       1.0000 0.50000  0.50000  0.13457  Biso   1.000  N
  N2       1.0000 0.50000  0.50000  0.86543  Biso   1.000  N
  N3       1.0000 0.50000  0.00000  0.11543  Biso   1.000  N
  N4       1.0000 0.50000  0.00000  0.38457  Biso   1.000  N
  N5       1.0000 0.00000  0.00000  0.63457  Biso   1.000  N
  N6       1.0000 0.00000  0.00000  0.36543  Biso   1.000  N
  N7       1.0000 0.00000  0.50000  0.61543  Biso   1.000  N
  N8       1.0000 0.00000  0.50000  0.88457  Biso   1.000  N
  N9       1.0000 0.86670  0.28400  0.97357  Biso   1.000  N
  N10      1.0000 0.28400  0.13330  0.02643  Biso   1.000  N
  N11      1.0000 0.13330  0.71600  0.97357  Biso   1.000  N
  N12      1.0000 0.71600  0.86670  0.02643  Biso   1.000  N
  N13      1.0000 0.86670  0.21600  0.27643  Biso   1.000  N
  N14      1.0000 0.13330  0.78400  0.27643  Biso   1.000  N
  N15      1.0000 0.71600  0.63330  0.22357  Biso   1.000  N
  N16      1.0000 0.28400  0.36670  0.22357  Biso   1.000  N
  N17      1.0000 0.36670  0.78400  0.47357  Biso   1.000  N
  N18      1.0000 0.78400  0.63330  0.52643  Biso   1.000  N
  N19      1.0000 0.63330  0.21600  0.47357  Biso   1.000  N
  N20      1.0000 0.21600  0.36670  0.52643  Biso   1.000  N
  N21      1.0000 0.36670  0.71600  0.77643  Biso   1.000  N
  N22      1.0000 0.63330  0.28400  0.77643  Biso   1.000  N
  N23      1.0000 0.21600  0.13330  0.72357  Biso   1.000  N
  N24      1.0000 0.78400  0.86670  0.72357  Biso   1.000  N
  C1       1.0000 0.32270  0.43570  0.01048  Biso   1.000  C
  C2       1.0000 0.43570  0.67730  0.98952  Biso   1.000  C
  C3       1.0000 0.67730  0.56430  0.01048  Biso   1.000  C
  C4       1.0000 0.56430  0.32270  0.98952  Biso   1.000  C
  C5       1.0000 0.32270  0.06430  0.23952  Biso   1.000  C
  C6       1.0000 0.67730  0.93570  0.23952  Biso   1.000  C
  C7       1.0000 0.56430  0.17730  0.26048  Biso   1.000  C
  C8       1.0000 0.43570  0.82270  0.26048  Biso   1.000  C
  C9       1.0000 0.82270  0.93570  0.51048  Biso   1.000  C
  C10      1.0000 0.93570  0.17730  0.48952  Biso   1.000  C
  C11      1.0000 0.17730  0.06430  0.51048  Biso   1.000  C
  C12      1.0000 0.06430  0.82270  0.48952  Biso   1.000  C
  C13      1.0000 0.82270  0.56430  0.73952  Biso   1.000  C
  C14      1.0000 0.17730  0.43570  0.73952  Biso   1.000  C
  C15      1.0000 0.06430  0.67730  0.76048  Biso   1.000  C
  C16      1.0000 0.93570  0.32270  0.76048  Biso   1.000  C
  C17      1.0000 0.21820  0.39640  0.01204  Biso   1.000  C
  C18      1.0000 0.39640  0.78180  0.98796  Biso   1.000  C
  C19      1.0000 0.78180  0.60360  0.01204  Biso   1.000  C
  C20      1.0000 0.60360  0.21820  0.98796  Biso   1.000  C
  C21      1.0000 0.21820  0.10360  0.23796  Biso   1.000  C
  C22      1.0000 0.78180  0.89640  0.23796  Biso   1.000  C
  C23      1.0000 0.60360  0.28180  0.26204  Biso   1.000  C
  C24      1.0000 0.39640  0.71820  0.26204  Biso   1.000  C
  C25      1.0000 0.71820  0.89640  0.51204  Biso   1.000  C
  C26      1.0000 0.89640  0.28180  0.48796  Biso   1.000  C
  C27      1.0000 0.28180  0.10360  0.51204  Biso   1.000  C
  C28      1.0000 0.10360  0.71820  0.48796  Biso   1.000  C
  C29      1.0000 0.71820  0.60360  0.73796  Biso   1.000  C
  C30      1.0000 0.28180  0.39640  0.73796  Biso   1.000  C
  C31      1.0000 0.10360  0.78180  0.76204  Biso   1.000  C
  C32      1.0000 0.89640  0.21820  0.76204  Biso   1.000  C
  C33      1.0000 0.15720  0.41280  0.04694  Biso   1.000  C
  C34      1.0000 0.41280  0.84280  0.95306  Biso   1.000  C
  C35      1.0000 0.84280  0.58720  0.04694  Biso   1.000  C
  C36      1.0000 0.58720  0.15720  0.95306  Biso   1.000  C
  C37      1.0000 0.15720  0.08720  0.20306  Biso   1.000  C
  C38      1.0000 0.84280  0.91280  0.20306  Biso   1.000  C
  C39      1.0000 0.58720  0.34280  0.29694  Biso   1.000  C
  C40      1.0000 0.41280  0.65720  0.29694  Biso   1.000  C
  C41      1.0000 0.65720  0.91280  0.54694  Biso   1.000  C
  C42      1.0000 0.91280  0.34280  0.45306  Biso   1.000  C
  C43      1.0000 0.34280  0.08720  0.54694  Biso   1.000  C
  C44      1.0000 0.08720  0.65720  0.45306  Biso   1.000  C
  C45      1.0000 0.65720  0.58720  0.70306  Biso   1.000  C
  C46      1.0000 0.34280  0.41280  0.70306  Biso   1.000  C
  C47      1.0000 0.08720  0.84280  0.79694  Biso   1.000  C
  C48      1.0000 0.91280  0.15720  0.79694  Biso   1.000  C
  H1       1.0000 0.18260  0.44650  0.07030  Biso   1.000  H
  H2       1.0000 0.44650  0.81740  0.92970  Biso   1.000  H
  H3       1.0000 0.81740  0.55350  0.07030  Biso   1.000  H
  H4       1.0000 0.55350  0.18260  0.92970  Biso   1.000  H
  H5       1.0000 0.18260  0.05350  0.17970  Biso   1.000  H
  H6       1.0000 0.81740  0.94650  0.17970  Biso   1.000  H
  H7       1.0000 0.55350  0.31740  0.32030  Biso   1.000  H
  H8       1.0000 0.44650  0.68260  0.32030  Biso   1.000  H
  H9       1.0000 0.68260  0.94650  0.57030  Biso   1.000  H
  H10      1.0000 0.94650  0.31740  0.42970  Biso   1.000  H
  H11      1.0000 0.31740  0.05350  0.57030  Biso   1.000  H
  H12      1.0000 0.05350  0.68260  0.42970  Biso   1.000  H
  H13      1.0000 0.68260  0.55350  0.67970  Biso   1.000  H
  H14      1.0000 0.31740  0.44650  0.67970  Biso   1.000  H
  H15      1.0000 0.05350  0.81740  0.82030  Biso   1.000  H
  H16      1.0000 0.94650  0.18260  0.82030  Biso   1.000  H
  C49      1.0000 0.05750  0.37900  0.04724  Biso   1.000  C
  C50      1.0000 0.37900  0.94250  0.95276  Biso   1.000  C
  C51      1.0000 0.94250  0.62100  0.04724  Biso   1.000  C
  C52      1.0000 0.62100  0.05750  0.95276  Biso   1.000  C
  C53      1.0000 0.05750  0.12100  0.20276  Biso   1.000  C
  C54      1.0000 0.94250  0.87900  0.20276  Biso   1.000  C
  C55      1.0000 0.62100  0.44250  0.29724  Biso   1.000  C
  C56      1.0000 0.37900  0.55750  0.29724  Biso   1.000  C
  C57      1.0000 0.55750  0.87900  0.54724  Biso   1.000  C
  C58      1.0000 0.87900  0.44250  0.45276  Biso   1.000  C
  C59      1.0000 0.44250  0.12100  0.54724  Biso   1.000  C
  C60      1.0000 0.12100  0.55750  0.45276  Biso   1.000  C
  C61      1.0000 0.55750  0.62100  0.70276  Biso   1.000  C
  C62      1.0000 0.44250  0.37900  0.70276  Biso   1.000  C
  C63      1.0000 0.12100  0.94250  0.79724  Biso   1.000  C
  C64      1.0000 0.87900  0.05750  0.79724  Biso   1.000  C
  H17      1.0000 0.01610  0.39340  0.07010  Biso   1.000  H
  H18      1.0000 0.39340  0.98390  0.92990  Biso   1.000  H
  H19      1.0000 0.98390  0.60660  0.07010  Biso   1.000  H
  H20      1.0000 0.60660  0.01610  0.92990  Biso   1.000  H
  H21      1.0000 0.01610  0.10660  0.17990  Biso   1.000  H
  H22      1.0000 0.98390  0.89340  0.17990  Biso   1.000  H
  H23      1.0000 0.60660  0.48390  0.32010  Biso   1.000  H
  H24      1.0000 0.39340  0.51610  0.32010  Biso   1.000  H
  H25      1.0000 0.51610  0.89340  0.57010  Biso   1.000  H
  H26      1.0000 0.89340  0.48390  0.42990  Biso   1.000  H
  H27      1.0000 0.48390  0.10660  0.57010  Biso   1.000  H
  H28      1.0000 0.10660  0.51610  0.42990  Biso   1.000  H
  H29      1.0000 0.51610  0.60660  0.67990  Biso   1.000  H
  H30      1.0000 0.48390  0.39340  0.67990  Biso   1.000  H
  H31      1.0000 0.10660  0.98390  0.82010  Biso   1.000  H
  H32      1.0000 0.89340  0.01610  0.82010  Biso   1.000  H
  C65      1.0000 0.02110  0.32450  0.01354  Biso   1.000  C
  C66      1.0000 0.32450  0.97890  0.98646  Biso   1.000  C
  C67      1.0000 0.97890  0.67550  0.01354  Biso   1.000  C
  C68      1.0000 0.67550  0.02110  0.98646  Biso   1.000  C
  C69      1.0000 0.02110  0.17550  0.23646  Biso   1.000  C
  C70      1.0000 0.97890  0.82450  0.23646  Biso   1.000  C
  C71      1.0000 0.67550  0.47890  0.26354  Biso   1.000  C
  C72      1.0000 0.32450  0.52110  0.26354  Biso   1.000  C
  C73      1.0000 0.52110  0.82450  0.51354  Biso   1.000  C
  C74      1.0000 0.82450  0.47890  0.48646  Biso   1.000  C
  C75      1.0000 0.47890  0.17550  0.51354  Biso   1.000  C
  C76      1.0000 0.17550  0.52110  0.48646  Biso   1.000  C
  C77      1.0000 0.52110  0.67550  0.73646  Biso   1.000  C
  C78      1.0000 0.47890  0.32450  0.73646  Biso   1.000  C
  C79      1.0000 0.17550  0.97890  0.76354  Biso   1.000  C
  C80      1.0000 0.82450  0.02110  0.76354  Biso   1.000  C
  C81      1.0000 0.08290  0.30550  0.97867  Biso   1.000  C
  C82      1.0000 0.30550  0.91710  0.02133  Biso   1.000  C
  C83      1.0000 0.91710  0.69450  0.97867  Biso   1.000  C
  C84      1.0000 0.69450  0.08290  0.02133  Biso   1.000  C
  C85      1.0000 0.08290  0.19450  0.27133  Biso   1.000  C
  C86      1.0000 0.91710  0.80550  0.27133  Biso   1.000  C
  C87      1.0000 0.69450  0.41710  0.22867  Biso   1.000  C
  C88      1.0000 0.30550  0.58290  0.22867  Biso   1.000  C
  C89      1.0000 0.58290  0.80550  0.47867  Biso   1.000  C
  C90      1.0000 0.80550  0.41710  0.52133  Biso   1.000  C
  C91      1.0000 0.41710  0.19450  0.47867  Biso   1.000  C
  C92      1.0000 0.19450  0.58290  0.52133  Biso   1.000  C
  C93      1.0000 0.58290  0.69450  0.77133  Biso   1.000  C
  C94      1.0000 0.41710  0.30550  0.77133  Biso   1.000  C
  C95      1.0000 0.19450  0.91710  0.72867  Biso   1.000  C
  C96      1.0000 0.80550  0.08290  0.72867  Biso   1.000  C
  H33      1.0000 0.05910  0.26760  0.95610  Biso   1.000  H
  H34      1.0000 0.26760  0.94090  0.04390  Biso   1.000  H
  H35      1.0000 0.94090  0.73240  0.95610  Biso   1.000  H
  H36      1.0000 0.73240  0.05910  0.04390  Biso   1.000  H
  H37      1.0000 0.05910  0.23240  0.29390  Biso   1.000  H
  H38      1.0000 0.94090  0.76760  0.29390  Biso   1.000  H
  H39      1.0000 0.73240  0.44090  0.20610  Biso   1.000  H
  H40      1.0000 0.26760  0.55910  0.20610  Biso   1.000  H
  H41      1.0000 0.55910  0.76760  0.45610  Biso   1.000  H
  H42      1.0000 0.76760  0.44090  0.54390  Biso   1.000  H
  H43      1.0000 0.44090  0.23240  0.45610  Biso   1.000  H
  H44      1.0000 0.23240  0.55910  0.54390  Biso   1.000  H
  H45      1.0000 0.55910  0.73240  0.79390  Biso   1.000  H
  H46      1.0000 0.44090  0.26760  0.79390  Biso   1.000  H
  H47      1.0000 0.23240  0.94090  0.70610  Biso   1.000  H
  H48      1.0000 0.76760  0.05910  0.70610  Biso   1.000  H
  C97      1.0000 0.17970  0.34340  0.97790  Biso   1.000  C
  C98      1.0000 0.34340  0.82030  0.02210  Biso   1.000  C
  C99      1.0000 0.82030  0.65660  0.97790  Biso   1.000  C
  C100     1.0000 0.65660  0.17970  0.02210  Biso   1.000  C
  C101     1.0000 0.17970  0.15660  0.27210  Biso   1.000  C
  C102     1.0000 0.82030  0.84340  0.27210  Biso   1.000  C
  C103     1.0000 0.65660  0.32030  0.22790  Biso   1.000  C
  C104     1.0000 0.34340  0.67970  0.22790  Biso   1.000  C
  C105     1.0000 0.67970  0.84340  0.47790  Biso   1.000  C
  C106     1.0000 0.84340  0.32030  0.52210  Biso   1.000  C
  C107     1.0000 0.32030  0.15660  0.47790  Biso   1.000  C
  C108     1.0000 0.15660  0.67970  0.52210  Biso   1.000  C
  C109     1.0000 0.67970  0.65660  0.77210  Biso   1.000  C
  C110     1.0000 0.32030  0.34340  0.77210  Biso   1.000  C
  C111     1.0000 0.15660  0.82030  0.72790  Biso   1.000  C
  C112     1.0000 0.84340  0.17970  0.72790  Biso   1.000  C
  H49      1.0000 0.21950  0.33320  0.95410  Biso   1.000  H
  H50      1.0000 0.33320  0.78050  0.04590  Biso   1.000  H
  H51      1.0000 0.78050  0.66680  0.95410  Biso   1.000  H
  H52      1.0000 0.66680  0.21950  0.04590  Biso   1.000  H
  H53      1.0000 0.21950  0.16680  0.29590  Biso   1.000  H
  H54      1.0000 0.78050  0.83320  0.29590  Biso   1.000  H
  H55      1.0000 0.66680  0.28050  0.20410  Biso   1.000  H
  H56      1.0000 0.33320  0.71950  0.20410  Biso   1.000  H
  H57      1.0000 0.71950  0.83320  0.45410  Biso   1.000  H
  H58      1.0000 0.83320  0.28050  0.54590  Biso   1.000  H
  H59      1.0000 0.28050  0.16680  0.45410  Biso   1.000  H
  H60      1.0000 0.16680  0.71950  0.54590  Biso   1.000  H
  H61      1.0000 0.71950  0.66680  0.79590  Biso   1.000  H
  H62      1.0000 0.28050  0.33320  0.79590  Biso   1.000  H
  H63      1.0000 0.16680  0.78050  0.70410  Biso   1.000  H
  H64      1.0000 0.83320  0.21950  0.70410  Biso   1.000  H
  C113     1.0000 0.91680  0.28260  0.01542  Biso   1.000  C
  C114     1.0000 0.28260  0.08320  0.98458  Biso   1.000  C
  C115     1.0000 0.08320  0.71740  0.01542  Biso   1.000  C
  C116     1.0000 0.71740  0.91680  0.98458  Biso   1.000  C
  C117     1.0000 0.91680  0.21740  0.23458  Biso   1.000  C
  C118     1.0000 0.08320  0.78260  0.23458  Biso   1.000  C
  C119     1.0000 0.71740  0.58320  0.26542  Biso   1.000  C
  C120     1.0000 0.28260  0.41680  0.26542  Biso   1.000  C
  C121     1.0000 0.41680  0.78260  0.51542  Biso   1.000  C
  C122     1.0000 0.78260  0.58320  0.48458  Biso   1.000  C
  C123     1.0000 0.58320  0.21740  0.51542  Biso   1.000  C
  C124     1.0000 0.21740  0.41680  0.48458  Biso   1.000  C
  C125     1.0000 0.41680  0.71740  0.73458  Biso   1.000  C
  C126     1.0000 0.58320  0.28260  0.73458  Biso   1.000  C
  C127     1.0000 0.21740  0.08320  0.76542  Biso   1.000  C
  C128     1.0000 0.78260  0.91680  0.76542  Biso   1.000  C
  H65      1.0000 0.91950  0.21420  0.02570  Biso   1.000  H
  H66      1.0000 0.21420  0.08050  0.97430  Biso   1.000  H
  H67      1.0000 0.08050  0.78580  0.02570  Biso   1.000  H
  H68      1.0000 0.78580  0.91950  0.97430  Biso   1.000  H
  H69      1.0000 0.91950  0.28580  0.22430  Biso   1.000  H
  H70      1.0000 0.08050  0.71420  0.22430  Biso   1.000  H
  H71      1.0000 0.78580  0.58050  0.27570  Biso   1.000  H
  H72      1.0000 0.21420  0.41950  0.27570  Biso   1.000  H
  H73      1.0000 0.41950  0.71420  0.52570  Biso   1.000  H
  H74      1.0000 0.71420  0.58050  0.47430  Biso   1.000  H
  H75      1.0000 0.58050  0.28580  0.52570  Biso   1.000  H
  H76      1.0000 0.28580  0.41950  0.47430  Biso   1.000  H
  H77      1.0000 0.41950  0.78580  0.72430  Biso   1.000  H
  H78      1.0000 0.58050  0.21420  0.72430  Biso   1.000  H
  H79      1.0000 0.28580  0.08050  0.77570  Biso   1.000  H
  H80      1.0000 0.71420  0.91950  0.77570  Biso   1.000  H
  H81      1.0000 0.87740  0.32160  0.03530  Biso   1.000  H
  H82      1.0000 0.32160  0.12260  0.96470  Biso   1.000  H
  H83      1.0000 0.12260  0.67840  0.03530  Biso   1.000  H
  H84      1.0000 0.67840  0.87740  0.96470  Biso   1.000  H
  H85      1.0000 0.87740  0.17840  0.21470  Biso   1.000  H
  H86      1.0000 0.12260  0.82160  0.21470  Biso   1.000  H
  H87      1.0000 0.67840  0.62260  0.28530  Biso   1.000  H
  H88      1.0000 0.32160  0.37740  0.28530  Biso   1.000  H
  H89      1.0000 0.37740  0.82160  0.53530  Biso   1.000  H
  H90      1.0000 0.82160  0.62260  0.46470  Biso   1.000  H
  H91      1.0000 0.62260  0.17840  0.53530  Biso   1.000  H
  H92      1.0000 0.17840  0.37740  0.46470  Biso   1.000  H
  H93      1.0000 0.37740  0.67840  0.71470  Biso   1.000  H
  H94      1.0000 0.62260  0.32160  0.71470  Biso   1.000  H
  H95      1.0000 0.17840  0.12260  0.78530  Biso   1.000  H
  H96      1.0000 0.82160  0.87740  0.78530  Biso   1.000  H
  C129     1.0000 0.82700  0.36990  0.95940  Biso   1.000  C
  C130     1.0000 0.36990  0.17300  0.04060  Biso   1.000  C
  C131     1.0000 0.17300  0.63010  0.95940  Biso   1.000  C
  C132     1.0000 0.63010  0.82700  0.04060  Biso   1.000  C
  C133     1.0000 0.82700  0.13010  0.29060  Biso   1.000  C
  C134     1.0000 0.17300  0.86990  0.29060  Biso   1.000  C
  C135     1.0000 0.63010  0.67300  0.20940  Biso   1.000  C
  C136     1.0000 0.36990  0.32700  0.20940  Biso   1.000  C
  C137     1.0000 0.32700  0.86990  0.45940  Biso   1.000  C
  C138     1.0000 0.86990  0.67300  0.54060  Biso   1.000  C
  C139     1.0000 0.67300  0.13010  0.45940  Biso   1.000  C
  C140     1.0000 0.13010  0.32700  0.54060  Biso   1.000  C
  C141     1.0000 0.32700  0.63010  0.79060  Biso   1.000  C
  C142     1.0000 0.67300  0.36990  0.79060  Biso   1.000  C
  C143     1.0000 0.13010  0.17300  0.70940  Biso   1.000  C
  C144     1.0000 0.86990  0.82700  0.70940  Biso   1.000  C
  H97      1.0000 0.83120  0.42740  0.97600  Biso   1.000  H
  H98      1.0000 0.42740  0.16880  0.02400  Biso   1.000  H
  H99      1.0000 0.16880  0.57260  0.97600  Biso   1.000  H
  H100     1.0000 0.57260  0.83120  0.02400  Biso   1.000  H
  H101     1.0000 0.83120  0.07260  0.27400  Biso   1.000  H
  H102     1.0000 0.16880  0.92740  0.27400  Biso   1.000  H
  H103     1.0000 0.57260  0.66880  0.22600  Biso   1.000  H
  H104     1.0000 0.42740  0.33120  0.22600  Biso   1.000  H
  H105     1.0000 0.33120  0.92740  0.47600  Biso   1.000  H
  H106     1.0000 0.92740  0.66880  0.52400  Biso   1.000  H
  H107     1.0000 0.66880  0.07260  0.47600  Biso   1.000  H
  H108     1.0000 0.07260  0.33120  0.52400  Biso   1.000  H
  H109     1.0000 0.33120  0.57260  0.77400  Biso   1.000  H
  H110     1.0000 0.66880  0.42740  0.77400  Biso   1.000  H
  H111     1.0000 0.07260  0.16880  0.72600  Biso   1.000  H
  H112     1.0000 0.92740  0.83120  0.72600  Biso   1.000  H
  C145     1.0000 0.78000  0.37470  0.92060  Biso   1.000  C
  C146     1.0000 0.37470  0.22000  0.07940  Biso   1.000  C
  C147     1.0000 0.22000  0.62530  0.92060  Biso   1.000  C
  C148     1.0000 0.62530  0.78000  0.07940  Biso   1.000  C
  C149     1.0000 0.78000  0.12530  0.32940  Biso   1.000  C
  C150     1.0000 0.22000  0.87470  0.32940  Biso   1.000  C
  C151     1.0000 0.62530  0.72000  0.17060  Biso   1.000  C
  C152     1.0000 0.37470  0.28000  0.17060  Biso   1.000  C
  C153     1.0000 0.28000  0.87470  0.42060  Biso   1.000  C
  C154     1.0000 0.87470  0.72000  0.57940  Biso   1.000  C
  C155     1.0000 0.72000  0.12530  0.42060  Biso   1.000  C
  C156     1.0000 0.12530  0.28000  0.57940  Biso   1.000  C
  C157     1.0000 0.28000  0.62530  0.82940  Biso   1.000  C
  C158     1.0000 0.72000  0.37470  0.82940  Biso   1.000  C
  C159     1.0000 0.12530  0.22000  0.67060  Biso   1.000  C
  C160     1.0000 0.87470  0.78000  0.67060  Biso   1.000  C
  H113     1.0000 0.75130  0.43430  0.91130  Biso   1.000  H
  H114     1.0000 0.43430  0.24870  0.08870  Biso   1.000  H
  H115     1.0000 0.24870  0.56570  0.91130  Biso   1.000  H
  H116     1.0000 0.56570  0.75130  0.08870  Biso   1.000  H
  H117     1.0000 0.75130  0.06570  0.33870  Biso   1.000  H
  H118     1.0000 0.24870  0.93430  0.33870  Biso   1.000  H
  H119     1.0000 0.56570  0.74870  0.16130  Biso   1.000  H
  H120     1.0000 0.43430  0.25130  0.16130  Biso   1.000  H
  H121     1.0000 0.25130  0.93430  0.41130  Biso   1.000  H
  H122     1.0000 0.93430  0.74870  0.58870  Biso   1.000  H
  H123     1.0000 0.74870  0.06570  0.41130  Biso   1.000  H
  H124     1.0000 0.06570  0.25130  0.58870  Biso   1.000  H
  H125     1.0000 0.25130  0.56570  0.83870  Biso   1.000  H
  H126     1.0000 0.74870  0.43430  0.83870  Biso   1.000  H
  H127     1.0000 0.06570  0.24870  0.66130  Biso   1.000  H
  H128     1.0000 0.93430  0.75130  0.66130  Biso   1.000  H
  C161     1.0000 0.77620  0.28920  0.89570  Biso   1.000  C
  C162     1.0000 0.28920  0.22380  0.10430  Biso   1.000  C
  C163     1.0000 0.22380  0.71080  0.89570  Biso   1.000  C
  C164     1.0000 0.71080  0.77620  0.10430  Biso   1.000  C
  C165     1.0000 0.77620  0.21080  0.35430  Biso   1.000  C
  C166     1.0000 0.22380  0.78920  0.35430  Biso   1.000  C
  C167     1.0000 0.71080  0.72380  0.14570  Biso   1.000  C
  C168     1.0000 0.28920  0.27620  0.14570  Biso   1.000  C
  C169     1.0000 0.27620  0.78920  0.39570  Biso   1.000  C
  C170     1.0000 0.78920  0.72380  0.60430  Biso   1.000  C
  C171     1.0000 0.72380  0.21080  0.39570  Biso   1.000  C
  C172     1.0000 0.21080  0.27620  0.60430  Biso   1.000  C
  C173     1.0000 0.27620  0.71080  0.85430  Biso   1.000  C
  C174     1.0000 0.72380  0.28920  0.85430  Biso   1.000  C
  C175     1.0000 0.21080  0.22380  0.64570  Biso   1.000  C
  C176     1.0000 0.78920  0.77620  0.64570  Biso   1.000  C
  C177     1.0000 0.81980  0.20090  0.91106  Biso   1.000  C
  C178     1.0000 0.20090  0.18020  0.08894  Biso   1.000  C
  C179     1.0000 0.18020  0.79910  0.91106  Biso   1.000  C
  C180     1.0000 0.79910  0.81980  0.08894  Biso   1.000  C
  C181     1.0000 0.81980  0.29910  0.33894  Biso   1.000  C
  C182     1.0000 0.18020  0.70090  0.33894  Biso   1.000  C
  C183     1.0000 0.79910  0.68020  0.16106  Biso   1.000  C
  C184     1.0000 0.20090  0.31980  0.16106  Biso   1.000  C
  C185     1.0000 0.31980  0.70090  0.41106  Biso   1.000  C
  C186     1.0000 0.70090  0.68020  0.58894  Biso   1.000  C
  C187     1.0000 0.68020  0.29910  0.41106  Biso   1.000  C
  C188     1.0000 0.29910  0.31980  0.58894  Biso   1.000  C
  C189     1.0000 0.31980  0.79910  0.83894  Biso   1.000  C
  C190     1.0000 0.68020  0.20090  0.83894  Biso   1.000  C
  C191     1.0000 0.29910  0.18020  0.66106  Biso   1.000  C
  C192     1.0000 0.70090  0.81980  0.66106  Biso   1.000  C
  H129     1.0000 0.81920  0.14280  0.89480  Biso   1.000  H
  H130     1.0000 0.14280  0.18080  0.10520  Biso   1.000  H
  H131     1.0000 0.18080  0.85720  0.89480  Biso   1.000  H
  H132     1.0000 0.85720  0.81920  0.10520  Biso   1.000  H
  H133     1.0000 0.81920  0.35720  0.35520  Biso   1.000  H
  H134     1.0000 0.18080  0.64280  0.35520  Biso   1.000  H
  H135     1.0000 0.85720  0.68080  0.14480  Biso   1.000  H
  H136     1.0000 0.14280  0.31920  0.14480  Biso   1.000  H
  H137     1.0000 0.31920  0.64280  0.39480  Biso   1.000  H
  H138     1.0000 0.64280  0.68080  0.60520  Biso   1.000  H
  H139     1.0000 0.68080  0.35720  0.39480  Biso   1.000  H
  H140     1.0000 0.35720  0.31920  0.60520  Biso   1.000  H
  H141     1.0000 0.31920  0.85720  0.85520  Biso   1.000  H
  H142     1.0000 0.68080  0.14280  0.85520  Biso   1.000  H
  H143     1.0000 0.35720  0.18080  0.64480  Biso   1.000  H
  H144     1.0000 0.64280  0.81920  0.64480  Biso   1.000  H
  C193     1.0000 0.86360  0.20070  0.95042  Biso   1.000  C
  C194     1.0000 0.20070  0.13640  0.04958  Biso   1.000  C
  C195     1.0000 0.13640  0.79930  0.95042  Biso   1.000  C
  C196     1.0000 0.79930  0.86360  0.04958  Biso   1.000  C
  C197     1.0000 0.86360  0.29930  0.29958  Biso   1.000  C
  C198     1.0000 0.13640  0.70070  0.29958  Biso   1.000  C
  C199     1.0000 0.79930  0.63640  0.20042  Biso   1.000  C
  C200     1.0000 0.20070  0.36360  0.20042  Biso   1.000  C
  C201     1.0000 0.36360  0.70070  0.45042  Biso   1.000  C
  C202     1.0000 0.70070  0.63640  0.54958  Biso   1.000  C
  C203     1.0000 0.63640  0.29930  0.45042  Biso   1.000  C
  C204     1.0000 0.29930  0.36360  0.54958  Biso   1.000  C
  C205     1.0000 0.36360  0.79930  0.79958  Biso   1.000  C
  C206     1.0000 0.63640  0.20070  0.79958  Biso   1.000  C
  C207     1.0000 0.29930  0.13640  0.70042  Biso   1.000  C
  C208     1.0000 0.70070  0.86360  0.70042  Biso   1.000  C
  H145     1.0000 0.89140  0.14180  0.96100  Biso   1.000  H
  H146     1.0000 0.14180  0.10860  0.03900  Biso   1.000  H
  H147     1.0000 0.10860  0.85820  0.96100  Biso   1.000  H
  H148     1.0000 0.85820  0.89140  0.03900  Biso   1.000  H
  H149     1.0000 0.89140  0.35820  0.28900  Biso   1.000  H
  H150     1.0000 0.10860  0.64180  0.28900  Biso   1.000  H
  H151     1.0000 0.85820  0.60860  0.21100  Biso   1.000  H
  H152     1.0000 0.14180  0.39140  0.21100  Biso   1.000  H
  H153     1.0000 0.39140  0.64180  0.46100  Biso   1.000  H
  H154     1.0000 0.64180  0.60860  0.53900  Biso   1.000  H
  H155     1.0000 0.60860  0.35820  0.46100  Biso   1.000  H
  H156     1.0000 0.35820  0.39140  0.53900  Biso   1.000  H
  H157     1.0000 0.39140  0.85820  0.78900  Biso   1.000  H
  H158     1.0000 0.60860  0.14180  0.78900  Biso   1.000  H
  H159     1.0000 0.35820  0.10860  0.71100  Biso   1.000  H
  H160     1.0000 0.64180  0.89140  0.71100  Biso   1.000  H
  Cl1      1.0000 0.00000  0.00000  0.00000  Biso   1.000  Cl
  Cl2      1.0000 0.00000  0.50000  0.25000  Biso   1.000  Cl
  Cl3      1.0000 0.50000  0.50000  0.50000  Biso   1.000  Cl
  Cl4      1.0000 0.50000  0.00000  0.75000  Biso   1.000  Cl
  O57      1.0000 0.75080  0.35090  0.10790  Biso   1.000  O
  O58      1.0000 0.35090  0.24920  0.89210  Biso   1.000  O
  O59      1.0000 0.24920  0.64910  0.10790  Biso   1.000  O
  O60      1.0000 0.64910  0.75080  0.89210  Biso   1.000  O
  O61      1.0000 0.75080  0.14910  0.14210  Biso   1.000  O
  O62      1.0000 0.24920  0.85090  0.14210  Biso   1.000  O
  O63      1.0000 0.64910  0.74920  0.35790  Biso   1.000  O
  O64      1.0000 0.35090  0.25080  0.35790  Biso   1.000  O
  O65      1.0000 0.25080  0.85090  0.60790  Biso   1.000  O
  O66      1.0000 0.85090  0.74920  0.39210  Biso   1.000  O
  O67      1.0000 0.74920  0.14910  0.60790  Biso   1.000  O
  O68      1.0000 0.14910  0.25080  0.39210  Biso   1.000  O
  O69      1.0000 0.25080  0.64910  0.64210  Biso   1.000  O
  O70      1.0000 0.74920  0.35090  0.64210  Biso   1.000  O
  O71      1.0000 0.14910  0.24920  0.85790  Biso   1.000  O
  O72      1.0000 0.85090  0.75080  0.85790  Biso   1.000  O
  O73      1.0000 0.92950  0.11900  0.09770  Biso   1.000  O
  O74      1.0000 0.11900  0.07050  0.90230  Biso   1.000  O
  O75      1.0000 0.07050  0.88100  0.09770  Biso   1.000  O
  O76      1.0000 0.88100  0.92950  0.90230  Biso   1.000  O
  O77      1.0000 0.92950  0.38100  0.15230  Biso   1.000  O
  O78      1.0000 0.07050  0.61900  0.15230  Biso   1.000  O
  O79      1.0000 0.88100  0.57050  0.34770  Biso   1.000  O
  O80      1.0000 0.11900  0.42950  0.34770  Biso   1.000  O
  O81      1.0000 0.42950  0.61900  0.59770  Biso   1.000  O
  O82      1.0000 0.61900  0.57050  0.40230  Biso   1.000  O
  O83      1.0000 0.57050  0.38100  0.59770  Biso   1.000  O
  O84      1.0000 0.38100  0.42950  0.40230  Biso   1.000  O
  O85      1.0000 0.42950  0.88100  0.65230  Biso   1.000  O
  O86      1.0000 0.57050  0.11900  0.65230  Biso   1.000  O
  O87      1.0000 0.38100  0.07050  0.84770  Biso   1.000  O
  O88      1.0000 0.61900  0.92950  0.84770  Biso   1.000  O
