data_image0
_cell_length_a       13.095
_cell_length_b       15.757
_cell_length_c       14.741
_cell_angle_alpha    90
_cell_angle_beta     94.479
_cell_angle_gamma    90

_symmetry_space_group_name_H-M    "P 1"
_symmetry_int_tables_number       1

loop_
  _symmetry_equiv_pos_as_xyz
  'x, y, z'

loop_
  _atom_site_label
  _atom_site_occupancy
  _atom_site_fract_x
  _atom_site_fract_y
  _atom_site_fract_z
  _atom_site_thermal_displace_type
  _atom_site_B_iso_or_equiv
  _atom_site_type_symbol
  Cu1      1.0000 0.58140  0.96800  0.93790  Biso   1.000  Cu
  Cu2      1.0000 0.91860  0.46800  0.56210  Biso   1.000  Cu
  Cu3      1.0000 0.41860  0.03200  0.06210  Biso   1.000  Cu
  Cu4      1.0000 0.08140  0.53200  0.43790  Biso   1.000  Cu
  N1       1.0000 0.57100  0.91530  0.81390  Biso   1.000  N
  N2       1.0000 0.92900  0.41530  0.68610  Biso   1.000  N
  N3       1.0000 0.42900  0.08470  0.18610  Biso   1.000  N
  N4       1.0000 0.07100  0.58470  0.31390  Biso   1.000  N
  C1       1.0000 0.61900  0.84500  0.79800  Biso   1.000  C
  C2       1.0000 0.88100  0.34500  0.70200  Biso   1.000  C
  C3       1.0000 0.38100  0.15500  0.20200  Biso   1.000  C
  C4       1.0000 0.11900  0.65500  0.29800  Biso   1.000  C
  H1       1.0000 0.66700  0.82310  0.84330  Biso   1.000  H
  H2       1.0000 0.83300  0.32310  0.65670  Biso   1.000  H
  H3       1.0000 0.33300  0.17690  0.15670  Biso   1.000  H
  H4       1.0000 0.16700  0.67690  0.34330  Biso   1.000  H
  C5       1.0000 0.60300  0.80220  0.71840  Biso   1.000  C
  C6       1.0000 0.89700  0.30220  0.78160  Biso   1.000  C
  C7       1.0000 0.39700  0.19780  0.28160  Biso   1.000  C
  C8       1.0000 0.10300  0.69780  0.21840  Biso   1.000  C
  H5       1.0000 0.63930  0.75090  0.71040  Biso   1.000  H
  H6       1.0000 0.86070  0.25090  0.78960  Biso   1.000  H
  H7       1.0000 0.36070  0.24910  0.28960  Biso   1.000  H
  H8       1.0000 0.13930  0.74910  0.21040  Biso   1.000  H
  C9       1.0000 0.53700  0.83030  0.65030  Biso   1.000  C
  C10      1.0000 0.96300  0.33030  0.84970  Biso   1.000  C
  C11      1.0000 0.46300  0.16970  0.34970  Biso   1.000  C
  C12      1.0000 0.03700  0.66970  0.15030  Biso   1.000  C
  C13      1.0000 0.49100  0.90900  0.66300  Biso   1.000  C
  C14      1.0000 0.00900  0.40900  0.83700  Biso   1.000  C
  C15      1.0000 0.50900  0.09100  0.33700  Biso   1.000  C
  C16      1.0000 0.99100  0.59100  0.16300  Biso   1.000  C
  H9       1.0000 0.45130  0.93720  0.61530  Biso   1.000  H
  H10      1.0000 0.04870  0.43720  0.88470  Biso   1.000  H
  H11      1.0000 0.54870  0.06280  0.38470  Biso   1.000  H
  H12      1.0000 0.95130  0.56280  0.11530  Biso   1.000  H
  C17      1.0000 0.50900  0.94200  0.74900  Biso   1.000  C
  C18      1.0000 0.99100  0.44200  0.75100  Biso   1.000  C
  C19      1.0000 0.49100  0.05800  0.25100  Biso   1.000  C
  C20      1.0000 0.00900  0.55800  0.24900  Biso   1.000  C
  H13      1.0000 0.47100  0.99140  0.76170  Biso   1.000  H
  H14      1.0000 0.02900  0.49140  0.73830  Biso   1.000  H
  H15      1.0000 0.52900  0.00860  0.23830  Biso   1.000  H
  H16      1.0000 0.97100  0.50860  0.26170  Biso   1.000  H
  C21      1.0000 0.51350  0.78670  0.55840  Biso   1.000  C
  C22      1.0000 0.98650  0.28670  0.94160  Biso   1.000  C
  C23      1.0000 0.48650  0.21330  0.44160  Biso   1.000  C
  C24      1.0000 0.01350  0.71330  0.05840  Biso   1.000  C
  C25      1.0000 0.59000  0.74200  0.52400  Biso   1.000  C
  C26      1.0000 0.91000  0.24200  0.97600  Biso   1.000  C
  C27      1.0000 0.41000  0.25800  0.47600  Biso   1.000  C
  C28      1.0000 0.09000  0.75800  0.02400  Biso   1.000  C
  H17      1.0000 0.65440  0.73690  0.55760  Biso   1.000  H
  H18      1.0000 0.84560  0.23690  0.94240  Biso   1.000  H
  H19      1.0000 0.34560  0.26310  0.44240  Biso   1.000  H
  H20      1.0000 0.15440  0.76310  0.05760  Biso   1.000  H
  C29      1.0000 0.57300  0.70600  0.44200  Biso   1.000  C
  C30      1.0000 0.92700  0.20600  0.05800  Biso   1.000  C
  C31      1.0000 0.42700  0.29400  0.55800  Biso   1.000  C
  C32      1.0000 0.07300  0.79400  0.94200  Biso   1.000  C
  H21      1.0000 0.62540  0.67500  0.41590  Biso   1.000  H
  H22      1.0000 0.87460  0.17500  0.08410  Biso   1.000  H
  H23      1.0000 0.37460  0.32500  0.58410  Biso   1.000  H
  H24      1.0000 0.12540  0.82500  0.91590  Biso   1.000  H
  C33      1.0000 0.40300  0.75500  0.43300  Biso   1.000  C
  C34      1.0000 0.09700  0.25500  0.06700  Biso   1.000  C
  C35      1.0000 0.59700  0.24500  0.56700  Biso   1.000  C
  C36      1.0000 0.90300  0.74500  0.93300  Biso   1.000  C
  H25      1.0000 0.33610  0.75670  0.40310  Biso   1.000  H
  H26      1.0000 0.16390  0.25670  0.09690  Biso   1.000  H
  H27      1.0000 0.66390  0.24330  0.59690  Biso   1.000  H
  H28      1.0000 0.83610  0.74330  0.90310  Biso   1.000  H
  C37      1.0000 0.42200  0.79300  0.51400  Biso   1.000  C
  C38      1.0000 0.07800  0.29300  0.98600  Biso   1.000  C
  C39      1.0000 0.57800  0.20700  0.48600  Biso   1.000  C
  C40      1.0000 0.92200  0.70700  0.01400  Biso   1.000  C
  H29      1.0000 0.37020  0.82510  0.53970  Biso   1.000  H
  H30      1.0000 0.12980  0.32510  0.96030  Biso   1.000  H
  H31      1.0000 0.62980  0.17490  0.46030  Biso   1.000  H
  H32      1.0000 0.87020  0.67490  0.03970  Biso   1.000  H
  N5       1.0000 0.47900  0.71600  0.39630  Biso   1.000  N
  N6       1.0000 0.02100  0.21600  0.10370  Biso   1.000  N
  N7       1.0000 0.52100  0.28400  0.60370  Biso   1.000  N
  N8       1.0000 0.97900  0.78400  0.89630  Biso   1.000  N
  N9       1.0000 0.73410  0.96820  0.95830  Biso   1.000  N
  N10      1.0000 0.76590  0.46820  0.54170  Biso   1.000  N
  N11      1.0000 0.26590  0.03180  0.04170  Biso   1.000  N
  N12      1.0000 0.23410  0.53180  0.45830  Biso   1.000  N
  C41      1.0000 0.78700  0.99900  0.89200  Biso   1.000  C
  C42      1.0000 0.71300  0.49900  0.60800  Biso   1.000  C
  C43      1.0000 0.21300  0.00100  0.10800  Biso   1.000  C
  C44      1.0000 0.28700  0.50100  0.39200  Biso   1.000  C
  H33      1.0000 0.75380  0.01480  0.83510  Biso   1.000  H
  H34      1.0000 0.74620  0.51480  0.66490  Biso   1.000  H
  H35      1.0000 0.24620  0.98520  0.16490  Biso   1.000  H
  H36      1.0000 0.25380  0.48520  0.33510  Biso   1.000  H
  C45      1.0000 0.89700  0.00610  0.90860  Biso   1.000  C
  C46      1.0000 0.60300  0.50610  0.59140  Biso   1.000  C
  C47      1.0000 0.10300  0.99390  0.09140  Biso   1.000  C
  C48      1.0000 0.39700  0.49390  0.40860  Biso   1.000  C
  H37      1.0000 0.93610  0.02170  0.85960  Biso   1.000  H
  H38      1.0000 0.56390  0.52170  0.64040  Biso   1.000  H
  H39      1.0000 0.06390  0.97830  0.14040  Biso   1.000  H
  H40      1.0000 0.43610  0.47830  0.35960  Biso   1.000  H
  C49      1.0000 0.94500  0.99200  0.99020  Biso   1.000  C
  C50      1.0000 0.55500  0.49200  0.50980  Biso   1.000  C
  C51      1.0000 0.05500  0.00800  0.00980  Biso   1.000  C
  C52      1.0000 0.44500  0.50800  0.49020  Biso   1.000  C
  C53      1.0000 0.88900  0.95600  0.05500  Biso   1.000  C
  C54      1.0000 0.61100  0.45600  0.44500  Biso   1.000  C
  C55      1.0000 0.11100  0.04400  0.94500  Biso   1.000  C
  C56      1.0000 0.38900  0.54400  0.55500  Biso   1.000  C
  H41      1.0000 0.92010  0.94250  0.11310  Biso   1.000  H
  H42      1.0000 0.57990  0.44250  0.38690  Biso   1.000  H
  H43      1.0000 0.07990  0.05750  0.88690  Biso   1.000  H
  H44      1.0000 0.42010  0.55750  0.61310  Biso   1.000  H
  C57      1.0000 0.78600  0.94100  0.03400  Biso   1.000  C
  C58      1.0000 0.71400  0.44100  0.46600  Biso   1.000  C
  C59      1.0000 0.21400  0.05900  0.96600  Biso   1.000  C
  C60      1.0000 0.28600  0.55900  0.53400  Biso   1.000  C
  H45      1.0000 0.75080  0.90830  0.07630  Biso   1.000  H
  H46      1.0000 0.74920  0.40830  0.42370  Biso   1.000  H
  H47      1.0000 0.24920  0.09170  0.92370  Biso   1.000  H
  H48      1.0000 0.25080  0.59170  0.57630  Biso   1.000  H
  O1       1.0000 0.43200  0.97490  0.94330  Biso   1.000  O
  O2       1.0000 0.06800  0.47490  0.55670  Biso   1.000  O
  O3       1.0000 0.56800  0.02510  0.05670  Biso   1.000  O
  O4       1.0000 0.93200  0.52510  0.44330  Biso   1.000  O
  H49      1.0000 0.40080  0.91770  0.94210  Biso   1.000  H
  H50      1.0000 0.09920  0.41770  0.55790  Biso   1.000  H
  H51      1.0000 0.59920  0.08230  0.05790  Biso   1.000  H
  H52      1.0000 0.90080  0.58230  0.44210  Biso   1.000  H
  H53      1.0000 0.40030  0.00890  0.89230  Biso   1.000  H
  H54      1.0000 0.09970  0.50890  0.60770  Biso   1.000  H
  H55      1.0000 0.59970  0.99110  0.10770  Biso   1.000  H
  H56      1.0000 0.90030  0.49110  0.39230  Biso   1.000  H
  O5       1.0000 0.58700  0.10720  0.85690  Biso   1.000  O
  O6       1.0000 0.91300  0.60720  0.64310  Biso   1.000  O
  O7       1.0000 0.41300  0.89280  0.14310  Biso   1.000  O
  O8       1.0000 0.08700  0.39280  0.35690  Biso   1.000  O
  O9       1.0000 0.31700  0.83320  0.94400  Biso   1.000  O
  O10      1.0000 0.18300  0.33320  0.55600  Biso   1.000  O
  O11      1.0000 0.68300  0.16680  0.05600  Biso   1.000  O
  O12      1.0000 0.81700  0.66680  0.44400  Biso   1.000  O
  O13      1.0000 0.63000  0.87200  0.21200  Biso   1.000  O
  O14      1.0000 0.87000  0.37200  0.28800  Biso   1.000  O
  O15      1.0000 0.37000  0.12800  0.78800  Biso   1.000  O
  O16      1.0000 0.13000  0.62800  0.71200  Biso   1.000  O
  W1       1.0000 0.23732  0.55430  0.96150  Biso   1.000  W
  W2       1.0000 0.26268  0.05430  0.53850  Biso   1.000  W
  W3       1.0000 0.76268  0.44570  0.03850  Biso   1.000  W
  W4       1.0000 0.73732  0.94570  0.46150  Biso   1.000  W
  W5       1.0000 0.58224  0.36758  0.18519  Biso   1.000  W
  W6       1.0000 0.91776  0.86758  0.31481  Biso   1.000  W
  W7       1.0000 0.41776  0.63242  0.81481  Biso   1.000  W
  W8       1.0000 0.08224  0.13242  0.68519  Biso   1.000  W
  W9       1.0000 0.38681  0.63745  0.15228  Biso   1.000  W
  W10      1.0000 0.11319  0.13745  0.34772  Biso   1.000  W
  W11      1.0000 0.61319  0.36255  0.84772  Biso   1.000  W
  W12      1.0000 0.88681  0.86255  0.65228  Biso   1.000  W
  W13      1.0000 0.64832  0.58443  0.18984  Biso   1.000  W
  W14      1.0000 0.85168  0.08443  0.31016  Biso   1.000  W
  W15      1.0000 0.35168  0.41557  0.81016  Biso   1.000  W
  W16      1.0000 0.14832  0.91557  0.68984  Biso   1.000  W
  W17      1.0000 0.56596  0.71734  0.00661  Biso   1.000  W
  W18      1.0000 0.93404  0.21734  0.49339  Biso   1.000  W
  W19      1.0000 0.43404  0.28266  0.99339  Biso   1.000  W
  W20      1.0000 0.06596  0.78266  0.50661  Biso   1.000  W
  W21      1.0000 0.32002  0.42045  0.14515  Biso   1.000  W
  W22      1.0000 0.17998  0.92045  0.35485  Biso   1.000  W
  W23      1.0000 0.67998  0.57955  0.85485  Biso   1.000  W
  W24      1.0000 0.82002  0.07955  0.64515  Biso   1.000  W
  Si1      1.0000 0.50000  0.50000  0.00000  Biso   1.000  Si
  Si2      1.0000 0.00000  0.00000  0.50000  Biso   1.000  Si
  O17      1.0000 0.51900  0.57540  0.06150  Biso   1.000  O
  O18      1.0000 0.98100  0.07540  0.43850  Biso   1.000  O
  O19      1.0000 0.48100  0.42460  0.93850  Biso   1.000  O
  O20      1.0000 0.01900  0.92460  0.56150  Biso   1.000  O
  O21      1.0000 0.47000  0.42570  0.05680  Biso   1.000  O
  O22      1.0000 0.03000  0.92570  0.44320  Biso   1.000  O
  O23      1.0000 0.53000  0.57430  0.94320  Biso   1.000  O
  O24      1.0000 0.97000  0.07430  0.55680  Biso   1.000  O
  O25      1.0000 0.40290  0.52230  0.04240  Biso   1.000  O
  O26      1.0000 0.09710  0.02230  0.45760  Biso   1.000  O
  O27      1.0000 0.59710  0.47770  0.95760  Biso   1.000  O
  O28      1.0000 0.90290  0.97770  0.54240  Biso   1.000  O
  O29      1.0000 0.41490  0.51730  0.92910  Biso   1.000  O
  O30      1.0000 0.08510  0.01730  0.57090  Biso   1.000  O
  O31      1.0000 0.58510  0.48270  0.07090  Biso   1.000  O
  O32      1.0000 0.91490  0.98270  0.42910  Biso   1.000  O
  O33      1.0000 0.23200  0.46900  0.05130  Biso   1.000  O
  O34      1.0000 0.26800  0.96900  0.44870  Biso   1.000  O
  O35      1.0000 0.76800  0.53100  0.94870  Biso   1.000  O
  O36      1.0000 0.73200  0.03100  0.55130  Biso   1.000  O
  O37      1.0000 0.51090  0.61640  0.21700  Biso   1.000  O
  O38      1.0000 0.98910  0.11640  0.28300  Biso   1.000  O
  O39      1.0000 0.48910  0.38360  0.78300  Biso   1.000  O
  O40      1.0000 0.01090  0.88360  0.71700  Biso   1.000  O
  O41      1.0000 0.28200  0.63280  0.05780  Biso   1.000  O
  O42      1.0000 0.21800  0.13280  0.44220  Biso   1.000  O
  O43      1.0000 0.71800  0.36720  0.94220  Biso   1.000  O
  O44      1.0000 0.78200  0.86720  0.55780  Biso   1.000  O
  O45      1.0000 0.33700  0.70420  0.23040  Biso   1.000  O
  O46      1.0000 0.16300  0.20420  0.26960  Biso   1.000  O
  O47      1.0000 0.66300  0.29580  0.76960  Biso   1.000  O
  O48      1.0000 0.83700  0.79580  0.73040  Biso   1.000  O
  O49      1.0000 0.61750  0.47430  0.23280  Biso   1.000  O
  O50      1.0000 0.88250  0.97430  0.26720  Biso   1.000  O
  O51      1.0000 0.38250  0.52570  0.76720  Biso   1.000  O
  O52      1.0000 0.11750  0.02570  0.73280  Biso   1.000  O
  O53      1.0000 0.64690  0.67830  0.10880  Biso   1.000  O
  O54      1.0000 0.85310  0.17830  0.39120  Biso   1.000  O
  O55      1.0000 0.35310  0.32170  0.89120  Biso   1.000  O
  O56      1.0000 0.14690  0.82170  0.60880  Biso   1.000  O
  O57      1.0000 0.62100  0.30610  0.27200  Biso   1.000  O
  O58      1.0000 0.87900  0.80610  0.22800  Biso   1.000  O
  O59      1.0000 0.37900  0.69390  0.72800  Biso   1.000  O
  O60      1.0000 0.12100  0.19390  0.77200  Biso   1.000  O
  O61      1.0000 0.24970  0.46560  0.87670  Biso   1.000  O
  O62      1.0000 0.25030  0.96560  0.62330  Biso   1.000  O
  O63      1.0000 0.75030  0.53440  0.12330  Biso   1.000  O
  O64      1.0000 0.74970  0.03440  0.37670  Biso   1.000  O
  O65      1.0000 0.23260  0.38300  0.21590  Biso   1.000  O
  O66      1.0000 0.26740  0.88300  0.28410  Biso   1.000  O
  O67      1.0000 0.76740  0.61700  0.78410  Biso   1.000  O
  O68      1.0000 0.73260  0.11700  0.71590  Biso   1.000  O
  O69      1.0000 0.59120  0.82590  0.00910  Biso   1.000  O
  O70      1.0000 0.90880  0.32590  0.49090  Biso   1.000  O
  O71      1.0000 0.40880  0.17410  0.99090  Biso   1.000  O
  O72      1.0000 0.09120  0.67410  0.50910  Biso   1.000  O
  O73      1.0000 0.29970  0.62950  0.87900  Biso   1.000  O
  O74      1.0000 0.20030  0.12950  0.62100  Biso   1.000  O
  O75      1.0000 0.70030  0.37050  0.12100  Biso   1.000  O
  O76      1.0000 0.79970  0.87050  0.37900  Biso   1.000  O
  O77      1.0000 0.72200  0.62400  0.28400  Biso   1.000  O
  O78      1.0000 0.77800  0.12400  0.21600  Biso   1.000  O
  O79      1.0000 0.27800  0.37600  0.71600  Biso   1.000  O
  O80      1.0000 0.22200  0.87600  0.78400  Biso   1.000  O
  O81      1.0000 0.33600  0.32700  0.06800  Biso   1.000  O
  O82      1.0000 0.16400  0.82700  0.43200  Biso   1.000  O
  O83      1.0000 0.66400  0.67300  0.93200  Biso   1.000  O
  O84      1.0000 0.83600  0.17300  0.56800  Biso   1.000  O
  O85      1.0000 0.45200  0.71680  0.07900  Biso   1.000  O
  O86      1.0000 0.04800  0.21680  0.42100  Biso   1.000  O
  O87      1.0000 0.54800  0.28320  0.92100  Biso   1.000  O
  O88      1.0000 0.95200  0.78320  0.57900  Biso   1.000  O
  O89      1.0000 0.11000  0.58050  0.94000  Biso   1.000  O
  O90      1.0000 0.39000  0.08050  0.56000  Biso   1.000  O
  O91      1.0000 0.89000  0.41950  0.06000  Biso   1.000  O
  O92      1.0000 0.61000  0.91950  0.44000  Biso   1.000  O
  O93      1.0000 0.34300  0.52970  0.19370  Biso   1.000  O
  O94      1.0000 0.15700  0.02970  0.30630  Biso   1.000  O
  O95      1.0000 0.65700  0.47030  0.80630  Biso   1.000  O
  O96      1.0000 0.84300  0.97030  0.69370  Biso   1.000  O
  O97      1.0000 0.44500  0.38600  0.21200  Biso   1.000  O
  O98      1.0000 0.05500  0.88600  0.28800  Biso   1.000  O
  O99      1.0000 0.55500  0.61400  0.78800  Biso   1.000  O
  O100     1.0000 0.94500  0.11400  0.71200  Biso   1.000  O
  O101     1.0000 0.47500  0.73100  0.88600  Biso   1.000  O
  O102     1.0000 0.02500  0.23100  0.61400  Biso   1.000  O
  O103     1.0000 0.52500  0.26900  0.11400  Biso   1.000  O
  O104     1.0000 0.97500  0.76900  0.38600  Biso   1.000  O
  O105     1.0000 0.46600  0.69200  0.92100  Biso   1.000  O
  O106     1.0000 0.03400  0.19200  0.57900  Biso   1.000  O
  O107     1.0000 0.53400  0.30800  0.07900  Biso   1.000  O
  O108     1.0000 0.96600  0.80800  0.42100  Biso   1.000  O
