data_image0
_cell_length_a       7.2243
_cell_length_b       12.131
_cell_length_c       22.654
_cell_angle_alpha    90
_cell_angle_beta     96.066
_cell_angle_gamma    90

_symmetry_space_group_name_H-M    "P 1"
_symmetry_int_tables_number       1

loop_
  _symmetry_equiv_pos_as_xyz
  'x, y, z'

loop_
  _atom_site_label
  _atom_site_occupancy
  _atom_site_fract_x
  _atom_site_fract_y
  _atom_site_fract_z
  _atom_site_thermal_displace_type
  _atom_site_B_iso_or_equiv
  _atom_site_type_symbol
  Cu1      1.0000 0.31691  0.66278  0.27928  Biso   1.000  Cu
  Cu2      1.0000 0.68309  0.16278  0.22072  Biso   1.000  Cu
  Cu3      1.0000 0.68309  0.33722  0.72072  Biso   1.000  Cu
  Cu4      1.0000 0.31691  0.83722  0.77928  Biso   1.000  Cu
  Cu5      1.0000 0.76228  0.64798  0.35969  Biso   1.000  Cu
  Cu6      1.0000 0.23772  0.14798  0.14031  Biso   1.000  Cu
  Cu7      1.0000 0.23772  0.35202  0.64031  Biso   1.000  Cu
  Cu8      1.0000 0.76228  0.85202  0.85969  Biso   1.000  Cu
  C1       1.0000 0.08420  0.87140  0.27755  Biso   1.000  C
  C2       1.0000 0.91580  0.37140  0.22245  Biso   1.000  C
  C3       1.0000 0.91580  0.12860  0.72245  Biso   1.000  C
  C4       1.0000 0.08420  0.62860  0.77755  Biso   1.000  C
  H1       1.0000 0.00420  0.88380  0.24040  Biso   1.000  H
  H2       1.0000 0.99580  0.38380  0.25960  Biso   1.000  H
  H3       1.0000 0.99580  0.11620  0.75960  Biso   1.000  H
  H4       1.0000 0.00420  0.61620  0.74040  Biso   1.000  H
  C5       1.0000 0.09850  0.97890  0.31359  Biso   1.000  C
  C6       1.0000 0.90150  0.47890  0.18641  Biso   1.000  C
  C7       1.0000 0.90150  0.02110  0.68641  Biso   1.000  C
  C8       1.0000 0.09850  0.52110  0.81359  Biso   1.000  C
  H5       1.0000 0.07320  0.96030  0.35410  Biso   1.000  H
  H6       1.0000 0.92680  0.46030  0.14590  Biso   1.000  H
  H7       1.0000 0.92680  0.03970  0.64590  Biso   1.000  H
  H8       1.0000 0.07320  0.53970  0.85410  Biso   1.000  H
  C9       1.0000 0.30580  0.01220  0.31667  Biso   1.000  C
  C10      1.0000 0.69420  0.51220  0.18333  Biso   1.000  C
  C11      1.0000 0.69420  0.98780  0.68333  Biso   1.000  C
  C12      1.0000 0.30580  0.48780  0.81667  Biso   1.000  C
  H9       1.0000 0.35070  0.04390  0.35540  Biso   1.000  H
  H10      1.0000 0.64930  0.54390  0.14460  Biso   1.000  H
  H11      1.0000 0.64930  0.95610  0.64460  Biso   1.000  H
  H12      1.0000 0.35070  0.45610  0.85540  Biso   1.000  H
  C13      1.0000 0.40090  0.90130  0.30609  Biso   1.000  C
  C14      1.0000 0.59910  0.40130  0.19391  Biso   1.000  C
  C15      1.0000 0.59910  0.09870  0.69391  Biso   1.000  C
  C16      1.0000 0.40090  0.59870  0.80609  Biso   1.000  C
  H13      1.0000 0.51340  0.91670  0.28680  Biso   1.000  H
  H14      1.0000 0.48660  0.41670  0.21320  Biso   1.000  H
  H15      1.0000 0.48660  0.08330  0.71320  Biso   1.000  H
  H16      1.0000 0.51340  0.58330  0.78680  Biso   1.000  H
  C17      1.0000 0.00540  0.77730  0.31108  Biso   1.000  C
  C18      1.0000 0.99460  0.27730  0.18892  Biso   1.000  C
  C19      1.0000 0.99460  0.22270  0.68892  Biso   1.000  C
  C20      1.0000 0.00540  0.72270  0.81108  Biso   1.000  C
  C21      1.0000 0.96270  0.06960  0.29180  Biso   1.000  C
  C22      1.0000 0.03730  0.56960  0.20820  Biso   1.000  C
  C23      1.0000 0.03730  0.93040  0.70820  Biso   1.000  C
  C24      1.0000 0.96270  0.43040  0.79180  Biso   1.000  C
  C25      1.0000 0.35000  0.08620  0.26577  Biso   1.000  C
  C26      1.0000 0.65000  0.58620  0.23423  Biso   1.000  C
  C27      1.0000 0.65000  0.91380  0.73423  Biso   1.000  C
  C28      1.0000 0.35000  0.41380  0.76577  Biso   1.000  C
  C29      1.0000 0.45680  0.82860  0.36065  Biso   1.000  C
  C30      1.0000 0.54320  0.32860  0.13935  Biso   1.000  C
  C31      1.0000 0.54320  0.17140  0.63935  Biso   1.000  C
  C32      1.0000 0.45680  0.67140  0.86065  Biso   1.000  C
  C33      1.0000 0.87780  0.79000  0.46650  Biso   1.000  C
  C34      1.0000 0.12220  0.29000  0.03350  Biso   1.000  C
  C35      1.0000 0.12220  0.21000  0.53350  Biso   1.000  C
  C36      1.0000 0.87780  0.71000  0.96650  Biso   1.000  C
  H17      1.0000 0.89620  0.84770  0.44070  Biso   1.000  H
  H18      1.0000 0.10380  0.34770  0.05930  Biso   1.000  H
  H19      1.0000 0.10380  0.15230  0.55930  Biso   1.000  H
  H20      1.0000 0.89620  0.65230  0.94070  Biso   1.000  H
  C37      1.0000 0.90770  0.80770  0.52820  Biso   1.000  C
  C38      1.0000 0.09230  0.30770  0.97180  Biso   1.000  C
  C39      1.0000 0.09230  0.19230  0.47180  Biso   1.000  C
  C40      1.0000 0.90770  0.69230  0.02820  Biso   1.000  C
  H21      1.0000 0.94540  0.87670  0.54270  Biso   1.000  H
  H22      1.0000 0.05460  0.37670  0.95730  Biso   1.000  H
  H23      1.0000 0.05460  0.12330  0.45730  Biso   1.000  H
  H24      1.0000 0.94540  0.62330  0.04270  Biso   1.000  H
  C41      1.0000 0.88160  0.72440  0.56660  Biso   1.000  C
  C42      1.0000 0.11840  0.22440  0.93340  Biso   1.000  C
  C43      1.0000 0.11840  0.27560  0.43340  Biso   1.000  C
  C44      1.0000 0.88160  0.77560  0.06660  Biso   1.000  C
  H25      1.0000 0.90120  0.73650  0.60730  Biso   1.000  H
  H26      1.0000 0.09880  0.23650  0.89270  Biso   1.000  H
  H27      1.0000 0.09880  0.26350  0.39270  Biso   1.000  H
  H28      1.0000 0.90120  0.76350  0.10730  Biso   1.000  H
  C45      1.0000 0.82600  0.62180  0.54510  Biso   1.000  C
  C46      1.0000 0.17400  0.12180  0.95490  Biso   1.000  C
  C47      1.0000 0.17400  0.37820  0.45490  Biso   1.000  C
  C48      1.0000 0.82600  0.87820  0.04510  Biso   1.000  C
  C49      1.0000 0.79460  0.52710  0.58110  Biso   1.000  C
  C50      1.0000 0.20540  0.02710  0.91890  Biso   1.000  C
  C51      1.0000 0.20540  0.47290  0.41890  Biso   1.000  C
  C52      1.0000 0.79460  0.97290  0.08110  Biso   1.000  C
  H29      1.0000 0.81620  0.53280  0.62210  Biso   1.000  H
  H30      1.0000 0.18380  0.03280  0.87790  Biso   1.000  H
  H31      1.0000 0.18380  0.46720  0.37790  Biso   1.000  H
  H32      1.0000 0.81620  0.96720  0.12210  Biso   1.000  H
  C53      1.0000 0.73510  0.43090  0.55680  Biso   1.000  C
  C54      1.0000 0.26490  0.93090  0.94320  Biso   1.000  C
  C55      1.0000 0.26490  0.56910  0.44320  Biso   1.000  C
  C56      1.0000 0.73510  0.06910  0.05680  Biso   1.000  C
  H33      1.0000 0.71340  0.37210  0.58150  Biso   1.000  H
  H34      1.0000 0.28660  0.87210  0.91850  Biso   1.000  H
  H35      1.0000 0.28660  0.62790  0.41850  Biso   1.000  H
  H36      1.0000 0.71340  0.12790  0.08150  Biso   1.000  H
  C57      1.0000 0.70410  0.41650  0.49390  Biso   1.000  C
  C58      1.0000 0.29590  0.91650  0.00610  Biso   1.000  C
  C59      1.0000 0.29590  0.58350  0.50610  Biso   1.000  C
  C60      1.0000 0.70410  0.08350  0.99390  Biso   1.000  C
  C61      1.0000 0.64520  0.31830  0.46570  Biso   1.000  C
  C62      1.0000 0.35480  0.81830  0.03430  Biso   1.000  C
  C63      1.0000 0.35480  0.68170  0.53430  Biso   1.000  C
  C64      1.0000 0.64520  0.18170  0.96570  Biso   1.000  C
  H37      1.0000 0.62110  0.25670  0.48810  Biso   1.000  H
  H38      1.0000 0.37890  0.75670  0.01190  Biso   1.000  H
  H39      1.0000 0.37890  0.74330  0.51190  Biso   1.000  H
  H40      1.0000 0.62110  0.24330  0.98810  Biso   1.000  H
  C65      1.0000 0.62320  0.31330  0.40490  Biso   1.000  C
  C66      1.0000 0.37680  0.81330  0.09510  Biso   1.000  C
  C67      1.0000 0.37680  0.68670  0.59510  Biso   1.000  C
  C68      1.0000 0.62320  0.18670  0.90490  Biso   1.000  C
  H41      1.0000 0.58420  0.24830  0.38570  Biso   1.000  H
  H42      1.0000 0.41580  0.74830  0.11430  Biso   1.000  H
  H43      1.0000 0.41580  0.75170  0.61430  Biso   1.000  H
  H44      1.0000 0.58420  0.25170  0.88570  Biso   1.000  H
  C69      1.0000 0.65990  0.40670  0.37230  Biso   1.000  C
  C70      1.0000 0.34010  0.90670  0.12770  Biso   1.000  C
  C71      1.0000 0.34010  0.59330  0.62770  Biso   1.000  C
  C72      1.0000 0.65990  0.09330  0.87230  Biso   1.000  C
  H45      1.0000 0.64690  0.40220  0.33110  Biso   1.000  H
  H46      1.0000 0.35310  0.90220  0.16890  Biso   1.000  H
  H47      1.0000 0.35310  0.59780  0.66890  Biso   1.000  H
  H48      1.0000 0.64690  0.09780  0.83110  Biso   1.000  H
  C73      1.0000 0.73620  0.50670  0.45760  Biso   1.000  C
  C74      1.0000 0.26380  0.00670  0.04240  Biso   1.000  C
  C75      1.0000 0.26380  0.49330  0.54240  Biso   1.000  C
  C76      1.0000 0.73620  0.99330  0.95760  Biso   1.000  C
  C77      1.0000 0.79830  0.61000  0.48330  Biso   1.000  C
  C78      1.0000 0.20170  0.11000  0.01670  Biso   1.000  C
  C79      1.0000 0.20170  0.39000  0.51670  Biso   1.000  C
  C80      1.0000 0.79830  0.89000  0.98330  Biso   1.000  C
  O1       1.0000 0.10230  0.69180  0.32393  Biso   1.000  O
  O2       1.0000 0.89770  0.19180  0.17607  Biso   1.000  O
  O3       1.0000 0.89770  0.30820  0.67607  Biso   1.000  O
  O4       1.0000 0.10230  0.80820  0.82393  Biso   1.000  O
  O5       1.0000 0.84600  0.78840  0.32691  Biso   1.000  O
  O6       1.0000 0.15400  0.28840  0.17309  Biso   1.000  O
  O7       1.0000 0.15400  0.21160  0.67309  Biso   1.000  O
  O8       1.0000 0.84600  0.71160  0.82691  Biso   1.000  O
  O9       1.0000 0.82050  0.03940  0.25724  Biso   1.000  O
  O10      1.0000 0.17950  0.53940  0.24276  Biso   1.000  O
  O11      1.0000 0.17950  0.96060  0.74276  Biso   1.000  O
  O12      1.0000 0.82050  0.46060  0.75724  Biso   1.000  O
  O13      1.0000 0.99740  0.16510  0.30805  Biso   1.000  O
  O14      1.0000 0.00260  0.66510  0.19195  Biso   1.000  O
  O15      1.0000 0.00260  0.83490  0.69195  Biso   1.000  O
  O16      1.0000 0.99740  0.33490  0.80805  Biso   1.000  O
  O17      1.0000 0.25050  0.07370  0.21707  Biso   1.000  O
  O18      1.0000 0.74950  0.57370  0.28293  Biso   1.000  O
  O19      1.0000 0.74950  0.92630  0.78293  Biso   1.000  O
  O20      1.0000 0.25050  0.42630  0.71707  Biso   1.000  O
  O21      1.0000 0.49270  0.14660  0.27463  Biso   1.000  O
  O22      1.0000 0.50730  0.64660  0.22537  Biso   1.000  O
  O23      1.0000 0.50730  0.85340  0.72537  Biso   1.000  O
  O24      1.0000 0.49270  0.35340  0.77463  Biso   1.000  O
  O25      1.0000 0.48830  0.86980  0.40984  Biso   1.000  O
  O26      1.0000 0.51170  0.36980  0.09016  Biso   1.000  O
  O27      1.0000 0.51170  0.13020  0.59016  Biso   1.000  O
  O28      1.0000 0.48830  0.63020  0.90984  Biso   1.000  O
  O29      1.0000 0.47520  0.72580  0.34873  Biso   1.000  O
  O30      1.0000 0.52480  0.22580  0.15127  Biso   1.000  O
  O31      1.0000 0.52480  0.27420  0.65127  Biso   1.000  O
  O32      1.0000 0.47520  0.77420  0.84873  Biso   1.000  O
  O33      1.0000 0.27080  0.84550  0.26378  Biso   1.000  O
  O34      1.0000 0.72920  0.34550  0.23622  Biso   1.000  O
  O35      1.0000 0.72920  0.15450  0.73622  Biso   1.000  O
  O36      1.0000 0.27080  0.65450  0.76378  Biso   1.000  O
  N1       1.0000 0.82400  0.69310  0.44458  Biso   1.000  N
  N2       1.0000 0.17600  0.19310  0.05542  Biso   1.000  N
  N3       1.0000 0.17600  0.30690  0.55542  Biso   1.000  N
  N4       1.0000 0.82400  0.80690  0.94458  Biso   1.000  N
  N5       1.0000 0.71250  0.50170  0.39761  Biso   1.000  N
  N6       1.0000 0.28750  0.00170  0.10239  Biso   1.000  N
  N7       1.0000 0.28750  0.49830  0.60239  Biso   1.000  N
  N8       1.0000 0.71250  0.99830  0.89761  Biso   1.000  N
  O37      1.0000 0.65800  0.04280  0.48490  Biso   1.000  O
  O38      1.0000 0.34200  0.54280  0.01510  Biso   1.000  O
  O39      1.0000 0.34200  0.95720  0.51510  Biso   1.000  O
  O40      1.0000 0.65800  0.45720  0.98490  Biso   1.000  O
  O41      1.0000 0.75300  0.04800  0.40660  Biso   1.000  O
  O42      1.0000 0.24700  0.54800  0.09340  Biso   1.000  O
  O43      1.0000 0.24700  0.95200  0.59340  Biso   1.000  O
  O44      1.0000 0.75300  0.45200  0.90660  Biso   1.000  O
