data_image0
_cell_length_a       6.3272
_cell_length_b       6.8535
_cell_length_c       6.9057
_cell_angle_alpha    112.863
_cell_angle_beta     102.779
_cell_angle_gamma    103.167

_symmetry_space_group_name_H-M    "P 1"
_symmetry_int_tables_number       1

loop_
  _symmetry_equiv_pos_as_xyz
  'x, y, z'

loop_
  _atom_site_label
  _atom_site_occupancy
  _atom_site_fract_x
  _atom_site_fract_y
  _atom_site_fract_z
  _atom_site_thermal_displace_type
  _atom_site_B_iso_or_equiv
  _atom_site_type_symbol
  Cu1      1.0000 0.50000  0.50000  0.50000  Biso   1.000  Cu
  O1       1.0000 0.90100  0.66510  0.73330  Biso   1.000  O
  O2       1.0000 0.09900  0.33490  0.26670  Biso   1.000  O
  N1       1.0000 0.49810  0.79840  0.50210  Biso   1.000  N
  N2       1.0000 0.50190  0.20160  0.49790  Biso   1.000  N
  N3       1.0000 0.37190  0.56580  0.74370  Biso   1.000  N
  N4       1.0000 0.62810  0.43420  0.25630  Biso   1.000  N
  O3       1.0000 0.89090  0.81000  0.07350  Biso   1.000  O
  O4       1.0000 0.10910  0.19000  0.92650  Biso   1.000  O
  C1       1.0000 0.32980  0.88020  0.53770  Biso   1.000  C
  C2       1.0000 0.67020  0.11980  0.46230  Biso   1.000  C
  H1       1.0000 0.20660  0.79880  0.56500  Biso   1.000  H
  H2       1.0000 0.79340  0.20120  0.43500  Biso   1.000  H
  N5       1.0000 0.98750  0.73340  0.94120  Biso   1.000  N
  N6       1.0000 0.01250  0.26660  0.05880  Biso   1.000  N
  N7       1.0000 0.19680  0.72280  0.02660  Biso   1.000  N
  N8       1.0000 0.80320  0.27720  0.97340  Biso   1.000  N
  C3       1.0000 0.66770  0.91830  0.46470  Biso   1.000  C
  C4       1.0000 0.33230  0.08170  0.53530  Biso   1.000  C
  H3       1.0000 0.78960  0.86420  0.43920  Biso   1.000  H
  H4       1.0000 0.21040  0.13580  0.56080  Biso   1.000  H
  C5       1.0000 0.28080  0.63720  0.86790  Biso   1.000  C
  C6       1.0000 0.71920  0.36280  0.13210  Biso   1.000  C
