data_image0
_cell_length_a       7.3601
_cell_length_b       13.5424
_cell_length_c       15.1256
_cell_angle_alpha    72.582
_cell_angle_beta     76.263
_cell_angle_gamma    80.152

_symmetry_space_group_name_H-M    "P 1"
_symmetry_int_tables_number       1

loop_
  _symmetry_equiv_pos_as_xyz
  'x, y, z'

loop_
  _atom_site_label
  _atom_site_occupancy
  _atom_site_fract_x
  _atom_site_fract_y
  _atom_site_fract_z
  _atom_site_thermal_displace_type
  _atom_site_B_iso_or_equiv
  _atom_site_type_symbol
  Er1      1.0000 0.03786  0.44593  0.81053  Biso   1.000  Er
  Er2      1.0000 0.96214  0.55407  0.18947  Biso   1.000  Er
  Cu1      1.0000 0.00000  0.00000  0.50000  Biso   1.000  Cu
  Cu2      1.0000 0.94659  0.11031  0.15355  Biso   1.000  Cu
  Cu3      1.0000 0.05341  0.88969  0.84645  Biso   1.000  Cu
  N1       1.0000 0.15230  0.86820  0.48940  Biso   1.000  N
  N2       1.0000 0.84770  0.13180  0.51060  Biso   1.000  N
  N3       1.0000 0.13040  0.03440  0.07230  Biso   1.000  N
  N4       1.0000 0.86960  0.96560  0.92770  Biso   1.000  N
  N5       1.0000 0.26690  0.82010  0.77630  Biso   1.000  N
  N6       1.0000 0.73310  0.17990  0.22370  Biso   1.000  N
  O1       1.0000 0.91800  0.36060  0.72720  Biso   1.000  O
  O2       1.0000 0.08200  0.63940  0.27280  Biso   1.000  O
  O3       1.0000 0.33490  0.37770  0.75020  Biso   1.000  O
  O4       1.0000 0.66510  0.62230  0.24980  Biso   1.000  O
  O5       1.0000 0.79580  0.40890  0.94070  Biso   1.000  O
  O6       1.0000 0.20420  0.59110  0.05930  Biso   1.000  O
  O7       1.0000 0.99920  0.59650  0.86830  Biso   1.000  O
  O8       1.0000 0.00080  0.40350  0.13170  Biso   1.000  O
  O9       1.0000 0.20990  0.41970  0.93610  Biso   1.000  O
  O10      1.0000 0.79010  0.58030  0.06390  Biso   1.000  O
  O11      1.0000 0.17920  0.19910  0.17350  Biso   1.000  O
  O12      1.0000 0.82080  0.80090  0.82650  Biso   1.000  O
  O13      1.0000 0.15070  0.57430  0.67910  Biso   1.000  O
  O14      1.0000 0.84930  0.42570  0.32090  Biso   1.000  O
  O15      1.0000 0.43850  0.53100  0.60540  Biso   1.000  O
  O16      1.0000 0.56150  0.46900  0.39460  Biso   1.000  O
  O17      1.0000 0.37110  0.00880  0.26540  Biso   1.000  O
  O18      1.0000 0.62890  0.99120  0.73460  Biso   1.000  O
  O19      1.0000 0.14750  0.05660  0.37650  Biso   1.000  O
  O20      1.0000 0.85250  0.94340  0.62350  Biso   1.000  O
  O21      1.0000 0.41180  0.74270  0.15080  Biso   1.000  O
  O22      1.0000 0.58820  0.25730  0.84920  Biso   1.000  O
  O23      1.0000 0.57160  0.75450  0.00380  Biso   1.000  O
  O24      1.0000 0.42840  0.24550  0.99620  Biso   1.000  O
  O25      1.0000 0.09010  0.25790  0.88270  Biso   1.000  O
  O26      1.0000 0.90990  0.74210  0.11730  Biso   1.000  O
  O27      1.0000 0.94310  0.21850  0.03330  Biso   1.000  O
  O28      1.0000 0.05690  0.78150  0.96670  Biso   1.000  O
  O29      1.0000 0.52010  0.53020  0.87480  Biso   1.000  O
  O30      1.0000 0.47990  0.46980  0.12520  Biso   1.000  O
  O31      1.0000 0.77100  0.55500  0.75900  Biso   1.000  O
  O32      1.0000 0.22900  0.44500  0.24100  Biso   1.000  O
  O33      1.0000 0.25340  0.04410  0.58640  Biso   1.000  O
  O34      1.0000 0.74660  0.95590  0.41360  Biso   1.000  O
  O35      1.0000 0.09380  0.00550  0.73480  Biso   1.000  O
  O36      1.0000 0.90620  0.99450  0.26520  Biso   1.000  O
  C1       1.0000 0.28960  0.58980  0.61250  Biso   1.000  C
  C2       1.0000 0.71040  0.41020  0.38750  Biso   1.000  C
  C3       1.0000 0.27950  0.69180  0.53660  Biso   1.000  C
  C4       1.0000 0.72050  0.30820  0.46340  Biso   1.000  C
  C5       1.0000 0.40930  0.70390  0.45170  Biso   1.000  C
  C6       1.0000 0.59070  0.29610  0.54830  Biso   1.000  C
  C7       1.0000 0.40330  0.79990  0.38410  Biso   1.000  C
  C8       1.0000 0.59670  0.20010  0.61590  Biso   1.000  C
  C9       1.0000 0.27760  0.88030  0.40740  Biso   1.000  C
  C10      1.0000 0.72240  0.11970  0.59260  Biso   1.000  C
  C11      1.0000 0.15110  0.77450  0.55430  Biso   1.000  C
  C12      1.0000 0.84890  0.22550  0.44570  Biso   1.000  C
  C13      1.0000 0.26650  0.98750  0.34380  Biso   1.000  C
  C14      1.0000 0.73350  0.01250  0.65620  Biso   1.000  C
  C15      1.0000 0.45030  0.78710  0.06500  Biso   1.000  C
  C16      1.0000 0.54970  0.21290  0.93500  Biso   1.000  C
  C17      1.0000 0.34480  0.89430  0.03210  Biso   1.000  C
  C18      1.0000 0.65520  0.10570  0.96790  Biso   1.000  C
  C19      1.0000 0.37320  0.95010  0.93680  Biso   1.000  C
  C20      1.0000 0.62680  0.04990  0.06320  Biso   1.000  C
  C21      1.0000 0.28200  0.05080  0.90980  Biso   1.000  C
  C22      1.0000 0.71800  0.94920  0.09020  Biso   1.000  C
  C23      1.0000 0.16390  0.09010  0.97950  Biso   1.000  C
  C24      1.0000 0.83610  0.90990  0.02050  Biso   1.000  C
  C25      1.0000 0.22110  0.93800  0.09900  Biso   1.000  C
  C26      1.0000 0.77890  0.06200  0.90100  Biso   1.000  C
  C27      1.0000 0.05910  0.19690  0.96280  Biso   1.000  C
  C28      1.0000 0.94090  0.80310  0.03720  Biso   1.000  C
  C29      1.0000 0.60880  0.58160  0.79810  Biso   1.000  C
  C30      1.0000 0.39120  0.41840  0.20190  Biso   1.000  C
  C31      1.0000 0.51430  0.68560  0.75300  Biso   1.000  C
  C32      1.0000 0.48570  0.31440  0.24700  Biso   1.000  C
  C33      1.0000 0.58180  0.74760  0.66300  Biso   1.000  C
  C34      1.0000 0.41820  0.25240  0.33700  Biso   1.000  C
  C35      1.0000 0.48750  0.84600  0.62740  Biso   1.000  C
  C36      1.0000 0.51250  0.15400  0.37260  Biso   1.000  C
  C37      1.0000 0.33160  0.87970  0.68840  Biso   1.000  C
  C38      1.0000 0.66840  0.12030  0.31160  Biso   1.000  C
  C39      1.0000 0.35430  0.72410  0.80790  Biso   1.000  C
  C40      1.0000 0.64570  0.27590  0.19210  Biso   1.000  C
  C41      1.0000 0.21920  0.98570  0.66610  Biso   1.000  C
  C42      1.0000 0.78080  0.01430  0.33390  Biso   1.000  C
  O37      1.0000 0.83500  0.56440  0.54320  Biso   1.000  O
  O38      1.0000 0.16500  0.43560  0.45680  Biso   1.000  O
  O39      1.0000 0.10100  0.25300  0.60670  Biso   1.000  O
  O40      1.0000 0.89900  0.74700  0.39330  Biso   1.000  O
