data_image0
_cell_length_a       7.8075
_cell_length_b       7.8075
_cell_length_c       29.146
_cell_angle_alpha    90
_cell_angle_beta     90
_cell_angle_gamma    90

_symmetry_space_group_name_H-M    "P 1"
_symmetry_int_tables_number       1

loop_
  _symmetry_equiv_pos_as_xyz
  'x, y, z'

loop_
  _atom_site_label
  _atom_site_occupancy
  _atom_site_fract_x
  _atom_site_fract_y
  _atom_site_fract_z
  _atom_site_thermal_displace_type
  _atom_site_B_iso_or_equiv
  _atom_site_type_symbol
  Cu1      1.0000 0.17765  0.17765  0.00000  Biso   1.000  Cu
  Cu2      1.0000 0.32235  0.67765  0.75000  Biso   1.000  Cu
  Cu3      1.0000 0.82235  0.82235  0.50000  Biso   1.000  Cu
  Cu4      1.0000 0.67765  0.32235  0.25000  Biso   1.000  Cu
  O1       1.0000 0.33690  0.00800  0.94238  Biso   1.000  O
  O2       1.0000 0.49200  0.83690  0.69238  Biso   1.000  O
  O3       1.0000 0.66310  0.99200  0.44238  Biso   1.000  O
  O4       1.0000 0.50800  0.16310  0.19238  Biso   1.000  O
  O5       1.0000 0.83690  0.49200  0.30762  Biso   1.000  O
  O6       1.0000 0.16310  0.50800  0.80762  Biso   1.000  O
  O7       1.0000 0.00800  0.33690  0.05762  Biso   1.000  O
  O8       1.0000 0.99200  0.66310  0.55762  Biso   1.000  O
  N1       1.0000 0.34570  0.85100  0.83021  Biso   1.000  N
  N2       1.0000 0.64900  0.84570  0.58021  Biso   1.000  N
  N3       1.0000 0.65430  0.14900  0.33021  Biso   1.000  N
  N4       1.0000 0.35100  0.15430  0.08021  Biso   1.000  N
  N5       1.0000 0.84570  0.64900  0.41979  Biso   1.000  N
  N6       1.0000 0.15430  0.35100  0.91979  Biso   1.000  N
  N7       1.0000 0.85100  0.34570  0.16979  Biso   1.000  N
  N8       1.0000 0.14900  0.65430  0.66979  Biso   1.000  N
  C1       1.0000 0.41060  0.90480  0.86925  Biso   1.000  C
  C2       1.0000 0.59520  0.91060  0.61925  Biso   1.000  C
  C3       1.0000 0.58940  0.09520  0.36925  Biso   1.000  C
  C4       1.0000 0.40480  0.08940  0.11925  Biso   1.000  C
  C5       1.0000 0.91060  0.59520  0.38075  Biso   1.000  C
  C6       1.0000 0.08940  0.40480  0.88075  Biso   1.000  C
  C7       1.0000 0.90480  0.41060  0.13075  Biso   1.000  C
  C8       1.0000 0.09520  0.58940  0.63075  Biso   1.000  C
  H1       1.0000 0.01700  0.00100  0.91150  Biso   1.000  H
  H2       1.0000 0.49900  0.51700  0.66150  Biso   1.000  H
  H3       1.0000 0.98300  0.99900  0.41150  Biso   1.000  H
  H4       1.0000 0.50100  0.48300  0.16150  Biso   1.000  H
  H5       1.0000 0.51700  0.49900  0.33850  Biso   1.000  H
  H6       1.0000 0.48300  0.50100  0.83850  Biso   1.000  H
  H7       1.0000 0.00100  0.01700  0.08850  Biso   1.000  H
  H8       1.0000 0.99900  0.98300  0.58850  Biso   1.000  H
  O9       1.0000 0.45230  0.79490  0.79946  Biso   1.000  O
  O10      1.0000 0.70510  0.95230  0.54946  Biso   1.000  O
  O11      1.0000 0.54770  0.20510  0.29946  Biso   1.000  O
  O12      1.0000 0.29490  0.04770  0.04946  Biso   1.000  O
  O13      1.0000 0.95230  0.70510  0.45054  Biso   1.000  O
  O14      1.0000 0.04770  0.29490  0.95054  Biso   1.000  O
  O15      1.0000 0.79490  0.45230  0.20054  Biso   1.000  O
  O16      1.0000 0.20510  0.54770  0.70054  Biso   1.000  O
  N9       1.0000 0.73060  0.91560  0.88776  Biso   1.000  N
  N10      1.0000 0.58440  0.23060  0.63776  Biso   1.000  N
  N11      1.0000 0.26940  0.08440  0.38776  Biso   1.000  N
  N12      1.0000 0.41560  0.76940  0.13776  Biso   1.000  N
  N13      1.0000 0.23060  0.58440  0.36224  Biso   1.000  N
  N14      1.0000 0.76940  0.41560  0.86224  Biso   1.000  N
  N15      1.0000 0.91560  0.73060  0.11224  Biso   1.000  N
  N16      1.0000 0.08440  0.26940  0.61224  Biso   1.000  N
  C9       1.0000 0.58850  0.91010  0.87989  Biso   1.000  C
  C10      1.0000 0.58990  0.08850  0.62989  Biso   1.000  C
  C11      1.0000 0.41150  0.08990  0.37989  Biso   1.000  C
  C12      1.0000 0.41010  0.91150  0.12989  Biso   1.000  C
  C13      1.0000 0.08850  0.58990  0.37011  Biso   1.000  C
  C14      1.0000 0.91150  0.41010  0.87011  Biso   1.000  C
  C15      1.0000 0.91010  0.58850  0.12011  Biso   1.000  C
  C16      1.0000 0.08990  0.41150  0.62011  Biso   1.000  C
  H9       1.0000 0.10600  0.91500  0.86380  Biso   1.000  H
  H10      1.0000 0.58500  0.60600  0.61380  Biso   1.000  H
  H11      1.0000 0.89400  0.08500  0.36380  Biso   1.000  H
  H12      1.0000 0.41500  0.39400  0.11380  Biso   1.000  H
  H13      1.0000 0.60600  0.58500  0.38620  Biso   1.000  H
  H14      1.0000 0.39400  0.41500  0.88620  Biso   1.000  H
  H15      1.0000 0.91500  0.10600  0.13620  Biso   1.000  H
  H16      1.0000 0.08500  0.89400  0.63620  Biso   1.000  H
  N17      1.0000 0.12170  0.95990  0.89147  Biso   1.000  N
  N18      1.0000 0.54010  0.62170  0.64147  Biso   1.000  N
  N19      1.0000 0.87830  0.04010  0.39147  Biso   1.000  N
  N20      1.0000 0.45990  0.37830  0.14147  Biso   1.000  N
  N21      1.0000 0.62170  0.54010  0.35853  Biso   1.000  N
  N22      1.0000 0.37830  0.45990  0.85853  Biso   1.000  N
  N23      1.0000 0.95990  0.12170  0.10853  Biso   1.000  N
  N24      1.0000 0.04010  0.87830  0.60853  Biso   1.000  N
  C17      1.0000 0.28660  0.96340  0.90425  Biso   1.000  C
  C18      1.0000 0.53660  0.78660  0.65425  Biso   1.000  C
  C19      1.0000 0.71340  0.03660  0.40425  Biso   1.000  C
  C20      1.0000 0.46340  0.21340  0.15425  Biso   1.000  C
  C21      1.0000 0.78660  0.53660  0.34575  Biso   1.000  C
  C22      1.0000 0.21340  0.46340  0.84575  Biso   1.000  C
  C23      1.0000 0.96340  0.28660  0.09575  Biso   1.000  C
  C24      1.0000 0.03660  0.71340  0.59575  Biso   1.000  C
  N25      1.0000 0.35810  0.35810  0.00000  Biso   1.000  N
  N26      1.0000 0.14190  0.85810  0.75000  Biso   1.000  N
  N27      1.0000 0.64190  0.64190  0.50000  Biso   1.000  N
  N28      1.0000 0.85810  0.14190  0.25000  Biso   1.000  N
  C25      1.0000 0.33770  0.50460  0.02314  Biso   1.000  C
  C26      1.0000 0.99540  0.83770  0.77314  Biso   1.000  C
  C27      1.0000 0.66230  0.49540  0.52314  Biso   1.000  C
  C28      1.0000 0.00460  0.16230  0.27314  Biso   1.000  C
  C29      1.0000 0.83770  0.99540  0.22686  Biso   1.000  C
  C30      1.0000 0.16230  0.00460  0.72686  Biso   1.000  C
  C31      1.0000 0.50460  0.33770  0.97686  Biso   1.000  C
  C32      1.0000 0.49540  0.66230  0.47686  Biso   1.000  C
  H17      1.0000 0.23490  0.52070  0.04000  Biso   1.000  H
  H18      1.0000 0.97930  0.73490  0.79000  Biso   1.000  H
  H19      1.0000 0.76510  0.47930  0.54000  Biso   1.000  H
  H20      1.0000 0.02070  0.26510  0.29000  Biso   1.000  H
  H21      1.0000 0.73490  0.97930  0.21000  Biso   1.000  H
  H22      1.0000 0.26510  0.02070  0.71000  Biso   1.000  H
  H23      1.0000 0.52070  0.23490  0.96000  Biso   1.000  H
  H24      1.0000 0.47930  0.76510  0.46000  Biso   1.000  H
  N29      1.0000 0.99540  0.99540  0.00000  Biso   1.000  N
  N30      1.0000 0.50460  0.49540  0.75000  Biso   1.000  N
  N31      1.0000 0.00460  0.00460  0.50000  Biso   1.000  N
  N32      1.0000 0.49540  0.50460  0.25000  Biso   1.000  N
  C33      1.0000 0.45770  0.63270  0.02374  Biso   1.000  C
  C34      1.0000 0.86730  0.95770  0.77374  Biso   1.000  C
  C35      1.0000 0.54230  0.36730  0.52374  Biso   1.000  C
  C36      1.0000 0.13270  0.04230  0.27374  Biso   1.000  C
  C37      1.0000 0.95770  0.86730  0.22626  Biso   1.000  C
  C38      1.0000 0.04230  0.13270  0.72626  Biso   1.000  C
  C39      1.0000 0.63270  0.45770  0.97626  Biso   1.000  C
  C40      1.0000 0.36730  0.54230  0.47626  Biso   1.000  C
  H25      1.0000 0.43660  0.73560  0.04020  Biso   1.000  H
  H26      1.0000 0.76440  0.93660  0.79020  Biso   1.000  H
  H27      1.0000 0.56340  0.26440  0.54020  Biso   1.000  H
  H28      1.0000 0.23560  0.06340  0.29020  Biso   1.000  H
  H29      1.0000 0.93660  0.76440  0.20980  Biso   1.000  H
  H30      1.0000 0.06340  0.23560  0.70980  Biso   1.000  H
  H31      1.0000 0.73560  0.43660  0.95980  Biso   1.000  H
  H32      1.0000 0.26440  0.56340  0.45980  Biso   1.000  H
  C41      1.0000 0.61060  0.61060  0.00000  Biso   1.000  C
  C42      1.0000 0.88940  0.11060  0.75000  Biso   1.000  C
  C43      1.0000 0.38940  0.38940  0.50000  Biso   1.000  C
  C44      1.0000 0.11060  0.88940  0.25000  Biso   1.000  C
  C45      1.0000 0.74530  0.74530  0.00000  Biso   1.000  C
  C46      1.0000 0.75470  0.24530  0.75000  Biso   1.000  C
  C47      1.0000 0.25470  0.25470  0.50000  Biso   1.000  C
  C48      1.0000 0.24530  0.75470  0.25000  Biso   1.000  C
  C49      1.0000 0.70220  0.91630  0.00456  Biso   1.000  C
  C50      1.0000 0.58370  0.20220  0.75456  Biso   1.000  C
  C51      1.0000 0.29780  0.08370  0.50456  Biso   1.000  C
  C52      1.0000 0.41630  0.79780  0.25456  Biso   1.000  C
  C53      1.0000 0.20220  0.58370  0.24544  Biso   1.000  C
  C54      1.0000 0.79780  0.41630  0.74544  Biso   1.000  C
  C55      1.0000 0.91630  0.70220  0.99544  Biso   1.000  C
  C56      1.0000 0.08370  0.29780  0.49544  Biso   1.000  C
  H33      1.0000 0.58590  0.94970  0.00800  Biso   1.000  H
  H34      1.0000 0.55030  0.08590  0.75800  Biso   1.000  H
  H35      1.0000 0.41410  0.05030  0.50800  Biso   1.000  H
  H36      1.0000 0.44970  0.91410  0.25800  Biso   1.000  H
  H37      1.0000 0.08590  0.55030  0.24200  Biso   1.000  H
  H38      1.0000 0.91410  0.44970  0.74200  Biso   1.000  H
  H39      1.0000 0.94970  0.58590  0.99200  Biso   1.000  H
  H40      1.0000 0.05030  0.41410  0.49200  Biso   1.000  H
  C57      1.0000 0.83010  0.03700  0.00400  Biso   1.000  C
  C58      1.0000 0.46300  0.33010  0.75400  Biso   1.000  C
  C59      1.0000 0.16990  0.96300  0.50400  Biso   1.000  C
  C60      1.0000 0.53700  0.66990  0.25400  Biso   1.000  C
  C61      1.0000 0.33010  0.46300  0.24600  Biso   1.000  C
  C62      1.0000 0.66990  0.53700  0.74600  Biso   1.000  C
  C63      1.0000 0.03700  0.83010  0.99600  Biso   1.000  C
  C64      1.0000 0.96300  0.16990  0.49600  Biso   1.000  C
  H41      1.0000 0.79990  0.15450  0.00650  Biso   1.000  H
  H42      1.0000 0.34550  0.29990  0.75650  Biso   1.000  H
  H43      1.0000 0.20010  0.84550  0.50650  Biso   1.000  H
  H44      1.0000 0.65450  0.70010  0.25650  Biso   1.000  H
  H45      1.0000 0.29990  0.34550  0.24350  Biso   1.000  H
  H46      1.0000 0.70010  0.65450  0.74350  Biso   1.000  H
  H47      1.0000 0.15450  0.79990  0.99350  Biso   1.000  H
  H48      1.0000 0.84550  0.20010  0.49350  Biso   1.000  H
