data_image0
_cell_length_a       9.2988
_cell_length_b       25.588
_cell_length_c       7.8161
_cell_angle_alpha    90
_cell_angle_beta     97.25
_cell_angle_gamma    90

_symmetry_space_group_name_H-M    "P 1"
_symmetry_int_tables_number       1

loop_
  _symmetry_equiv_pos_as_xyz
  'x, y, z'

loop_
  _atom_site_label
  _atom_site_occupancy
  _atom_site_fract_x
  _atom_site_fract_y
  _atom_site_fract_z
  _atom_site_thermal_displace_type
  _atom_site_B_iso_or_equiv
  _atom_site_type_symbol
  H1       1.0000 0.06300  0.64900  0.06500  Biso   1.000  H
  H2       1.0000 0.93700  0.14900  0.43500  Biso   1.000  H
  H3       1.0000 0.93700  0.35100  0.93500  Biso   1.000  H
  H4       1.0000 0.06300  0.85100  0.56500  Biso   1.000  H
  H5       1.0000 0.15600  0.68250  0.10300  Biso   1.000  H
  H6       1.0000 0.84400  0.18250  0.39700  Biso   1.000  H
  H7       1.0000 0.84400  0.31750  0.89700  Biso   1.000  H
  H8       1.0000 0.15600  0.81750  0.60300  Biso   1.000  H
  H9       1.0000 0.03800  0.56740  0.66800  Biso   1.000  H
  H10      1.0000 0.96200  0.06740  0.83200  Biso   1.000  H
  H11      1.0000 0.96200  0.43260  0.33200  Biso   1.000  H
  H12      1.0000 0.03800  0.93260  0.16800  Biso   1.000  H
  H13      1.0000 0.95300  0.60100  0.74200  Biso   1.000  H
  H14      1.0000 0.04700  0.10100  0.75800  Biso   1.000  H
  H15      1.0000 0.04700  0.39900  0.25800  Biso   1.000  H
  H16      1.0000 0.95300  0.89900  0.24200  Biso   1.000  H
  H17      1.0000 0.14900  0.56100  0.36300  Biso   1.000  H
  H18      1.0000 0.85100  0.06100  0.13700  Biso   1.000  H
  H19      1.0000 0.85100  0.43900  0.63700  Biso   1.000  H
  H20      1.0000 0.14900  0.93900  0.86300  Biso   1.000  H
  H21      1.0000 0.01900  0.53820  0.29400  Biso   1.000  H
  H22      1.0000 0.98100  0.03820  0.20600  Biso   1.000  H
  H23      1.0000 0.98100  0.46180  0.70600  Biso   1.000  H
  H24      1.0000 0.01900  0.96180  0.79400  Biso   1.000  H
  H25      1.0000 0.81600  0.27600  0.15100  Biso   1.000  H
  H26      1.0000 0.18400  0.77600  0.34900  Biso   1.000  H
  H27      1.0000 0.18400  0.72400  0.84900  Biso   1.000  H
  H28      1.0000 0.81600  0.22400  0.65100  Biso   1.000  H
  H29      1.0000 0.75700  0.24110  0.04000  Biso   1.000  H
  H30      1.0000 0.24300  0.74110  0.46000  Biso   1.000  H
  H31      1.0000 0.24300  0.75890  0.96000  Biso   1.000  H
  H32      1.0000 0.75700  0.25890  0.54000  Biso   1.000  H
  Sm1      1.0000 0.01388  0.34957  0.58681  Biso   1.000  Sm
  Sm2      1.0000 0.98612  0.84957  0.91319  Biso   1.000  Sm
  Sm3      1.0000 0.98612  0.65043  0.41319  Biso   1.000  Sm
  Sm4      1.0000 0.01388  0.15043  0.08681  Biso   1.000  Sm
  Cu1      1.0000 0.50000  0.50000  0.50000  Biso   1.000  Cu
  Cu2      1.0000 0.50000  0.00000  0.00000  Biso   1.000  Cu
  C1       1.0000 0.24890  0.20442  0.83490  Biso   1.000  C
  C2       1.0000 0.75110  0.70442  0.66510  Biso   1.000  C
  C3       1.0000 0.75110  0.79558  0.16510  Biso   1.000  C
  C4       1.0000 0.24890  0.29558  0.33490  Biso   1.000  C
  C5       1.0000 0.37230  0.22160  0.76800  Biso   1.000  C
  C6       1.0000 0.62770  0.72160  0.73200  Biso   1.000  C
  C7       1.0000 0.62770  0.77840  0.23200  Biso   1.000  C
  C8       1.0000 0.37230  0.27840  0.26800  Biso   1.000  C
  H33      1.0000 0.36670  0.24790  0.68520  Biso   1.000  H
  H34      1.0000 0.63330  0.74790  0.81480  Biso   1.000  H
  H35      1.0000 0.63330  0.75210  0.31480  Biso   1.000  H
  H36      1.0000 0.36670  0.25210  0.18520  Biso   1.000  H
  C9       1.0000 0.50360  0.19855  0.82790  Biso   1.000  C
  C10      1.0000 0.49640  0.69855  0.67210  Biso   1.000  C
  C11      1.0000 0.49640  0.80145  0.17210  Biso   1.000  C
  C12      1.0000 0.50360  0.30145  0.32790  Biso   1.000  C
  H37      1.0000 0.58830  0.21000  0.78810  Biso   1.000  H
  H38      1.0000 0.41170  0.71000  0.71190  Biso   1.000  H
  H39      1.0000 0.41170  0.79000  0.21190  Biso   1.000  H
  H40      1.0000 0.58830  0.29000  0.28810  Biso   1.000  H
  C13      1.0000 0.50850  0.15853  0.94720  Biso   1.000  C
  C14      1.0000 0.49150  0.65853  0.55280  Biso   1.000  C
  C15      1.0000 0.49150  0.84147  0.05280  Biso   1.000  C
  C16      1.0000 0.50850  0.34147  0.44720  Biso   1.000  C
  C17      1.0000 0.37950  0.14321  0.00550  Biso   1.000  C
  C18      1.0000 0.62050  0.64321  0.49450  Biso   1.000  C
  C19      1.0000 0.62050  0.85679  0.99450  Biso   1.000  C
  C20      1.0000 0.37950  0.35679  0.50550  Biso   1.000  C
  H41      1.0000 0.38190  0.11580  0.08410  Biso   1.000  H
  H42      1.0000 0.61810  0.61580  0.41590  Biso   1.000  H
  H43      1.0000 0.61810  0.88420  0.91590  Biso   1.000  H
  H44      1.0000 0.38190  0.38420  0.58410  Biso   1.000  H
  C21      1.0000 0.10150  0.22756  0.77620  Biso   1.000  C
  C22      1.0000 0.89850  0.72756  0.72380  Biso   1.000  C
  C23      1.0000 0.89850  0.77244  0.22380  Biso   1.000  C
  C24      1.0000 0.10150  0.27244  0.27620  Biso   1.000  C
  C25      1.0000 0.21350  0.38984  0.95750  Biso   1.000  C
  C26      1.0000 0.78650  0.88984  0.54250  Biso   1.000  C
  C27      1.0000 0.78650  0.61016  0.04250  Biso   1.000  C
  C28      1.0000 0.21350  0.11016  0.45750  Biso   1.000  C
  C29      1.0000 0.35210  0.41543  0.03940  Biso   1.000  C
  C30      1.0000 0.64790  0.91543  0.46060  Biso   1.000  C
  C31      1.0000 0.64790  0.58457  0.96060  Biso   1.000  C
  C32      1.0000 0.35210  0.08457  0.53940  Biso   1.000  C
  C33      1.0000 0.48230  0.41151  0.96920  Biso   1.000  C
  C34      1.0000 0.51770  0.91151  0.53080  Biso   1.000  C
  C35      1.0000 0.51770  0.58849  0.03080  Biso   1.000  C
  C36      1.0000 0.48230  0.08849  0.46920  Biso   1.000  C
  H45      1.0000 0.48630  0.39270  0.86810  Biso   1.000  H
  H46      1.0000 0.51370  0.89270  0.63190  Biso   1.000  H
  H47      1.0000 0.51370  0.60730  0.13190  Biso   1.000  H
  H48      1.0000 0.48630  0.10730  0.36810  Biso   1.000  H
  C37      1.0000 0.60650  0.43591  0.05120  Biso   1.000  C
  C38      1.0000 0.39350  0.93591  0.44880  Biso   1.000  C
  C39      1.0000 0.39350  0.56409  0.94880  Biso   1.000  C
  C40      1.0000 0.60650  0.06409  0.55120  Biso   1.000  C
  H49      1.0000 0.69420  0.43370  0.00620  Biso   1.000  H
  H50      1.0000 0.30580  0.93370  0.49380  Biso   1.000  H
  H51      1.0000 0.30580  0.56630  0.99380  Biso   1.000  H
  H52      1.0000 0.69420  0.06630  0.50620  Biso   1.000  H
  C41      1.0000 0.59560  0.46345  0.20110  Biso   1.000  C
  C42      1.0000 0.40440  0.96345  0.29890  Biso   1.000  C
  C43      1.0000 0.40440  0.53655  0.79890  Biso   1.000  C
  C44      1.0000 0.59560  0.03655  0.70110  Biso   1.000  C
  C45      1.0000 0.35190  0.44309  0.19180  Biso   1.000  C
  C46      1.0000 0.64810  0.94309  0.30820  Biso   1.000  C
  C47      1.0000 0.64810  0.55691  0.80820  Biso   1.000  C
  C48      1.0000 0.35190  0.05691  0.69180  Biso   1.000  C
  H53      1.0000 0.26610  0.44530  0.24100  Biso   1.000  H
  H54      1.0000 0.73390  0.94530  0.25900  Biso   1.000  H
  H55      1.0000 0.73390  0.55470  0.75900  Biso   1.000  H
  H56      1.0000 0.26610  0.05470  0.74100  Biso   1.000  H
  C49      1.0000 0.72200  0.49285  0.30070  Biso   1.000  C
  C50      1.0000 0.27800  0.99285  0.19930  Biso   1.000  C
  C51      1.0000 0.27800  0.50715  0.69930  Biso   1.000  C
  C52      1.0000 0.72200  0.00715  0.80070  Biso   1.000  C
  C53      1.0000 0.64890  0.13144  0.01530  Biso   1.000  C
  C54      1.0000 0.35110  0.63144  0.48470  Biso   1.000  C
  C55      1.0000 0.35110  0.86856  0.98470  Biso   1.000  C
  C56      1.0000 0.64890  0.36856  0.51530  Biso   1.000  C
  N1       1.0000 0.25230  0.16613  0.95340  Biso   1.000  N
  N2       1.0000 0.74770  0.66613  0.54660  Biso   1.000  N
  N3       1.0000 0.74770  0.83387  0.04660  Biso   1.000  N
  N4       1.0000 0.25230  0.33387  0.45340  Biso   1.000  N
  N5       1.0000 0.47020  0.46674  0.27080  Biso   1.000  N
  N6       1.0000 0.52980  0.96674  0.22920  Biso   1.000  N
  N7       1.0000 0.52980  0.53326  0.72920  Biso   1.000  N
  N8       1.0000 0.47020  0.03326  0.77080  Biso   1.000  N
  O1       1.0000 0.99400  0.20624  0.83160  Biso   1.000  O
  O2       1.0000 0.00600  0.70624  0.66840  Biso   1.000  O
  O3       1.0000 0.00600  0.79376  0.16840  Biso   1.000  O
  O4       1.0000 0.99400  0.29376  0.33160  Biso   1.000  O
  O5       1.0000 0.76320  0.15609  0.99400  Biso   1.000  O
  O6       1.0000 0.23680  0.65609  0.50600  Biso   1.000  O
  O7       1.0000 0.23680  0.84391  0.00600  Biso   1.000  O
  O8       1.0000 0.76320  0.34391  0.49400  Biso   1.000  O
  O9       1.0000 0.75710  0.27241  0.06350  Biso   1.000  O
  O10      1.0000 0.24290  0.77241  0.43650  Biso   1.000  O
  O11      1.0000 0.24290  0.72759  0.93650  Biso   1.000  O
  O12      1.0000 0.75710  0.22759  0.56350  Biso   1.000  O
  O13      1.0000 0.64170  0.08856  0.08990  Biso   1.000  O
  O14      1.0000 0.35830  0.58856  0.41010  Biso   1.000  O
  O15      1.0000 0.35830  0.91144  0.91010  Biso   1.000  O
  O16      1.0000 0.64170  0.41144  0.58990  Biso   1.000  O
  O17      1.0000 0.20710  0.37703  0.80170  Biso   1.000  O
  O18      1.0000 0.79290  0.87703  0.69830  Biso   1.000  O
  O19      1.0000 0.79290  0.62297  0.19830  Biso   1.000  O
  O20      1.0000 0.20710  0.12297  0.30170  Biso   1.000  O
  O21      1.0000 0.88390  0.61710  0.94960  Biso   1.000  O
  O22      1.0000 0.11610  0.11710  0.55040  Biso   1.000  O
  O23      1.0000 0.11610  0.38290  0.05040  Biso   1.000  O
  O24      1.0000 0.88390  0.88290  0.44960  Biso   1.000  O
  O25      1.0000 0.69150  0.51644  0.43490  Biso   1.000  O
  O26      1.0000 0.30850  0.01644  0.06510  Biso   1.000  O
  O27      1.0000 0.30850  0.48356  0.56510  Biso   1.000  O
  O28      1.0000 0.69150  0.98356  0.93490  Biso   1.000  O
  O29      1.0000 0.16020  0.50814  0.75080  Biso   1.000  O
  O30      1.0000 0.83980  0.00814  0.74920  Biso   1.000  O
  O31      1.0000 0.83980  0.49186  0.24920  Biso   1.000  O
  O32      1.0000 0.16020  0.99186  0.25080  Biso   1.000  O
  O33      1.0000 0.09500  0.26529  0.67630  Biso   1.000  O
  O34      1.0000 0.90500  0.76529  0.82370  Biso   1.000  O
  O35      1.0000 0.90500  0.73471  0.32370  Biso   1.000  O
  O36      1.0000 0.09500  0.23471  0.17630  Biso   1.000  O
  O37      1.0000 0.09910  0.66454  0.15070  Biso   1.000  O
  O38      1.0000 0.90090  0.16454  0.34930  Biso   1.000  O
  O39      1.0000 0.90090  0.33546  0.84930  Biso   1.000  O
  O40      1.0000 0.09910  0.83546  0.65070  Biso   1.000  O
  O41      1.0000 0.06340  0.56494  0.32440  Biso   1.000  O
  O42      1.0000 0.93660  0.06494  0.17560  Biso   1.000  O
  O43      1.0000 0.93660  0.43506  0.67560  Biso   1.000  O
  O44      1.0000 0.06340  0.93506  0.82440  Biso   1.000  O
  O45      1.0000 0.97800  0.59066  0.65050  Biso   1.000  O
  O46      1.0000 0.02200  0.09066  0.84950  Biso   1.000  O
  O47      1.0000 0.02200  0.40934  0.34950  Biso   1.000  O
  O48      1.0000 0.97800  0.90934  0.15050  Biso   1.000  O
