data_image0
_cell_length_a       11.4025
_cell_length_b       11.0978
_cell_length_c       20.1842
_cell_angle_alpha    90
_cell_angle_beta     90
_cell_angle_gamma    90

_symmetry_space_group_name_H-M    "P 1"
_symmetry_int_tables_number       1

loop_
  _symmetry_equiv_pos_as_xyz
  'x, y, z'

loop_
  _atom_site_label
  _atom_site_occupancy
  _atom_site_fract_x
  _atom_site_fract_y
  _atom_site_fract_z
  _atom_site_thermal_displace_type
  _atom_site_B_iso_or_equiv
  _atom_site_type_symbol
  Cu1      1.0000 0.50000  0.13433  0.75000  Biso   1.000  Cu
  Cu2      1.0000 0.00000  0.36567  0.25000  Biso   1.000  Cu
  Cu3      1.0000 0.50000  0.86567  0.25000  Biso   1.000  Cu
  Cu4      1.0000 0.00000  0.63433  0.75000  Biso   1.000  Cu
  O1       1.0000 0.68731  0.12399  0.65332  Biso   1.000  O
  O2       1.0000 0.81269  0.37601  0.15332  Biso   1.000  O
  O3       1.0000 0.18731  0.37601  0.34668  Biso   1.000  O
  O4       1.0000 0.31269  0.12399  0.84668  Biso   1.000  O
  O5       1.0000 0.31269  0.87601  0.34668  Biso   1.000  O
  O6       1.0000 0.18731  0.62399  0.84668  Biso   1.000  O
  O7       1.0000 0.81269  0.62399  0.65332  Biso   1.000  O
  O8       1.0000 0.68731  0.87601  0.15332  Biso   1.000  O
  N1       1.0000 0.57578  0.13632  0.65926  Biso   1.000  N
  N2       1.0000 0.92422  0.36368  0.15926  Biso   1.000  N
  N3       1.0000 0.07578  0.36368  0.34074  Biso   1.000  N
  N4       1.0000 0.42422  0.13632  0.84074  Biso   1.000  N
  N5       1.0000 0.42422  0.86368  0.34074  Biso   1.000  N
  N6       1.0000 0.07578  0.63632  0.84074  Biso   1.000  N
  N7       1.0000 0.92422  0.63632  0.65926  Biso   1.000  N
  N8       1.0000 0.57578  0.86368  0.15926  Biso   1.000  N
  C1       1.0000 0.50895  0.14957  0.60642  Biso   1.000  C
  C2       1.0000 0.99105  0.35043  0.10642  Biso   1.000  C
  C3       1.0000 0.00895  0.35043  0.39358  Biso   1.000  C
  C4       1.0000 0.49105  0.14957  0.89358  Biso   1.000  C
  C5       1.0000 0.49105  0.85043  0.39358  Biso   1.000  C
  C6       1.0000 0.00895  0.64957  0.89358  Biso   1.000  C
  C7       1.0000 0.99105  0.64957  0.60642  Biso   1.000  C
  C8       1.0000 0.50895  0.85043  0.10642  Biso   1.000  C
  H1       1.0000 0.34000  0.20900  0.53090  Biso   1.000  H
  H2       1.0000 0.16000  0.29100  0.03090  Biso   1.000  H
  H3       1.0000 0.84000  0.29100  0.46910  Biso   1.000  H
  H4       1.0000 0.66000  0.20900  0.96910  Biso   1.000  H
  H5       1.0000 0.66000  0.79100  0.46910  Biso   1.000  H
  H6       1.0000 0.84000  0.70900  0.96910  Biso   1.000  H
  H7       1.0000 0.16000  0.70900  0.53090  Biso   1.000  H
  H8       1.0000 0.34000  0.79100  0.03090  Biso   1.000  H
  H9       1.0000 0.80500  0.18900  0.58520  Biso   1.000  H
  H10      1.0000 0.69500  0.31100  0.08520  Biso   1.000  H
  H11      1.0000 0.30500  0.31100  0.41480  Biso   1.000  H
  H12      1.0000 0.19500  0.18900  0.91480  Biso   1.000  H
  H13      1.0000 0.19500  0.81100  0.41480  Biso   1.000  H
  H14      1.0000 0.30500  0.68900  0.91480  Biso   1.000  H
  H15      1.0000 0.69500  0.68900  0.58520  Biso   1.000  H
  H16      1.0000 0.80500  0.81100  0.08520  Biso   1.000  H
  O9       1.0000 0.34232  0.14357  0.67533  Biso   1.000  O
  O10      1.0000 0.15768  0.35643  0.17533  Biso   1.000  O
  O11      1.0000 0.84232  0.35643  0.32467  Biso   1.000  O
  O12      1.0000 0.65768  0.14357  0.82467  Biso   1.000  O
  O13      1.0000 0.65768  0.85643  0.32467  Biso   1.000  O
  O14      1.0000 0.84232  0.64357  0.82467  Biso   1.000  O
  O15      1.0000 0.15768  0.64357  0.67533  Biso   1.000  O
  O16      1.0000 0.34232  0.85643  0.17533  Biso   1.000  O
  N9       1.0000 0.60110  0.13971  0.48994  Biso   1.000  N
  N10      1.0000 0.89890  0.36029  0.98994  Biso   1.000  N
  N11      1.0000 0.10110  0.36029  0.51006  Biso   1.000  N
  N12      1.0000 0.39890  0.13971  0.01006  Biso   1.000  N
  N13      1.0000 0.39890  0.86029  0.51006  Biso   1.000  N
  N14      1.0000 0.10110  0.63971  0.01006  Biso   1.000  N
  N15      1.0000 0.89890  0.63971  0.48994  Biso   1.000  N
  N16      1.0000 0.60110  0.86029  0.98994  Biso   1.000  N
  C9       1.0000 0.55963  0.14602  0.54146  Biso   1.000  C
  C10      1.0000 0.94037  0.35398  0.04146  Biso   1.000  C
  C11      1.0000 0.05963  0.35398  0.45854  Biso   1.000  C
  C12      1.0000 0.44037  0.14602  0.95854  Biso   1.000  C
  C13      1.0000 0.44037  0.85398  0.45854  Biso   1.000  C
  C14      1.0000 0.05963  0.64602  0.95854  Biso   1.000  C
  C15      1.0000 0.94037  0.64602  0.54146  Biso   1.000  C
  C16      1.0000 0.55963  0.85398  0.04146  Biso   1.000  C
  H17      1.0000 0.24000  0.19060  0.57280  Biso   1.000  H
  H18      1.0000 0.26000  0.30940  0.07280  Biso   1.000  H
  H19      1.0000 0.74000  0.30940  0.42720  Biso   1.000  H
  H20      1.0000 0.76000  0.19060  0.92720  Biso   1.000  H
  H21      1.0000 0.76000  0.80940  0.42720  Biso   1.000  H
  H22      1.0000 0.74000  0.69060  0.92720  Biso   1.000  H
  H23      1.0000 0.26000  0.69060  0.57280  Biso   1.000  H
  H24      1.0000 0.24000  0.80940  0.07280  Biso   1.000  H
  H25      1.0000 0.01000  0.13800  0.57890  Biso   1.000  H
  H26      1.0000 0.49000  0.36200  0.07890  Biso   1.000  H
  H27      1.0000 0.51000  0.36200  0.42110  Biso   1.000  H
  H28      1.0000 0.99000  0.13800  0.92110  Biso   1.000  H
  H29      1.0000 0.99000  0.86200  0.42110  Biso   1.000  H
  H30      1.0000 0.51000  0.63800  0.92110  Biso   1.000  H
  H31      1.0000 0.49000  0.63800  0.57890  Biso   1.000  H
  H32      1.0000 0.01000  0.86200  0.07890  Biso   1.000  H
  O17      1.0000 0.85553  0.22721  0.57079  Biso   1.000  O
  O18      1.0000 0.64447  0.27279  0.07079  Biso   1.000  O
  O19      1.0000 0.35553  0.27279  0.42921  Biso   1.000  O
  O20      1.0000 0.14447  0.22721  0.92921  Biso   1.000  O
  O21      1.0000 0.14447  0.77279  0.42921  Biso   1.000  O
  O22      1.0000 0.35553  0.72721  0.92921  Biso   1.000  O
  O23      1.0000 0.64447  0.72721  0.57079  Biso   1.000  O
  O24      1.0000 0.85553  0.77279  0.07079  Biso   1.000  O
  N17      1.0000 0.31322  0.18951  0.56744  Biso   1.000  N
  N18      1.0000 0.18678  0.31049  0.06744  Biso   1.000  N
  N19      1.0000 0.81322  0.31049  0.43256  Biso   1.000  N
  N20      1.0000 0.68678  0.18951  0.93256  Biso   1.000  N
  N21      1.0000 0.68678  0.81049  0.43256  Biso   1.000  N
  N22      1.0000 0.81322  0.68951  0.93256  Biso   1.000  N
  N23      1.0000 0.18678  0.68951  0.56744  Biso   1.000  N
  N24      1.0000 0.31322  0.81049  0.06744  Biso   1.000  N
  C17      1.0000 0.38089  0.16111  0.61844  Biso   1.000  C
  C18      1.0000 0.11911  0.33889  0.11844  Biso   1.000  C
  C19      1.0000 0.88089  0.33889  0.38156  Biso   1.000  C
  C20      1.0000 0.61911  0.16111  0.88156  Biso   1.000  C
  C21      1.0000 0.61911  0.83889  0.38156  Biso   1.000  C
  C22      1.0000 0.88089  0.66111  0.88156  Biso   1.000  C
  C23      1.0000 0.11911  0.66111  0.61844  Biso   1.000  C
  C24      1.0000 0.38089  0.83889  0.11844  Biso   1.000  C
  O25      1.0000 0.07598  0.11014  0.58602  Biso   1.000  O
  O26      1.0000 0.42402  0.38986  0.08602  Biso   1.000  O
  O27      1.0000 0.57598  0.38986  0.41398  Biso   1.000  O
  O28      1.0000 0.92402  0.11014  0.91398  Biso   1.000  O
  O29      1.0000 0.92402  0.88986  0.41398  Biso   1.000  O
  O30      1.0000 0.57598  0.61014  0.91398  Biso   1.000  O
  O31      1.0000 0.42402  0.61014  0.58602  Biso   1.000  O
  O32      1.0000 0.07598  0.88986  0.08602  Biso   1.000  O
  N25      1.0000 0.50000  0.31665  0.75000  Biso   1.000  N
  N26      1.0000 0.00000  0.18335  0.25000  Biso   1.000  N
  N27      1.0000 0.50000  0.68335  0.25000  Biso   1.000  N
  N28      1.0000 0.00000  0.81665  0.75000  Biso   1.000  N
  C25      1.0000 0.40045  0.37862  0.76058  Biso   1.000  C
  C26      1.0000 0.09955  0.12138  0.26058  Biso   1.000  C
  C27      1.0000 0.90045  0.12138  0.23942  Biso   1.000  C
  C28      1.0000 0.59955  0.37862  0.73942  Biso   1.000  C
  C29      1.0000 0.59955  0.62138  0.23942  Biso   1.000  C
  C30      1.0000 0.90045  0.87862  0.73942  Biso   1.000  C
  C31      1.0000 0.09955  0.87862  0.76058  Biso   1.000  C
  C32      1.0000 0.40045  0.62138  0.26058  Biso   1.000  C
  H33      1.0000 0.33000  0.33520  0.76830  Biso   1.000  H
  H34      1.0000 0.17000  0.16480  0.26830  Biso   1.000  H
  H35      1.0000 0.83000  0.16480  0.23170  Biso   1.000  H
  H36      1.0000 0.67000  0.33520  0.73170  Biso   1.000  H
  H37      1.0000 0.67000  0.66480  0.23170  Biso   1.000  H
  H38      1.0000 0.83000  0.83520  0.73170  Biso   1.000  H
  H39      1.0000 0.17000  0.83520  0.76830  Biso   1.000  H
  H40      1.0000 0.33000  0.66480  0.26830  Biso   1.000  H
  N29      1.0000 0.50000  0.95222  0.75000  Biso   1.000  N
  N30      1.0000 0.00000  0.54778  0.25000  Biso   1.000  N
  N31      1.0000 0.50000  0.04778  0.25000  Biso   1.000  N
  N32      1.0000 0.00000  0.45222  0.75000  Biso   1.000  N
  C33      1.0000 0.39657  0.50348  0.76065  Biso   1.000  C
  C34      1.0000 0.10343  0.99652  0.26065  Biso   1.000  C
  C35      1.0000 0.89657  0.99652  0.23935  Biso   1.000  C
  C36      1.0000 0.60343  0.50348  0.73935  Biso   1.000  C
  C37      1.0000 0.60343  0.49652  0.23935  Biso   1.000  C
  C38      1.0000 0.89657  0.00348  0.73935  Biso   1.000  C
  C39      1.0000 0.10343  0.00348  0.76065  Biso   1.000  C
  C40      1.0000 0.39657  0.49652  0.26065  Biso   1.000  C
  H41      1.0000 0.32470  0.54470  0.76780  Biso   1.000  H
  H42      1.0000 0.17530  0.95530  0.26780  Biso   1.000  H
  H43      1.0000 0.82470  0.95530  0.23220  Biso   1.000  H
  H44      1.0000 0.67530  0.54470  0.73220  Biso   1.000  H
  H45      1.0000 0.67530  0.45530  0.23220  Biso   1.000  H
  H46      1.0000 0.82470  0.04470  0.73220  Biso   1.000  H
  H47      1.0000 0.17530  0.04470  0.76780  Biso   1.000  H
  H48      1.0000 0.32470  0.45530  0.26780  Biso   1.000  H
  C41      1.0000 0.50000  0.56744  0.75000  Biso   1.000  C
  C42      1.0000 0.00000  0.93256  0.25000  Biso   1.000  C
  C43      1.0000 0.50000  0.43256  0.25000  Biso   1.000  C
  C44      1.0000 0.00000  0.06744  0.75000  Biso   1.000  C
  C45      1.0000 0.50000  0.70119  0.75000  Biso   1.000  C
  C46      1.0000 0.00000  0.79881  0.25000  Biso   1.000  C
  C47      1.0000 0.50000  0.29881  0.25000  Biso   1.000  C
  C48      1.0000 0.00000  0.20119  0.75000  Biso   1.000  C
  C49      1.0000 0.40884  0.76550  0.72073  Biso   1.000  C
  C50      1.0000 0.09116  0.73450  0.22073  Biso   1.000  C
  C51      1.0000 0.90884  0.73450  0.27927  Biso   1.000  C
  C52      1.0000 0.59116  0.76550  0.77927  Biso   1.000  C
  C53      1.0000 0.59116  0.23450  0.27927  Biso   1.000  C
  C54      1.0000 0.90884  0.26550  0.77927  Biso   1.000  C
  C55      1.0000 0.09116  0.26550  0.72073  Biso   1.000  C
  C56      1.0000 0.40884  0.23450  0.22073  Biso   1.000  C
  H49      1.0000 0.34480  0.72440  0.70080  Biso   1.000  H
  H50      1.0000 0.15520  0.77560  0.20080  Biso   1.000  H
  H51      1.0000 0.84480  0.77560  0.29920  Biso   1.000  H
  H52      1.0000 0.65520  0.72440  0.79920  Biso   1.000  H
  H53      1.0000 0.65520  0.27560  0.29920  Biso   1.000  H
  H54      1.0000 0.84480  0.22440  0.79920  Biso   1.000  H
  H55      1.0000 0.15520  0.22440  0.70080  Biso   1.000  H
  H56      1.0000 0.34480  0.27560  0.20080  Biso   1.000  H
  C57      1.0000 0.41279  0.89025  0.72110  Biso   1.000  C
  C58      1.0000 0.08721  0.60975  0.22110  Biso   1.000  C
  C59      1.0000 0.91279  0.60975  0.27890  Biso   1.000  C
  C60      1.0000 0.58721  0.89025  0.77890  Biso   1.000  C
  C61      1.0000 0.58721  0.10975  0.27890  Biso   1.000  C
  C62      1.0000 0.91279  0.39025  0.77890  Biso   1.000  C
  C63      1.0000 0.08721  0.39025  0.72110  Biso   1.000  C
  C64      1.0000 0.41279  0.10975  0.22110  Biso   1.000  C
  H57      1.0000 0.35140  0.93370  0.70010  Biso   1.000  H
  H58      1.0000 0.14860  0.56630  0.20010  Biso   1.000  H
  H59      1.0000 0.85140  0.56630  0.29990  Biso   1.000  H
  H60      1.0000 0.64860  0.93370  0.79990  Biso   1.000  H
  H61      1.0000 0.64860  0.06630  0.29990  Biso   1.000  H
  H62      1.0000 0.85140  0.43370  0.79990  Biso   1.000  H
  H63      1.0000 0.14860  0.43370  0.70010  Biso   1.000  H
  H64      1.0000 0.35140  0.06630  0.20010  Biso   1.000  H
  C65      1.0000 0.84472  0.34365  0.60050  Biso   1.000  C
  C66      1.0000 0.65528  0.15635  0.10050  Biso   1.000  C
  C67      1.0000 0.34472  0.15635  0.39950  Biso   1.000  C
  C68      1.0000 0.15528  0.34365  0.89950  Biso   1.000  C
  C69      1.0000 0.15528  0.65635  0.39950  Biso   1.000  C
  C70      1.0000 0.34472  0.84365  0.89950  Biso   1.000  C
  C71      1.0000 0.65528  0.84365  0.60050  Biso   1.000  C
  C72      1.0000 0.84472  0.65635  0.10050  Biso   1.000  C
  H65      1.0000 0.83810  0.33490  0.64870  Biso   1.000  H
  H66      1.0000 0.66190  0.16510  0.14870  Biso   1.000  H
  H67      1.0000 0.33810  0.16510  0.35130  Biso   1.000  H
  H68      1.0000 0.16190  0.33490  0.85130  Biso   1.000  H
  H69      1.0000 0.16190  0.66510  0.35130  Biso   1.000  H
  H70      1.0000 0.33810  0.83490  0.85130  Biso   1.000  H
  H71      1.0000 0.66190  0.83490  0.64870  Biso   1.000  H
  H72      1.0000 0.83810  0.66510  0.14870  Biso   1.000  H
  H73      1.0000 0.77450  0.38390  0.58330  Biso   1.000  H
  H74      1.0000 0.72550  0.11610  0.08330  Biso   1.000  H
  H75      1.0000 0.27450  0.11610  0.41670  Biso   1.000  H
  H76      1.0000 0.22550  0.38390  0.91670  Biso   1.000  H
  H77      1.0000 0.22550  0.61610  0.41670  Biso   1.000  H
  H78      1.0000 0.27450  0.88390  0.91670  Biso   1.000  H
  H79      1.0000 0.72550  0.88390  0.58330  Biso   1.000  H
  H80      1.0000 0.77450  0.61610  0.08330  Biso   1.000  H
  H81      1.0000 0.91420  0.39200  0.58990  Biso   1.000  H
  H82      1.0000 0.58580  0.10800  0.08990  Biso   1.000  H
  H83      1.0000 0.41420  0.10800  0.41010  Biso   1.000  H
  H84      1.0000 0.08580  0.39200  0.91010  Biso   1.000  H
  H85      1.0000 0.08580  0.60800  0.41010  Biso   1.000  H
  H86      1.0000 0.41420  0.89200  0.91010  Biso   1.000  H
  H87      1.0000 0.58580  0.89200  0.58990  Biso   1.000  H
  H88      1.0000 0.91420  0.60800  0.08990  Biso   1.000  H
  C73      1.0000 0.07570  0.98386  0.58034  Biso   1.000  C
  C74      1.0000 0.42430  0.51614  0.08034  Biso   1.000  C
  C75      1.0000 0.57570  0.51614  0.41966  Biso   1.000  C
  C76      1.0000 0.92430  0.98386  0.91966  Biso   1.000  C
  C77      1.0000 0.92430  0.01614  0.41966  Biso   1.000  C
  C78      1.0000 0.57570  0.48386  0.91966  Biso   1.000  C
  C79      1.0000 0.42430  0.48386  0.58034  Biso   1.000  C
  C80      1.0000 0.07570  0.01614  0.08034  Biso   1.000  C
  H89      1.0000 0.14640  0.95110  0.60130  Biso   1.000  H
  H90      1.0000 0.35360  0.54890  0.10130  Biso   1.000  H
  H91      1.0000 0.64640  0.54890  0.39870  Biso   1.000  H
  H92      1.0000 0.85360  0.95110  0.89870  Biso   1.000  H
  H93      1.0000 0.85360  0.04890  0.39870  Biso   1.000  H
  H94      1.0000 0.64640  0.45110  0.89870  Biso   1.000  H
  H95      1.0000 0.35360  0.45110  0.60130  Biso   1.000  H
  H96      1.0000 0.14640  0.04890  0.10130  Biso   1.000  H
  H97      1.0000 0.07470  0.96130  0.53340  Biso   1.000  H
  H98      1.0000 0.42530  0.53870  0.03340  Biso   1.000  H
  H99      1.0000 0.57470  0.53870  0.46660  Biso   1.000  H
  H100     1.0000 0.92530  0.96130  0.96660  Biso   1.000  H
  H101     1.0000 0.92530  0.03870  0.46660  Biso   1.000  H
  H102     1.0000 0.57470  0.46130  0.96660  Biso   1.000  H
  H103     1.0000 0.42530  0.46130  0.53340  Biso   1.000  H
  H104     1.0000 0.07470  0.03870  0.03340  Biso   1.000  H
  H105     1.0000 0.00600  0.95120  0.60230  Biso   1.000  H
  H106     1.0000 0.49400  0.54880  0.10230  Biso   1.000  H
  H107     1.0000 0.50600  0.54880  0.39770  Biso   1.000  H
  H108     1.0000 0.99400  0.95120  0.89770  Biso   1.000  H
  H109     1.0000 0.99400  0.04880  0.39770  Biso   1.000  H
  H110     1.0000 0.50600  0.45120  0.89770  Biso   1.000  H
  H111     1.0000 0.49400  0.45120  0.60230  Biso   1.000  H
  H112     1.0000 0.00600  0.04880  0.10230  Biso   1.000  H
