data_image0
_cell_length_a       16.892
_cell_length_b       15.722
_cell_length_c       5.8595
_cell_angle_alpha    90
_cell_angle_beta     106.112
_cell_angle_gamma    90

_symmetry_space_group_name_H-M    "P 1"
_symmetry_int_tables_number       1

loop_
  _symmetry_equiv_pos_as_xyz
  'x, y, z'

loop_
  _atom_site_label
  _atom_site_occupancy
  _atom_site_fract_x
  _atom_site_fract_y
  _atom_site_fract_z
  _atom_site_thermal_displace_type
  _atom_site_B_iso_or_equiv
  _atom_site_type_symbol
  Cu1      1.0000 0.13453  0.12560  0.14849  Biso   1.000  Cu
  Cu2      1.0000 0.86547  0.12560  0.35151  Biso   1.000  Cu
  Cu3      1.0000 0.63453  0.62560  0.14849  Biso   1.000  Cu
  Cu4      1.0000 0.36547  0.62560  0.35151  Biso   1.000  Cu
  Cu5      1.0000 0.86547  0.87440  0.85151  Biso   1.000  Cu
  Cu6      1.0000 0.13453  0.87440  0.64849  Biso   1.000  Cu
  Cu7      1.0000 0.36547  0.37440  0.85151  Biso   1.000  Cu
  Cu8      1.0000 0.63453  0.37440  0.64849  Biso   1.000  Cu
  Cu9      1.0000 0.00000  0.99122  0.25000  Biso   1.000  Cu
  Cu10     1.0000 0.50000  0.49122  0.25000  Biso   1.000  Cu
  Cu11     1.0000 0.00000  0.00878  0.75000  Biso   1.000  Cu
  Cu12     1.0000 0.50000  0.50878  0.75000  Biso   1.000  Cu
  O1       1.0000 0.07976  0.01275  0.06680  Biso   1.000  O
  O2       1.0000 0.92024  0.01275  0.43320  Biso   1.000  O
  O3       1.0000 0.57976  0.51275  0.06680  Biso   1.000  O
  O4       1.0000 0.42024  0.51275  0.43320  Biso   1.000  O
  O5       1.0000 0.92024  0.98725  0.93320  Biso   1.000  O
  O6       1.0000 0.07976  0.98725  0.56680  Biso   1.000  O
  O7       1.0000 0.42024  0.48725  0.93320  Biso   1.000  O
  O8       1.0000 0.57976  0.48725  0.56680  Biso   1.000  O
  H1       1.0000 0.11680  0.97830  0.07250  Biso   1.000  H
  H2       1.0000 0.88320  0.97830  0.42750  Biso   1.000  H
  H3       1.0000 0.61680  0.47830  0.07250  Biso   1.000  H
  H4       1.0000 0.38320  0.47830  0.42750  Biso   1.000  H
  H5       1.0000 0.88320  0.02170  0.92750  Biso   1.000  H
  H6       1.0000 0.11680  0.02170  0.57250  Biso   1.000  H
  H7       1.0000 0.38320  0.52170  0.92750  Biso   1.000  H
  H8       1.0000 0.61680  0.52170  0.57250  Biso   1.000  H
  O9       1.0000 0.00000  0.15642  0.25000  Biso   1.000  O
  O10      1.0000 0.50000  0.65642  0.25000  Biso   1.000  O
  O11      1.0000 0.00000  0.84358  0.75000  Biso   1.000  O
  O12      1.0000 0.50000  0.34358  0.75000  Biso   1.000  O
  H9       1.0000 0.97990  0.19000  0.14040  Biso   1.000  H
  H10      1.0000 0.02010  0.19000  0.35960  Biso   1.000  H
  H11      1.0000 0.47990  0.69000  0.14040  Biso   1.000  H
  H12      1.0000 0.52010  0.69000  0.35960  Biso   1.000  H
  H13      1.0000 0.02010  0.81000  0.85960  Biso   1.000  H
  H14      1.0000 0.97990  0.81000  0.64040  Biso   1.000  H
  H15      1.0000 0.52010  0.31000  0.85960  Biso   1.000  H
  H16      1.0000 0.47990  0.31000  0.64040  Biso   1.000  H
  O13      1.0000 0.09019  0.15689  0.82290  Biso   1.000  O
  O14      1.0000 0.90981  0.15689  0.67710  Biso   1.000  O
  O15      1.0000 0.59019  0.65689  0.82290  Biso   1.000  O
  O16      1.0000 0.40981  0.65689  0.67710  Biso   1.000  O
  O17      1.0000 0.90981  0.84311  0.17710  Biso   1.000  O
  O18      1.0000 0.09019  0.84311  0.32290  Biso   1.000  O
  O19      1.0000 0.40981  0.34311  0.17710  Biso   1.000  O
  O20      1.0000 0.59019  0.34311  0.32290  Biso   1.000  O
  O21      1.0000 0.06895  0.27203  0.59390  Biso   1.000  O
  O22      1.0000 0.93105  0.27203  0.90610  Biso   1.000  O
  O23      1.0000 0.56895  0.77203  0.59390  Biso   1.000  O
  O24      1.0000 0.43105  0.77203  0.90610  Biso   1.000  O
  O25      1.0000 0.93105  0.72797  0.40610  Biso   1.000  O
  O26      1.0000 0.06895  0.72797  0.09390  Biso   1.000  O
  O27      1.0000 0.43105  0.22797  0.40610  Biso   1.000  O
  O28      1.0000 0.56895  0.22797  0.09390  Biso   1.000  O
  O29      1.0000 0.30685  0.40935  0.54700  Biso   1.000  O
  O30      1.0000 0.69315  0.40935  0.95300  Biso   1.000  O
  O31      1.0000 0.80685  0.90935  0.54700  Biso   1.000  O
  O32      1.0000 0.19315  0.90935  0.95300  Biso   1.000  O
  O33      1.0000 0.69315  0.59065  0.45300  Biso   1.000  O
  O34      1.0000 0.30685  0.59065  0.04700  Biso   1.000  O
  O35      1.0000 0.19315  0.09065  0.45300  Biso   1.000  O
  O36      1.0000 0.80685  0.09065  0.04700  Biso   1.000  O
  N1       1.0000 0.18121  0.24148  0.19640  Biso   1.000  N
  N2       1.0000 0.81879  0.24148  0.30360  Biso   1.000  N
  N3       1.0000 0.68121  0.74148  0.19640  Biso   1.000  N
  N4       1.0000 0.31879  0.74148  0.30360  Biso   1.000  N
  N5       1.0000 0.81879  0.75852  0.80360  Biso   1.000  N
  N6       1.0000 0.18121  0.75852  0.69640  Biso   1.000  N
  N7       1.0000 0.31879  0.25852  0.80360  Biso   1.000  N
  N8       1.0000 0.68121  0.25852  0.69640  Biso   1.000  N
  C1       1.0000 0.09780  0.23620  0.78660  Biso   1.000  C
  C2       1.0000 0.90220  0.23620  0.71340  Biso   1.000  C
  C3       1.0000 0.59780  0.73620  0.78660  Biso   1.000  C
  C4       1.0000 0.40220  0.73620  0.71340  Biso   1.000  C
  C5       1.0000 0.90220  0.76380  0.21340  Biso   1.000  C
  C6       1.0000 0.09780  0.76380  0.28660  Biso   1.000  C
  C7       1.0000 0.40220  0.26380  0.21340  Biso   1.000  C
  C8       1.0000 0.59780  0.26380  0.28660  Biso   1.000  C
  C9       1.0000 0.14890  0.28610  0.99530  Biso   1.000  C
  C10      1.0000 0.85110  0.28610  0.50470  Biso   1.000  C
  C11      1.0000 0.64890  0.78610  0.99530  Biso   1.000  C
  C12      1.0000 0.35110  0.78610  0.50470  Biso   1.000  C
  C13      1.0000 0.85110  0.71390  0.00470  Biso   1.000  C
  C14      1.0000 0.14890  0.71390  0.49530  Biso   1.000  C
  C15      1.0000 0.35110  0.21390  0.00470  Biso   1.000  C
  C16      1.0000 0.64890  0.21390  0.49530  Biso   1.000  C
  C17      1.0000 0.16370  0.37200  0.97930  Biso   1.000  C
  C18      1.0000 0.83630  0.37200  0.52070  Biso   1.000  C
  C19      1.0000 0.66370  0.87200  0.97930  Biso   1.000  C
  C20      1.0000 0.33630  0.87200  0.52070  Biso   1.000  C
  C21      1.0000 0.83630  0.62800  0.02070  Biso   1.000  C
  C22      1.0000 0.16370  0.62800  0.47930  Biso   1.000  C
  C23      1.0000 0.33630  0.12800  0.02070  Biso   1.000  C
  C24      1.0000 0.66370  0.12800  0.47930  Biso   1.000  C
  H17      1.0000 0.13910  0.40240  0.84180  Biso   1.000  H
  H18      1.0000 0.86090  0.40240  0.65820  Biso   1.000  H
  H19      1.0000 0.63910  0.90240  0.84180  Biso   1.000  H
  H20      1.0000 0.36090  0.90240  0.65820  Biso   1.000  H
  H21      1.0000 0.86090  0.59760  0.15820  Biso   1.000  H
  H22      1.0000 0.13910  0.59760  0.34180  Biso   1.000  H
  H23      1.0000 0.36090  0.09760  0.15820  Biso   1.000  H
  H24      1.0000 0.63910  0.09760  0.34180  Biso   1.000  H
  C25      1.0000 0.21560  0.41080  0.17260  Biso   1.000  C
  C26      1.0000 0.78440  0.41080  0.32740  Biso   1.000  C
  C27      1.0000 0.71560  0.91080  0.17260  Biso   1.000  C
  C28      1.0000 0.28440  0.91080  0.32740  Biso   1.000  C
  C29      1.0000 0.78440  0.58920  0.82740  Biso   1.000  C
  C30      1.0000 0.21560  0.58920  0.67260  Biso   1.000  C
  C31      1.0000 0.28440  0.08920  0.82740  Biso   1.000  C
  C32      1.0000 0.71560  0.08920  0.67260  Biso   1.000  C
  H25      1.0000 0.22610  0.46870  0.16600  Biso   1.000  H
  H26      1.0000 0.77390  0.46870  0.33400  Biso   1.000  H
  H27      1.0000 0.72610  0.96870  0.16600  Biso   1.000  H
  H28      1.0000 0.27390  0.96870  0.33400  Biso   1.000  H
  H29      1.0000 0.77390  0.53130  0.83400  Biso   1.000  H
  H30      1.0000 0.22610  0.53130  0.66600  Biso   1.000  H
  H31      1.0000 0.27390  0.03130  0.83400  Biso   1.000  H
  H32      1.0000 0.72610  0.03130  0.66600  Biso   1.000  H
  C33      1.0000 0.25360  0.36540  0.38030  Biso   1.000  C
  C34      1.0000 0.74640  0.36540  0.11970  Biso   1.000  C
  C35      1.0000 0.75360  0.86540  0.38030  Biso   1.000  C
  C36      1.0000 0.24640  0.86540  0.11970  Biso   1.000  C
  C37      1.0000 0.74640  0.63460  0.61970  Biso   1.000  C
  C38      1.0000 0.25360  0.63460  0.88030  Biso   1.000  C
  C39      1.0000 0.24640  0.13460  0.61970  Biso   1.000  C
  C40      1.0000 0.75360  0.13460  0.88030  Biso   1.000  C
  C41      1.0000 0.23341  0.27748  0.39420  Biso   1.000  C
  C42      1.0000 0.76659  0.27748  0.10580  Biso   1.000  C
  C43      1.0000 0.73341  0.77748  0.39420  Biso   1.000  C
  C44      1.0000 0.26659  0.77748  0.10580  Biso   1.000  C
  C45      1.0000 0.76659  0.72252  0.60580  Biso   1.000  C
  C46      1.0000 0.23341  0.72252  0.89420  Biso   1.000  C
  C47      1.0000 0.26659  0.22252  0.60580  Biso   1.000  C
  C48      1.0000 0.73341  0.22252  0.89420  Biso   1.000  C
  O37      1.0000 0.45800  0.04760  0.56030  Biso   1.000  O
  O38      1.0000 0.54200  0.04760  0.93970  Biso   1.000  O
  O39      1.0000 0.95800  0.54760  0.56030  Biso   1.000  O
  O40      1.0000 0.04200  0.54760  0.93970  Biso   1.000  O
  O41      1.0000 0.54200  0.95240  0.43970  Biso   1.000  O
  O42      1.0000 0.45800  0.95240  0.06030  Biso   1.000  O
  O43      1.0000 0.04200  0.45240  0.43970  Biso   1.000  O
  O44      1.0000 0.95800  0.45240  0.06030  Biso   1.000  O
  H33      1.0000 0.49200  0.04660  0.69420  Biso   1.000  H
  H34      1.0000 0.50800  0.04660  0.80580  Biso   1.000  H
  H35      1.0000 0.99200  0.54660  0.69420  Biso   1.000  H
  H36      1.0000 0.00800  0.54660  0.80580  Biso   1.000  H
  H37      1.0000 0.50800  0.95340  0.30580  Biso   1.000  H
  H38      1.0000 0.49200  0.95340  0.19420  Biso   1.000  H
  H39      1.0000 0.00800  0.45340  0.30580  Biso   1.000  H
  H40      1.0000 0.99200  0.45340  0.19420  Biso   1.000  H
  H41      1.0000 0.48160  0.05150  0.45460  Biso   1.000  H
  H42      1.0000 0.51840  0.05150  0.04540  Biso   1.000  H
  H43      1.0000 0.98160  0.55150  0.45460  Biso   1.000  H
  H44      1.0000 0.01840  0.55150  0.04540  Biso   1.000  H
  H45      1.0000 0.51840  0.94850  0.54540  Biso   1.000  H
  H46      1.0000 0.48160  0.94850  0.95460  Biso   1.000  H
  H47      1.0000 0.01840  0.44850  0.54540  Biso   1.000  H
  H48      1.0000 0.98160  0.44850  0.95460  Biso   1.000  H
