data_image0
_cell_length_a       13.371
_cell_length_b       14.453
_cell_length_c       10.949
_cell_angle_alpha    71.905
_cell_angle_beta     74.327
_cell_angle_gamma    64.427

_symmetry_space_group_name_H-M    "P 1"
_symmetry_int_tables_number       1

loop_
  _symmetry_equiv_pos_as_xyz
  'x, y, z'

loop_
  _atom_site_label
  _atom_site_occupancy
  _atom_site_fract_x
  _atom_site_fract_y
  _atom_site_fract_z
  _atom_site_thermal_displace_type
  _atom_site_B_iso_or_equiv
  _atom_site_type_symbol
  La1      1.0000 0.17983  0.23157  0.77644  Biso   1.000  La
  La2      1.0000 0.82017  0.76843  0.22356  Biso   1.000  La
  Cu1      1.0000 0.39745  0.06274  0.31872  Biso   1.000  Cu
  Cu2      1.0000 0.60255  0.93726  0.68128  Biso   1.000  Cu
  Cu3      1.0000 0.87675  0.56144  0.80963  Biso   1.000  Cu
  Cu4      1.0000 0.12325  0.43856  0.19037  Biso   1.000  Cu
  N1       1.0000 0.34550  0.94650  0.42210  Biso   1.000  N
  N2       1.0000 0.65450  0.05350  0.57790  Biso   1.000  N
  N3       1.0000 0.45510  0.17240  0.21800  Biso   1.000  N
  N4       1.0000 0.54490  0.82760  0.78200  Biso   1.000  N
  N5       1.0000 0.98060  0.63800  0.71850  Biso   1.000  N
  N6       1.0000 0.01940  0.36200  0.28150  Biso   1.000  N
  N7       1.0000 0.77320  0.48760  0.89760  Biso   1.000  N
  N8       1.0000 0.22680  0.51240  0.10240  Biso   1.000  N
  O1       1.0000 0.18140  0.12090  0.63830  Biso   1.000  O
  O2       1.0000 0.81860  0.87910  0.36170  Biso   1.000  O
  O3       1.0000 0.26900  0.14680  0.43360  Biso   1.000  O
  O4       1.0000 0.73100  0.85320  0.56640  Biso   1.000  O
  O5       1.0000 0.24740  0.95830  0.14270  Biso   1.000  O
  O6       1.0000 0.75260  0.04170  0.85730  Biso   1.000  O
  O7       1.0000 0.34650  0.04130  0.16430  Biso   1.000  O
  O8       1.0000 0.65350  0.95870  0.83570  Biso   1.000  O
  O9       1.0000 0.64140  0.78000  0.38500  Biso   1.000  O
  O10      1.0000 0.35860  0.22000  0.61500  Biso   1.000  O
  O11      1.0000 0.55070  0.95330  0.34410  Biso   1.000  O
  O12      1.0000 0.44930  0.04670  0.65590  Biso   1.000  O
  O13      1.0000 0.21990  0.39620  0.75250  Biso   1.000  O
  O14      1.0000 0.78010  0.60380  0.24750  Biso   1.000  O
  O15      1.0000 0.03920  0.42550  0.80400  Biso   1.000  O
  O16      1.0000 0.96080  0.57450  0.19600  Biso   1.000  O
  O17      1.0000 0.89480  0.64660  0.42640  Biso   1.000  O
  O18      1.0000 0.10520  0.35340  0.57360  Biso   1.000  O
  O19      1.0000 0.84750  0.58170  0.63490  Biso   1.000  O
  O20      1.0000 0.15250  0.41830  0.36510  Biso   1.000  O
  O21      1.0000 0.87620  0.76230  0.98500  Biso   1.000  O
  O22      1.0000 0.12380  0.23770  0.01500  Biso   1.000  O
  O23      1.0000 0.85270  0.62970  0.95040  Biso   1.000  O
  O24      1.0000 0.14730  0.37030  0.04960  Biso   1.000  O
  O25      1.0000 0.98950  0.21620  0.84820  Biso   1.000  O
  O26      1.0000 0.01050  0.78380  0.15180  Biso   1.000  O
  O27      1.0000 0.21900  0.04310  0.89820  Biso   1.000  O
  O28      1.0000 0.78100  0.95690  0.10180  Biso   1.000  O
  O29      1.0000 0.35690  0.16130  0.89540  Biso   1.000  O
  O30      1.0000 0.64310  0.83870  0.10460  Biso   1.000  O
  C1       1.0000 0.29770  0.97040  0.55190  Biso   1.000  C
  C2       1.0000 0.70230  0.02960  0.44810  Biso   1.000  C
  H1       1.0000 0.35660  0.93920  0.60510  Biso   1.000  H
  H2       1.0000 0.64340  0.06080  0.39490  Biso   1.000  H
  H3       1.0000 0.24170  0.93980  0.59380  Biso   1.000  H
  H4       1.0000 0.75830  0.06020  0.40620  Biso   1.000  H
  C3       1.0000 0.24410  0.08840  0.54180  Biso   1.000  C
  C4       1.0000 0.75590  0.91160  0.45820  Biso   1.000  C
  C5       1.0000 0.25920  0.95310  0.35610  Biso   1.000  C
  C6       1.0000 0.74080  0.04690  0.64390  Biso   1.000  C
  H5       1.0000 0.18710  0.00370  0.38590  Biso   1.000  H
  H6       1.0000 0.81290  0.99630  0.61410  Biso   1.000  H
  H7       1.0000 0.25300  0.88510  0.37910  Biso   1.000  H
  H8       1.0000 0.74700  0.11490  0.62090  Biso   1.000  H
  C7       1.0000 0.28750  0.98560  0.20930  Biso   1.000  C
  C8       1.0000 0.71250  0.01440  0.79070  Biso   1.000  C
  C9       1.0000 0.44370  0.84550  0.42200  Biso   1.000  C
  C10      1.0000 0.55630  0.15450  0.57800  Biso   1.000  C
  H9       1.0000 0.43860  0.81030  0.36290  Biso   1.000  H
  H10      1.0000 0.56140  0.18970  0.63710  Biso   1.000  H
  H11      1.0000 0.44190  0.80050  0.50860  Biso   1.000  H
  H12      1.0000 0.55810  0.19950  0.49140  Biso   1.000  H
  C11      1.0000 0.55320  0.86080  0.38180  Biso   1.000  C
  C12      1.0000 0.44680  0.13920  0.61820  Biso   1.000  C
  C13      1.0000 0.53390  0.15100  0.11360  Biso   1.000  C
  C14      1.0000 0.46610  0.84900  0.88640  Biso   1.000  C
  H13      1.0000 0.55100  0.09000  0.08690  Biso   1.000  H
  H14      1.0000 0.44900  0.91000  0.91310  Biso   1.000  H
  C15      1.0000 0.59030  0.21660  0.04450  Biso   1.000  C
  C16      1.0000 0.40970  0.78340  0.95550  Biso   1.000  C
  H15      1.0000 0.64270  0.20080  0.97070  Biso   1.000  H
  H16      1.0000 0.35730  0.79920  0.02930  Biso   1.000  H
  C17      1.0000 0.56870  0.30640  0.08570  Biso   1.000  C
  C18      1.0000 0.43130  0.69360  0.91430  Biso   1.000  C
  C19      1.0000 0.48590  0.32800  0.19240  Biso   1.000  C
  C20      1.0000 0.51410  0.67200  0.80760  Biso   1.000  C
  H17      1.0000 0.46710  0.38850  0.22120  Biso   1.000  H
  H18      1.0000 0.53290  0.61150  0.77880  Biso   1.000  H
  C21      1.0000 0.43140  0.25990  0.25600  Biso   1.000  C
  C22      1.0000 0.56860  0.74010  0.74400  Biso   1.000  C
  H19      1.0000 0.37630  0.27550  0.32780  Biso   1.000  H
  H20      1.0000 0.62370  0.72450  0.67220  Biso   1.000  H
  C23      1.0000 0.09130  0.57220  0.76020  Biso   1.000  C
  C24      1.0000 0.90870  0.42780  0.23980  Biso   1.000  C
  H21      1.0000 0.09080  0.58310  0.84350  Biso   1.000  H
  H22      1.0000 0.90920  0.41690  0.15650  Biso   1.000  H
  H23      1.0000 0.14860  0.59320  0.69740  Biso   1.000  H
  H24      1.0000 0.85140  0.40680  0.30260  Biso   1.000  H
  C25      1.0000 0.11930  0.45640  0.77240  Biso   1.000  C
  C26      1.0000 0.88070  0.54360  0.22760  Biso   1.000  C
  C27      1.0000 0.98630  0.65630  0.57620  Biso   1.000  C
  C28      1.0000 0.01370  0.34370  0.42380  Biso   1.000  C
  H25      1.0000 0.06140  0.61520  0.53920  Biso   1.000  H
  H26      1.0000 0.93860  0.38480  0.46080  Biso   1.000  H
  H27      1.0000 0.97240  0.73000  0.53700  Biso   1.000  H
  H28      1.0000 0.02760  0.27000  0.46300  Biso   1.000  H
  C29      1.0000 0.90290  0.62750  0.54270  Biso   1.000  C
  C30      1.0000 0.09710  0.37250  0.45730  Biso   1.000  C
  C31      1.0000 0.92840  0.73540  0.76960  Biso   1.000  C
  C32      1.0000 0.07160  0.26460  0.23040  Biso   1.000  C
  H29      1.0000 0.86810  0.78730  0.72250  Biso   1.000  H
  H30      1.0000 0.13190  0.21270  0.27750  Biso   1.000  H
  H31      1.0000 0.98390  0.76510  0.75820  Biso   1.000  H
  H32      1.0000 0.01610  0.23490  0.24180  Biso   1.000  H
  C33      1.0000 0.88260  0.70730  0.91370  Biso   1.000  C
  C34      1.0000 0.11740  0.29270  0.08630  Biso   1.000  C
  C35      1.0000 0.70740  0.50170  0.01140  Biso   1.000  C
  C36      1.0000 0.29260  0.49830  0.98860  Biso   1.000  C
  H33      1.0000 0.70820  0.55000  0.05050  Biso   1.000  H
  H34      1.0000 0.29180  0.45000  0.94950  Biso   1.000  H
  C37      1.0000 0.63760  0.44660  0.07330  Biso   1.000  C
  C38      1.0000 0.36240  0.55340  0.92670  Biso   1.000  C
  H35      1.0000 0.59180  0.45890  0.15200  Biso   1.000  H
  H36      1.0000 0.40820  0.54110  0.84800  Biso   1.000  H
  C39      1.0000 0.63630  0.37310  0.01760  Biso   1.000  C
  C40      1.0000 0.36370  0.62690  0.98240  Biso   1.000  C
  C41      1.0000 0.70140  0.36280  0.89690  Biso   1.000  C
  C42      1.0000 0.29860  0.63720  0.10310  Biso   1.000  C
  H37      1.0000 0.69940  0.31760  0.85370  Biso   1.000  H
  H38      1.0000 0.30060  0.68240  0.14630  Biso   1.000  H
  C43      1.0000 0.76930  0.41940  0.84080  Biso   1.000  C
  C44      1.0000 0.23070  0.58060  0.15920  Biso   1.000  C
  H39      1.0000 0.81400  0.41010  0.76080  Biso   1.000  H
  H40      1.0000 0.18600  0.58990  0.23920  Biso   1.000  H
  O31      1.0000 0.44430  0.33160  0.78670  Biso   1.000  O
  O32      1.0000 0.55570  0.66840  0.21330  Biso   1.000  O
  O33      1.0000 0.99370  0.09610  0.50740  Biso   1.000  O
  O34      1.0000 0.00630  0.90390  0.49260  Biso   1.000  O
  O35      1.0000 0.04660  0.92880  0.22640  Biso   1.000  O
  O36      1.0000 0.95340  0.07120  0.77360  Biso   1.000  O
  O37      1.0000 0.68260  0.55860  0.54820  Biso   1.000  O
  O38      1.0000 0.31740  0.44140  0.45180  Biso   1.000  O
  O39      1.0000 0.58170  0.42390  0.58740  Biso   1.000  O
  O40      1.0000 0.41830  0.57610  0.41260  Biso   1.000  O
  N9       1.0000 0.84650  0.18140  0.15200  Biso   1.000  N
  N10      1.0000 0.15350  0.81860  0.84800  Biso   1.000  N
  O41      1.0000 0.87830  0.10270  0.10510  Biso   1.000  O
  O42      1.0000 0.12170  0.89730  0.89490  Biso   1.000  O
  O43      1.0000 0.76140  0.20100  0.24090  Biso   1.000  O
  O44      1.0000 0.23860  0.79900  0.75910  Biso   1.000  O
  O45      1.0000 0.88850  0.25060  0.09890  Biso   1.000  O
  O46      1.0000 0.11150  0.74940  0.90110  Biso   1.000  O
  N11      1.0000 0.76480  0.26110  0.37870  Biso   1.000  N
  N12      1.0000 0.23520  0.73890  0.62130  Biso   1.000  N
  O47      1.0000 0.83750  0.20000  0.30780  Biso   1.000  O
  O48      1.0000 0.16250  0.80000  0.69220  Biso   1.000  O
  O49      1.0000 0.66600  0.31290  0.35240  Biso   1.000  O
  O50      1.0000 0.33400  0.68710  0.64760  Biso   1.000  O
  O51      1.0000 0.78920  0.26950  0.47570  Biso   1.000  O
  O52      1.0000 0.21080  0.73050  0.52430  Biso   1.000  O
