data_image0
_cell_length_a       20.654
_cell_length_b       13.8205
_cell_length_c       22.7102
_cell_angle_alpha    90
_cell_angle_beta     98.527
_cell_angle_gamma    90

_symmetry_space_group_name_H-M    "P 1"
_symmetry_int_tables_number       1

loop_
  _symmetry_equiv_pos_as_xyz
  'x, y, z'

loop_
  _atom_site_label
  _atom_site_occupancy
  _atom_site_fract_x
  _atom_site_fract_y
  _atom_site_fract_z
  _atom_site_thermal_displace_type
  _atom_site_B_iso_or_equiv
  _atom_site_type_symbol
  W1       1.0000 0.84725  0.78855  0.98563  Biso   1.000  W
  W2       1.0000 0.65275  0.28855  0.51437  Biso   1.000  W
  W3       1.0000 0.15275  0.21145  0.01437  Biso   1.000  W
  W4       1.0000 0.34725  0.71145  0.48563  Biso   1.000  W
  W5       1.0000 0.70276  0.79860  0.06614  Biso   1.000  W
  W6       1.0000 0.79724  0.29860  0.43386  Biso   1.000  W
  W7       1.0000 0.29724  0.20140  0.93386  Biso   1.000  W
  W8       1.0000 0.20276  0.70140  0.56614  Biso   1.000  W
  W9       1.0000 0.68357  0.84195  0.90334  Biso   1.000  W
  W10      1.0000 0.81643  0.34195  0.59666  Biso   1.000  W
  W11      1.0000 0.31643  0.15805  0.09666  Biso   1.000  W
  W12      1.0000 0.18357  0.65805  0.40335  Biso   1.000  W
  W13      1.0000 0.56923  0.66152  0.88189  Biso   1.000  W
  W14      1.0000 0.93077  0.16152  0.61811  Biso   1.000  W
  W15      1.0000 0.43077  0.33848  0.11811  Biso   1.000  W
  W16      1.0000 0.06923  0.83848  0.38189  Biso   1.000  W
  W17      1.0000 0.69708  0.66575  0.80360  Biso   1.000  W
  W18      1.0000 0.80292  0.16575  0.69640  Biso   1.000  W
  W19      1.0000 0.30292  0.33425  0.19640  Biso   1.000  W
  W20      1.0000 0.19708  0.83425  0.30360  Biso   1.000  W
  W21      1.0000 0.86362  0.61435  0.88561  Biso   1.000  W
  W22      1.0000 0.63638  0.11435  0.61439  Biso   1.000  W
  W23      1.0000 0.13638  0.38565  0.11439  Biso   1.000  W
  W24      1.0000 0.36362  0.88565  0.38561  Biso   1.000  W
  W25      1.0000 0.87755  0.55731  0.03063  Biso   1.000  W
  W26      1.0000 0.62245  0.05731  0.46937  Biso   1.000  W
  W27      1.0000 0.12245  0.44269  0.96937  Biso   1.000  W
  W28      1.0000 0.37755  0.94269  0.53063  Biso   1.000  W
  W29      1.0000 0.74044  0.57132  0.11628  Biso   1.000  W
  W30      1.0000 0.75956  0.07132  0.38372  Biso   1.000  W
  W31      1.0000 0.25956  0.42868  0.88372  Biso   1.000  W
  W32      1.0000 0.24044  0.92868  0.61628  Biso   1.000  W
  W33      1.0000 0.59065  0.61786  0.04157  Biso   1.000  W
  W34      1.0000 0.90935  0.11786  0.45843  Biso   1.000  W
  W35      1.0000 0.40935  0.38214  0.95843  Biso   1.000  W
  W36      1.0000 0.09065  0.88214  0.54157  Biso   1.000  W
  Cu1      1.0000 0.58918  0.42069  0.93874  Biso   1.000  Cu
  Cu2      1.0000 0.91082  0.92069  0.56126  Biso   1.000  Cu
  Cu3      1.0000 0.41082  0.57931  0.06126  Biso   1.000  Cu
  Cu4      1.0000 0.08918  0.07931  0.43874  Biso   1.000  Cu
  Cu5      1.0000 0.78419  0.35803  0.05287  Biso   1.000  Cu
  Cu6      1.0000 0.71581  0.85803  0.44713  Biso   1.000  Cu
  Cu7      1.0000 0.21581  0.64197  0.94713  Biso   1.000  Cu
  Cu8      1.0000 0.28419  0.14197  0.55287  Biso   1.000  Cu
  Cu9      1.0000 0.03096  0.57914  0.85311  Biso   1.000  Cu
  Cu10     1.0000 0.46904  0.07914  0.64689  Biso   1.000  Cu
  Cu11     1.0000 0.96904  0.42086  0.14689  Biso   1.000  Cu
  Cu12     1.0000 0.53096  0.92086  0.35311  Biso   1.000  Cu
  As1      1.0000 0.71948  0.58535  0.95767  Biso   1.000  As
  As2      1.0000 0.78052  0.08535  0.54233  Biso   1.000  As
  As3      1.0000 0.28052  0.41465  0.04233  Biso   1.000  As
  As4      1.0000 0.21948  0.91465  0.45767  Biso   1.000  As
  As5      1.0000 0.76152  0.43482  0.82100  Biso   1.000  As
  As6      1.0000 0.73848  0.93482  0.67900  Biso   1.000  As
  As7      1.0000 0.23848  0.56518  0.17900  Biso   1.000  As
  As8      1.0000 0.26152  0.06518  0.32100  Biso   1.000  As
  O1       1.0000 0.89350  0.89110  0.99800  Biso   1.000  O
  O2       1.0000 0.60650  0.39110  0.50200  Biso   1.000  O
  O3       1.0000 0.10650  0.10890  0.00200  Biso   1.000  O
  O4       1.0000 0.39350  0.60890  0.49800  Biso   1.000  O
  O5       1.0000 0.89950  0.69860  0.03280  Biso   1.000  O
  O6       1.0000 0.60050  0.19860  0.46720  Biso   1.000  O
  O7       1.0000 0.10050  0.30140  0.96720  Biso   1.000  O
  O8       1.0000 0.39950  0.80140  0.53280  Biso   1.000  O
  O9       1.0000 0.88430  0.73800  0.91710  Biso   1.000  O
  O10      1.0000 0.61570  0.23800  0.58290  Biso   1.000  O
  O11      1.0000 0.11570  0.26200  0.08290  Biso   1.000  O
  O12      1.0000 0.38430  0.76200  0.41710  Biso   1.000  O
  O13      1.0000 0.77650  0.83040  0.92650  Biso   1.000  O
  O14      1.0000 0.72350  0.33040  0.57350  Biso   1.000  O
  O15      1.0000 0.22350  0.16960  0.07350  Biso   1.000  O
  O16      1.0000 0.27650  0.66960  0.42650  Biso   1.000  O
  O17      1.0000 0.78940  0.80310  0.04070  Biso   1.000  O
  O18      1.0000 0.71060  0.30310  0.45930  Biso   1.000  O
  O19      1.0000 0.21060  0.19690  0.95930  Biso   1.000  O
  O20      1.0000 0.28940  0.69690  0.54070  Biso   1.000  O
  O21      1.0000 0.73910  0.71720  0.12720  Biso   1.000  O
  O22      1.0000 0.76090  0.21720  0.37280  Biso   1.000  O
  O23      1.0000 0.26090  0.28280  0.87280  Biso   1.000  O
  O24      1.0000 0.23910  0.78280  0.62720  Biso   1.000  O
  O25      1.0000 0.70210  0.90700  0.10250  Biso   1.000  O
  O26      1.0000 0.79790  0.40700  0.39750  Biso   1.000  O
  O27      1.0000 0.29790  0.09300  0.89750  Biso   1.000  O
  O28      1.0000 0.20210  0.59300  0.60250  Biso   1.000  O
  O29      1.0000 0.67520  0.84070  0.98370  Biso   1.000  O
  O30      1.0000 0.82480  0.34070  0.51630  Biso   1.000  O
  O31      1.0000 0.32480  0.15930  0.01630  Biso   1.000  O
  O32      1.0000 0.17520  0.65930  0.48370  Biso   1.000  O
  O33      1.0000 0.61830  0.75480  0.06820  Biso   1.000  O
  O34      1.0000 0.88170  0.25480  0.43180  Biso   1.000  O
  O35      1.0000 0.38170  0.24520  0.93180  Biso   1.000  O
  O36      1.0000 0.11830  0.74520  0.56820  Biso   1.000  O
  O37      1.0000 0.67580  0.96240  0.88730  Biso   1.000  O
  O38      1.0000 0.82420  0.46240  0.61270  Biso   1.000  O
  O39      1.0000 0.32420  0.03760  0.11270  Biso   1.000  O
  O40      1.0000 0.17580  0.53760  0.38730  Biso   1.000  O
  O41      1.0000 0.59430  0.80360  0.88080  Biso   1.000  O
  O42      1.0000 0.90570  0.30360  0.61920  Biso   1.000  O
  O43      1.0000 0.40570  0.19640  0.11920  Biso   1.000  O
  O44      1.0000 0.09430  0.69640  0.38080  Biso   1.000  O
  O45      1.0000 0.69790  0.79890  0.82340  Biso   1.000  O
  O46      1.0000 0.80210  0.29890  0.67660  Biso   1.000  O
  O47      1.0000 0.30210  0.20110  0.17660  Biso   1.000  O
  O48      1.0000 0.19790  0.70110  0.32340  Biso   1.000  O
  O49      1.0000 0.56700  0.67980  0.96470  Biso   1.000  O
  O50      1.0000 0.93300  0.17980  0.53530  Biso   1.000  O
  O51      1.0000 0.43300  0.32020  0.03530  Biso   1.000  O
  O52      1.0000 0.06700  0.82020  0.46470  Biso   1.000  O
  O53      1.0000 0.48820  0.67850  0.85240  Biso   1.000  O
  O54      1.0000 0.01180  0.17850  0.64760  Biso   1.000  O
  O55      1.0000 0.51180  0.32150  0.14760  Biso   1.000  O
  O56      1.0000 0.98820  0.82150  0.35240  Biso   1.000  O
  O57      1.0000 0.60610  0.65900  0.80520  Biso   1.000  O
  O58      1.0000 0.89390  0.15900  0.69480  Biso   1.000  O
  O59      1.0000 0.39390  0.34100  0.19480  Biso   1.000  O
  O60      1.0000 0.10610  0.84100  0.30520  Biso   1.000  O
  O61      1.0000 0.57690  0.53430  0.88870  Biso   1.000  O
  O62      1.0000 0.92310  0.03430  0.61130  Biso   1.000  O
  O63      1.0000 0.42310  0.46570  0.11130  Biso   1.000  O
  O64      1.0000 0.07690  0.96570  0.38870  Biso   1.000  O
  O65      1.0000 0.69870  0.67320  0.72880  Biso   1.000  O
  O66      1.0000 0.80130  0.17320  0.77120  Biso   1.000  O
  O67      1.0000 0.30130  0.32680  0.27120  Biso   1.000  O
  O68      1.0000 0.19870  0.82680  0.22880  Biso   1.000  O
  O69      1.0000 0.70150  0.52820  0.81630  Biso   1.000  O
  O70      1.0000 0.79850  0.02820  0.68370  Biso   1.000  O
  O71      1.0000 0.29850  0.47180  0.18370  Biso   1.000  O
  O72      1.0000 0.20150  0.97180  0.31630  Biso   1.000  O
  O73      1.0000 0.79060  0.66250  0.83510  Biso   1.000  O
  O74      1.0000 0.70940  0.16250  0.66490  Biso   1.000  O
  O75      1.0000 0.20940  0.33750  0.16490  Biso   1.000  O
  O76      1.0000 0.29060  0.83750  0.33510  Biso   1.000  O
  O77      1.0000 0.92160  0.60480  0.83860  Biso   1.000  O
  O78      1.0000 0.57840  0.10480  0.66140  Biso   1.000  O
  O79      1.0000 0.07840  0.39520  0.16140  Biso   1.000  O
  O80      1.0000 0.42160  0.89520  0.33860  Biso   1.000  O
  O81      1.0000 0.82180  0.48710  0.87520  Biso   1.000  O
  O82      1.0000 0.67820  0.98710  0.62480  Biso   1.000  O
  O83      1.0000 0.17820  0.51290  0.12480  Biso   1.000  O
  O84      1.0000 0.32180  0.01290  0.37520  Biso   1.000  O
  O85      1.0000 0.91240  0.55800  0.95600  Biso   1.000  O
  O86      1.0000 0.58760  0.05800  0.54400  Biso   1.000  O
  O87      1.0000 0.08760  0.44200  0.04400  Biso   1.000  O
  O88      1.0000 0.41240  0.94200  0.45600  Biso   1.000  O
  O89      1.0000 0.83190  0.44860  0.01300  Biso   1.000  O
  O90      1.0000 0.66810  0.94860  0.48700  Biso   1.000  O
  O91      1.0000 0.16810  0.55140  0.98700  Biso   1.000  O
  O92      1.0000 0.33190  0.05140  0.51300  Biso   1.000  O
  O93      1.0000 0.94660  0.51510  0.07900  Biso   1.000  O
  O94      1.0000 0.55340  0.01510  0.42100  Biso   1.000  O
  O95      1.0000 0.05340  0.48490  0.92100  Biso   1.000  O
  O96      1.0000 0.44660  0.98490  0.57900  Biso   1.000  O
  O97      1.0000 0.82330  0.59230  0.08850  Biso   1.000  O
  O98      1.0000 0.67670  0.09230  0.41150  Biso   1.000  O
  O99      1.0000 0.17670  0.40770  0.91150  Biso   1.000  O
  O100     1.0000 0.32330  0.90770  0.58850  Biso   1.000  O
  O101     1.0000 0.76650  0.54360  0.18950  Biso   1.000  O
  O102     1.0000 0.73350  0.04360  0.31050  Biso   1.000  O
  O103     1.0000 0.23350  0.45640  0.81050  Biso   1.000  O
  O104     1.0000 0.26650  0.95640  0.68950  Biso   1.000  O
  O105     1.0000 0.64730  0.57990  0.11490  Biso   1.000  O
  O106     1.0000 0.85270  0.07990  0.38510  Biso   1.000  O
  O107     1.0000 0.35270  0.42010  0.88510  Biso   1.000  O
  O108     1.0000 0.14730  0.92010  0.61490  Biso   1.000  O
  O109     1.0000 0.73370  0.45450  0.08110  Biso   1.000  O
  O110     1.0000 0.76630  0.95450  0.41890  Biso   1.000  O
  O111     1.0000 0.26630  0.54550  0.91890  Biso   1.000  O
  O112     1.0000 0.23370  0.04550  0.58110  Biso   1.000  O
  O113     1.0000 0.59110  0.50220  0.00760  Biso   1.000  O
  O114     1.0000 0.90890  0.00220  0.49240  Biso   1.000  O
  O115     1.0000 0.40890  0.49780  0.99240  Biso   1.000  O
  O116     1.0000 0.09110  0.99780  0.50760  Biso   1.000  O
  O117     1.0000 0.51740  0.62030  0.06920  Biso   1.000  O
  O118     1.0000 0.98260  0.12030  0.43080  Biso   1.000  O
  O119     1.0000 0.48260  0.37970  0.93080  Biso   1.000  O
  O120     1.0000 0.01740  0.87970  0.56920  Biso   1.000  O
  O121     1.0000 0.68180  0.67290  0.90550  Biso   1.000  O
  O122     1.0000 0.81820  0.17290  0.59450  Biso   1.000  O
  O123     1.0000 0.31820  0.32710  0.09450  Biso   1.000  O
  O124     1.0000 0.18180  0.82710  0.40550  Biso   1.000  O
  O125     1.0000 0.80040  0.63250  0.96380  Biso   1.000  O
  O126     1.0000 0.69960  0.13250  0.53620  Biso   1.000  O
  O127     1.0000 0.19960  0.36750  0.03620  Biso   1.000  O
  O128     1.0000 0.30040  0.86750  0.46380  Biso   1.000  O
  O129     1.0000 0.69700  0.63840  0.02340  Biso   1.000  O
  O130     1.0000 0.80300  0.13840  0.47660  Biso   1.000  O
  O131     1.0000 0.30300  0.36160  0.97660  Biso   1.000  O
  O132     1.0000 0.19700  0.86160  0.52340  Biso   1.000  O
  O133     1.0000 0.79610  0.46510  0.75620  Biso   1.000  O
  O134     1.0000 0.70390  0.96510  0.74380  Biso   1.000  O
  O135     1.0000 0.20390  0.53490  0.24380  Biso   1.000  O
  O136     1.0000 0.29610  0.03490  0.25620  Biso   1.000  O
  C1       1.0000 0.60890  0.29300  0.04430  Biso   1.000  C
  C2       1.0000 0.89110  0.79300  0.45570  Biso   1.000  C
  C3       1.0000 0.39110  0.70700  0.95570  Biso   1.000  C
  C4       1.0000 0.10890  0.20700  0.54430  Biso   1.000  C
  H1       1.0000 0.59850  0.34680  0.06570  Biso   1.000  H
  H2       1.0000 0.90150  0.84680  0.43430  Biso   1.000  H
  H3       1.0000 0.40150  0.65320  0.93430  Biso   1.000  H
  H4       1.0000 0.09850  0.15320  0.56570  Biso   1.000  H
  C5       1.0000 0.62080  0.20620  0.07350  Biso   1.000  C
  C6       1.0000 0.87920  0.70620  0.42650  Biso   1.000  C
  C7       1.0000 0.37920  0.79380  0.92650  Biso   1.000  C
  C8       1.0000 0.12080  0.29380  0.57350  Biso   1.000  C
  H5       1.0000 0.61900  0.20140  0.11410  Biso   1.000  H
  H6       1.0000 0.88100  0.70140  0.38590  Biso   1.000  H
  H7       1.0000 0.38100  0.79860  0.88590  Biso   1.000  H
  H8       1.0000 0.11900  0.29860  0.61410  Biso   1.000  H
  C9       1.0000 0.63550  0.12700  0.04180  Biso   1.000  C
  C10      1.0000 0.86450  0.62700  0.45820  Biso   1.000  C
  C11      1.0000 0.36450  0.87300  0.95820  Biso   1.000  C
  C12      1.0000 0.13550  0.37300  0.54180  Biso   1.000  C
  H9       1.0000 0.64440  0.06790  0.06080  Biso   1.000  H
  H10      1.0000 0.85560  0.56790  0.43920  Biso   1.000  H
  H11      1.0000 0.35560  0.93210  0.93920  Biso   1.000  H
  H12      1.0000 0.14440  0.43210  0.56080  Biso   1.000  H
  C13      1.0000 0.63680  0.13520  0.98240  Biso   1.000  C
  C14      1.0000 0.86320  0.63520  0.51760  Biso   1.000  C
  C15      1.0000 0.36320  0.86480  0.01760  Biso   1.000  C
  C16      1.0000 0.13680  0.36480  0.48240  Biso   1.000  C
  H13      1.0000 0.64530  0.08110  0.96040  Biso   1.000  H
  H14      1.0000 0.85470  0.58110  0.53960  Biso   1.000  H
  H15      1.0000 0.35470  0.91890  0.03960  Biso   1.000  H
  H16      1.0000 0.14530  0.41890  0.46040  Biso   1.000  H
  C17      1.0000 0.62550  0.22380  0.95470  Biso   1.000  C
  C18      1.0000 0.87450  0.72380  0.54530  Biso   1.000  C
  C19      1.0000 0.37450  0.77620  0.04530  Biso   1.000  C
  C20      1.0000 0.12550  0.27620  0.45470  Biso   1.000  C
  C21      1.0000 0.62370  0.24260  0.89080  Biso   1.000  C
  C22      1.0000 0.87630  0.74260  0.60920  Biso   1.000  C
  C23      1.0000 0.37630  0.75740  0.10920  Biso   1.000  C
  C24      1.0000 0.12370  0.25740  0.39080  Biso   1.000  C
  C25      1.0000 0.63940  0.17410  0.85060  Biso   1.000  C
  C26      1.0000 0.86060  0.67410  0.64940  Biso   1.000  C
  C27      1.0000 0.36060  0.82590  0.14940  Biso   1.000  C
  C28      1.0000 0.13940  0.32590  0.35060  Biso   1.000  C
  H17      1.0000 0.65220  0.11210  0.86330  Biso   1.000  H
  H18      1.0000 0.84780  0.61210  0.63670  Biso   1.000  H
  H19      1.0000 0.34780  0.88790  0.13670  Biso   1.000  H
  H20      1.0000 0.15220  0.38790  0.36330  Biso   1.000  H
  C29      1.0000 0.63570  0.19990  0.79110  Biso   1.000  C
  C30      1.0000 0.86430  0.69990  0.70890  Biso   1.000  C
  C31      1.0000 0.36430  0.80010  0.20890  Biso   1.000  C
  C32      1.0000 0.13570  0.30010  0.29110  Biso   1.000  C
  H21      1.0000 0.64580  0.15490  0.76340  Biso   1.000  H
  H22      1.0000 0.85420  0.65490  0.73660  Biso   1.000  H
  H23      1.0000 0.35420  0.84510  0.23660  Biso   1.000  H
  H24      1.0000 0.14580  0.34510  0.26340  Biso   1.000  H
  C33      1.0000 0.61690  0.29300  0.77310  Biso   1.000  C
  C34      1.0000 0.88310  0.79300  0.72690  Biso   1.000  C
  C35      1.0000 0.38310  0.70700  0.22690  Biso   1.000  C
  C36      1.0000 0.11690  0.20700  0.27310  Biso   1.000  C
  H25      1.0000 0.61410  0.31100  0.73340  Biso   1.000  H
  H26      1.0000 0.88590  0.81100  0.76660  Biso   1.000  H
  H27      1.0000 0.38590  0.68900  0.26660  Biso   1.000  H
  H28      1.0000 0.11410  0.18900  0.23340  Biso   1.000  H
  C37      1.0000 0.60220  0.35900  0.81530  Biso   1.000  C
  C38      1.0000 0.89780  0.85900  0.68470  Biso   1.000  C
  C39      1.0000 0.39780  0.64100  0.18470  Biso   1.000  C
  C40      1.0000 0.10220  0.14100  0.31530  Biso   1.000  C
  H29      1.0000 0.58920  0.42130  0.80340  Biso   1.000  H
  H30      1.0000 0.91080  0.92130  0.69660  Biso   1.000  H
  H31      1.0000 0.41080  0.57870  0.19660  Biso   1.000  H
  H32      1.0000 0.08920  0.07870  0.30340  Biso   1.000  H
  C41      1.0000 0.77030  0.27890  0.17160  Biso   1.000  C
  C42      1.0000 0.72970  0.77890  0.32840  Biso   1.000  C
  C43      1.0000 0.22970  0.72110  0.82840  Biso   1.000  C
  C44      1.0000 0.27030  0.22110  0.67160  Biso   1.000  C
  H33      1.0000 0.76360  0.34230  0.18320  Biso   1.000  H
  H34      1.0000 0.73640  0.84230  0.31680  Biso   1.000  H
  H35      1.0000 0.23640  0.65770  0.81680  Biso   1.000  H
  H36      1.0000 0.26360  0.15770  0.68320  Biso   1.000  H
  C45      1.0000 0.77030  0.20550  0.21240  Biso   1.000  C
  C46      1.0000 0.72970  0.70550  0.28760  Biso   1.000  C
  C47      1.0000 0.22970  0.79450  0.78760  Biso   1.000  C
  C48      1.0000 0.27030  0.29450  0.71240  Biso   1.000  C
  H37      1.0000 0.76250  0.21870  0.25090  Biso   1.000  H
  H38      1.0000 0.73750  0.71870  0.24910  Biso   1.000  H
  H39      1.0000 0.23750  0.78130  0.74910  Biso   1.000  H
  H40      1.0000 0.26250  0.28130  0.75090  Biso   1.000  H
  C49      1.0000 0.78160  0.11480  0.19610  Biso   1.000  C
  C50      1.0000 0.71840  0.61480  0.30390  Biso   1.000  C
  C51      1.0000 0.21840  0.88520  0.80390  Biso   1.000  C
  C52      1.0000 0.28160  0.38520  0.69610  Biso   1.000  C
  H41      1.0000 0.78340  0.06540  0.22410  Biso   1.000  H
  H42      1.0000 0.71660  0.56540  0.27590  Biso   1.000  H
  H43      1.0000 0.21660  0.93460  0.77590  Biso   1.000  H
  H44      1.0000 0.28340  0.43460  0.72410  Biso   1.000  H
  C53      1.0000 0.79080  0.09290  0.13870  Biso   1.000  C
  C54      1.0000 0.70920  0.59290  0.36130  Biso   1.000  C
  C55      1.0000 0.20920  0.90710  0.86130  Biso   1.000  C
  C56      1.0000 0.29080  0.40710  0.63870  Biso   1.000  C
  H45      1.0000 0.79750  0.02950  0.12730  Biso   1.000  H
  H46      1.0000 0.70250  0.52950  0.37270  Biso   1.000  H
  H47      1.0000 0.20250  0.97050  0.87270  Biso   1.000  H
  H48      1.0000 0.29750  0.47050  0.62730  Biso   1.000  H
  C57      1.0000 0.78950  0.16960  0.09830  Biso   1.000  C
  C58      1.0000 0.71050  0.66960  0.40170  Biso   1.000  C
  C59      1.0000 0.21050  0.83040  0.90170  Biso   1.000  C
  C60      1.0000 0.28950  0.33040  0.59830  Biso   1.000  C
  C61      1.0000 0.79660  0.15970  0.03520  Biso   1.000  C
  C62      1.0000 0.70340  0.65970  0.46480  Biso   1.000  C
  C63      1.0000 0.20340  0.84030  0.96480  Biso   1.000  C
  C64      1.0000 0.29660  0.34030  0.53520  Biso   1.000  C
  C65      1.0000 0.80140  0.07190  0.00540  Biso   1.000  C
  C66      1.0000 0.69860  0.57190  0.49460  Biso   1.000  C
  C67      1.0000 0.19860  0.92810  0.99460  Biso   1.000  C
  C68      1.0000 0.30140  0.42810  0.50540  Biso   1.000  C
  H49      1.0000 0.80140  0.01360  0.02590  Biso   1.000  H
  H50      1.0000 0.69860  0.51360  0.47410  Biso   1.000  H
  H51      1.0000 0.19860  0.98640  0.97410  Biso   1.000  H
  H52      1.0000 0.30140  0.48640  0.52590  Biso   1.000  H
  C69      1.0000 0.80600  0.07290  0.94580  Biso   1.000  C
  C70      1.0000 0.69400  0.57290  0.55420  Biso   1.000  C
  C71      1.0000 0.19400  0.92710  0.05420  Biso   1.000  C
  C72      1.0000 0.30600  0.42710  0.44580  Biso   1.000  C
  H53      1.0000 0.80710  0.01500  0.92500  Biso   1.000  H
  H54      1.0000 0.69290  0.51500  0.57500  Biso   1.000  H
  H55      1.0000 0.19290  0.98500  0.07500  Biso   1.000  H
  H56      1.0000 0.30710  0.48500  0.42500  Biso   1.000  H
  C73      1.0000 0.80920  0.16070  0.91640  Biso   1.000  C
  C74      1.0000 0.69080  0.66070  0.58360  Biso   1.000  C
  C75      1.0000 0.19080  0.83930  0.08360  Biso   1.000  C
  C76      1.0000 0.30920  0.33930  0.41640  Biso   1.000  C
  H57      1.0000 0.81320  0.16250  0.87620  Biso   1.000  H
  H58      1.0000 0.68680  0.66250  0.62380  Biso   1.000  H
  H59      1.0000 0.18680  0.83750  0.12380  Biso   1.000  H
  H60      1.0000 0.31320  0.33750  0.37620  Biso   1.000  H
  C77      1.0000 0.80620  0.24470  0.94830  Biso   1.000  C
  C78      1.0000 0.69380  0.74470  0.55170  Biso   1.000  C
  C79      1.0000 0.19380  0.75530  0.05170  Biso   1.000  C
  C80      1.0000 0.30620  0.25530  0.44830  Biso   1.000  C
  H61      1.0000 0.80860  0.30360  0.92890  Biso   1.000  H
  H62      1.0000 0.69140  0.80360  0.57110  Biso   1.000  H
  H63      1.0000 0.19140  0.69640  0.07110  Biso   1.000  H
  H64      1.0000 0.30860  0.19640  0.42890  Biso   1.000  H
  C81      1.0000 0.05400  0.66620  0.73540  Biso   1.000  C
  C82      1.0000 0.44600  0.16620  0.76460  Biso   1.000  C
  C83      1.0000 0.94600  0.33380  0.26460  Biso   1.000  C
  C84      1.0000 0.55400  0.83380  0.23540  Biso   1.000  C
  H65      1.0000 0.05370  0.60350  0.72050  Biso   1.000  H
  H66      1.0000 0.44630  0.10350  0.77950  Biso   1.000  H
  H67      1.0000 0.94630  0.39650  0.27950  Biso   1.000  H
  H68      1.0000 0.55370  0.89650  0.22050  Biso   1.000  H
  C85      1.0000 0.06020  0.74330  0.69770  Biso   1.000  C
  C86      1.0000 0.43980  0.24330  0.80230  Biso   1.000  C
  C87      1.0000 0.93980  0.25670  0.30230  Biso   1.000  C
  C88      1.0000 0.56020  0.75670  0.19770  Biso   1.000  C
  H69      1.0000 0.06580  0.73220  0.65840  Biso   1.000  H
  H70      1.0000 0.43420  0.23220  0.84160  Biso   1.000  H
  H71      1.0000 0.93420  0.26780  0.34160  Biso   1.000  H
  H72      1.0000 0.56580  0.76780  0.15840  Biso   1.000  H
  C89      1.0000 0.05800  0.83320  0.71810  Biso   1.000  C
  C90      1.0000 0.44200  0.33320  0.78190  Biso   1.000  C
  C91      1.0000 0.94200  0.16680  0.28190  Biso   1.000  C
  C92      1.0000 0.55800  0.66680  0.21810  Biso   1.000  C
  H73      1.0000 0.06030  0.88590  0.69310  Biso   1.000  H
  H74      1.0000 0.43970  0.38590  0.80690  Biso   1.000  H
  H75      1.0000 0.93970  0.11410  0.30690  Biso   1.000  H
  H76      1.0000 0.56030  0.61410  0.19310  Biso   1.000  H
  C93      1.0000 0.05240  0.84570  0.77470  Biso   1.000  C
  C94      1.0000 0.44760  0.34570  0.72530  Biso   1.000  C
  C95      1.0000 0.94760  0.15430  0.22530  Biso   1.000  C
  C96      1.0000 0.55240  0.65430  0.27470  Biso   1.000  C
  H77      1.0000 0.05240  0.90830  0.78980  Biso   1.000  H
  H78      1.0000 0.44760  0.40830  0.71020  Biso   1.000  H
  H79      1.0000 0.94760  0.09170  0.21020  Biso   1.000  H
  H80      1.0000 0.55240  0.59170  0.28980  Biso   1.000  H
  C97      1.0000 0.04660  0.77030  0.81150  Biso   1.000  C
  C98      1.0000 0.45340  0.27030  0.68850  Biso   1.000  C
  C99      1.0000 0.95340  0.22970  0.18850  Biso   1.000  C
  C100     1.0000 0.54660  0.72970  0.31150  Biso   1.000  C
  C101     1.0000 0.04180  0.78000  0.87630  Biso   1.000  C
  C102     1.0000 0.45820  0.28000  0.62370  Biso   1.000  C
  C103     1.0000 0.95820  0.22000  0.12370  Biso   1.000  C
  C104     1.0000 0.54180  0.72000  0.37630  Biso   1.000  C
  C105     1.0000 0.03890  0.86490  0.90500  Biso   1.000  C
  C106     1.0000 0.46110  0.36490  0.59500  Biso   1.000  C
  C107     1.0000 0.96110  0.13510  0.09500  Biso   1.000  C
  C108     1.0000 0.53890  0.63510  0.40500  Biso   1.000  C
  H81      1.0000 0.04350  0.92180  0.88410  Biso   1.000  H
  H82      1.0000 0.45650  0.42180  0.61590  Biso   1.000  H
  H83      1.0000 0.95650  0.07820  0.11590  Biso   1.000  H
  H84      1.0000 0.54350  0.57820  0.38410  Biso   1.000  H
  C109     1.0000 0.02980  0.87120  0.96210  Biso   1.000  C
  C110     1.0000 0.47020  0.37120  0.53790  Biso   1.000  C
  C111     1.0000 0.97020  0.12880  0.03790  Biso   1.000  C
  C112     1.0000 0.52980  0.62880  0.46210  Biso   1.000  C
  H85      1.0000 0.01990  0.92970  0.97900  Biso   1.000  H
  H86      1.0000 0.48010  0.42970  0.52100  Biso   1.000  H
  H87      1.0000 0.98010  0.07030  0.02100  Biso   1.000  H
  H88      1.0000 0.51990  0.57030  0.47900  Biso   1.000  H
  C113     1.0000 0.03560  0.78660  0.99420  Biso   1.000  C
  C114     1.0000 0.46440  0.28660  0.50580  Biso   1.000  C
  C115     1.0000 0.96440  0.21340  0.00580  Biso   1.000  C
  C116     1.0000 0.53560  0.71340  0.49420  Biso   1.000  C
  H89      1.0000 0.03930  0.78830  0.03550  Biso   1.000  H
  H90      1.0000 0.46070  0.28830  0.46450  Biso   1.000  H
  H91      1.0000 0.96070  0.21170  0.96450  Biso   1.000  H
  H92      1.0000 0.53930  0.71170  0.53550  Biso   1.000  H
  C117     1.0000 0.03600  0.69960  0.96510  Biso   1.000  C
  C118     1.0000 0.46400  0.19960  0.53490  Biso   1.000  C
  C119     1.0000 0.96400  0.30040  0.03490  Biso   1.000  C
  C120     1.0000 0.53600  0.80040  0.46510  Biso   1.000  C
  H93      1.0000 0.03270  0.64250  0.98610  Biso   1.000  H
  H94      1.0000 0.46730  0.14250  0.51390  Biso   1.000  H
  H95      1.0000 0.96730  0.35750  0.01390  Biso   1.000  H
  H96      1.0000 0.53270  0.85750  0.48610  Biso   1.000  H
  C121     1.0000 0.96710  0.44820  0.76020  Biso   1.000  C
  C122     1.0000 0.53290  0.94820  0.73980  Biso   1.000  C
  C123     1.0000 0.03290  0.55180  0.23980  Biso   1.000  C
  C124     1.0000 0.46710  0.05180  0.26020  Biso   1.000  C
  H97      1.0000 0.92620  0.47610  0.76070  Biso   1.000  H
  H98      1.0000 0.57380  0.97610  0.73930  Biso   1.000  H
  H99      1.0000 0.07380  0.52390  0.23930  Biso   1.000  H
  H100     1.0000 0.42620  0.02390  0.26070  Biso   1.000  H
  C125     1.0000 0.04510  0.36300  0.73680  Biso   1.000  C
  C126     1.0000 0.45490  0.86300  0.76320  Biso   1.000  C
  C127     1.0000 0.95490  0.63700  0.26320  Biso   1.000  C
  C128     1.0000 0.54510  0.13700  0.23680  Biso   1.000  C
  H101     1.0000 0.06980  0.32220  0.71660  Biso   1.000  H
  H102     1.0000 0.43020  0.82220  0.78340  Biso   1.000  H
  H103     1.0000 0.93020  0.67780  0.28340  Biso   1.000  H
  H104     1.0000 0.56980  0.17780  0.21660  Biso   1.000  H
  C129     1.0000 0.06510  0.41270  0.78420  Biso   1.000  C
  C130     1.0000 0.43490  0.91270  0.71580  Biso   1.000  C
  C131     1.0000 0.93490  0.58730  0.21580  Biso   1.000  C
  C132     1.0000 0.56510  0.08730  0.28420  Biso   1.000  C
  H105     1.0000 0.10690  0.40900  0.80600  Biso   1.000  H
  H106     1.0000 0.39310  0.90900  0.69400  Biso   1.000  H
  H107     1.0000 0.89310  0.59100  0.19400  Biso   1.000  H
  H108     1.0000 0.60690  0.09100  0.30600  Biso   1.000  H
  N1       1.0000 0.61180  0.30240  0.98660  Biso   1.000  N
  N2       1.0000 0.88820  0.80240  0.51340  Biso   1.000  N
  N3       1.0000 0.38820  0.69760  0.01340  Biso   1.000  N
  N4       1.0000 0.11180  0.19760  0.48660  Biso   1.000  N
  N5       1.0000 0.60660  0.33420  0.87280  Biso   1.000  N
  N6       1.0000 0.89340  0.83420  0.62720  Biso   1.000  N
  N7       1.0000 0.39340  0.66580  0.12720  Biso   1.000  N
  N8       1.0000 0.10660  0.16580  0.37280  Biso   1.000  N
  N9       1.0000 0.77960  0.26110  0.11540  Biso   1.000  N
  N10      1.0000 0.72040  0.76110  0.38460  Biso   1.000  N
  N11      1.0000 0.22040  0.73890  0.88460  Biso   1.000  N
  N12      1.0000 0.27960  0.23890  0.61540  Biso   1.000  N
  N13      1.0000 0.80010  0.24470  0.00650  Biso   1.000  N
  N14      1.0000 0.69990  0.74470  0.49350  Biso   1.000  N
  N15      1.0000 0.19990  0.75530  0.99350  Biso   1.000  N
  N16      1.0000 0.30010  0.25530  0.50650  Biso   1.000  N
  N17      1.0000 0.04870  0.67940  0.79120  Biso   1.000  N
  N18      1.0000 0.45130  0.17940  0.70880  Biso   1.000  N
  N19      1.0000 0.95130  0.32060  0.20880  Biso   1.000  N
  N20      1.0000 0.54870  0.82060  0.29120  Biso   1.000  N
  N21      1.0000 0.04110  0.69470  0.90600  Biso   1.000  N
  N22      1.0000 0.45890  0.19470  0.59400  Biso   1.000  N
  N23      1.0000 0.95890  0.30530  0.09400  Biso   1.000  N
  N24      1.0000 0.54110  0.80530  0.40600  Biso   1.000  N
  N25      1.0000 0.01760  0.46930  0.79730  Biso   1.000  N
  N26      1.0000 0.48240  0.96930  0.70270  Biso   1.000  N
  N27      1.0000 0.98240  0.53070  0.20270  Biso   1.000  N
  N28      1.0000 0.51760  0.03070  0.29730  Biso   1.000  N
  N29      1.0000 0.97850  0.38460  0.72210  Biso   1.000  N
  N30      1.0000 0.52150  0.88460  0.77790  Biso   1.000  N
  N31      1.0000 0.02150  0.61540  0.27790  Biso   1.000  N
  N32      1.0000 0.47850  0.11540  0.22210  Biso   1.000  N
  H109     1.0000 0.95120  0.36030  0.69370  Biso   1.000  H
  H110     1.0000 0.54880  0.86030  0.80630  Biso   1.000  H
  H111     1.0000 0.04880  0.63970  0.30630  Biso   1.000  H
  H112     1.0000 0.45120  0.13970  0.19370  Biso   1.000  H
  Na1      1.0000 0.51840  0.95190  0.99420  Biso   1.000  Na
  Na2      1.0000 0.98160  0.45190  0.50580  Biso   1.000  Na
  Na3      1.0000 0.48160  0.04810  0.00580  Biso   1.000  Na
  Na4      1.0000 0.01840  0.54810  0.49420  Biso   1.000  Na
  O137     1.0000 0.54920  0.83100  0.97030  Biso   1.000  O
  O138     1.0000 0.95080  0.33100  0.52970  Biso   1.000  O
  O139     1.0000 0.45080  0.16900  0.02970  Biso   1.000  O
  O140     1.0000 0.04920  0.66900  0.47030  Biso   1.000  O
  O141     1.0000 0.50790  0.94050  0.88870  Biso   1.000  O
  O142     1.0000 0.99210  0.44050  0.61130  Biso   1.000  O
  O143     1.0000 0.49210  0.05950  0.11130  Biso   1.000  O
  O144     1.0000 0.00790  0.55950  0.38870  Biso   1.000  O
  O145     1.0000 0.06290  0.64070  0.10600  Biso   1.000  O
  O146     1.0000 0.43710  0.14070  0.39400  Biso   1.000  O
  O147     1.0000 0.93710  0.35930  0.89400  Biso   1.000  O
  O148     1.0000 0.56290  0.85930  0.60600  Biso   1.000  O
  O149     1.0000 0.16570  0.06120  0.17210  Biso   1.000  O
  O150     1.0000 0.33430  0.56120  0.32790  Biso   1.000  O
  O151     1.0000 0.83430  0.93880  0.82790  Biso   1.000  O
  O152     1.0000 0.66570  0.43880  0.67210  Biso   1.000  O
  O153     1.0000 0.87300  0.82000  0.17410  Biso   1.000  O
  O154     1.0000 0.62700  0.32000  0.32590  Biso   1.000  O
  O155     1.0000 0.12700  0.18000  0.82590  Biso   1.000  O
  O156     1.0000 0.37300  0.68000  0.67410  Biso   1.000  O
  O157     1.0000 0.62090  0.42590  0.19330  Biso   1.000  O
  O158     1.0000 0.87910  0.92590  0.30670  Biso   1.000  O
  O159     1.0000 0.37910  0.57410  0.80670  Biso   1.000  O
  O160     1.0000 0.12090  0.07410  0.69330  Biso   1.000  O
  O161     1.0000 0.05980  0.97400  0.20210  Biso   1.000  O
  O162     1.0000 0.44020  0.47400  0.29790  Biso   1.000  O
  O163     1.0000 0.94020  0.02600  0.79790  Biso   1.000  O
  O164     1.0000 0.55980  0.52600  0.70210  Biso   1.000  O
  O165     1.0000 0.96550  0.03910  0.16520  Biso   1.000  O
  O166     1.0000 0.53450  0.53910  0.33480  Biso   1.000  O
  O167     1.0000 0.03450  0.96090  0.83480  Biso   1.000  O
  O168     1.0000 0.46550  0.46090  0.66520  Biso   1.000  O
