data_image0
_cell_length_a       11.403
_cell_length_b       11.092
_cell_length_c       22.58
_cell_angle_alpha    90
_cell_angle_beta     97.59
_cell_angle_gamma    90

_symmetry_space_group_name_H-M    "P 1"
_symmetry_int_tables_number       1

loop_
  _symmetry_equiv_pos_as_xyz
  'x, y, z'

loop_
  _atom_site_label
  _atom_site_occupancy
  _atom_site_fract_x
  _atom_site_fract_y
  _atom_site_fract_z
  _atom_site_thermal_displace_type
  _atom_site_B_iso_or_equiv
  _atom_site_type_symbol
  Cu1      1.0000 0.24640  0.02090  0.98270  Biso   1.000  Cu
  Cu2      1.0000 0.75360  0.52090  0.51730  Biso   1.000  Cu
  Cu3      1.0000 0.75360  0.97910  0.01730  Biso   1.000  Cu
  Cu4      1.0000 0.24640  0.47910  0.48270  Biso   1.000  Cu
  P1       1.0000 0.08060  0.91740  0.10820  Biso   1.000  P
  P2       1.0000 0.91940  0.41740  0.39180  Biso   1.000  P
  P3       1.0000 0.91940  0.08260  0.89180  Biso   1.000  P
  P4       1.0000 0.08060  0.58260  0.60820  Biso   1.000  P
  P5       1.0000 0.47080  0.45230  0.39310  Biso   1.000  P
  P6       1.0000 0.52920  0.95230  0.10690  Biso   1.000  P
  P7       1.0000 0.52920  0.54770  0.60690  Biso   1.000  P
  P8       1.0000 0.47080  0.04770  0.89310  Biso   1.000  P
  O1       1.0000 0.16800  0.95440  0.06360  Biso   1.000  O
  O2       1.0000 0.83200  0.45440  0.43640  Biso   1.000  O
  O3       1.0000 0.83200  0.04560  0.93640  Biso   1.000  O
  O4       1.0000 0.16800  0.54560  0.56360  Biso   1.000  O
  O5       1.0000 0.94340  0.94930  0.07560  Biso   1.000  O
  O6       1.0000 0.05660  0.44930  0.42440  Biso   1.000  O
  O7       1.0000 0.05660  0.05070  0.92440  Biso   1.000  O
  O8       1.0000 0.94340  0.55070  0.57560  Biso   1.000  O
  O9       1.0000 0.58600  0.48100  0.44760  Biso   1.000  O
  O10      1.0000 0.41400  0.98100  0.05240  Biso   1.000  O
  O11      1.0000 0.41400  0.51900  0.55240  Biso   1.000  O
  O12      1.0000 0.58600  0.01900  0.94760  Biso   1.000  O
  O13      1.0000 0.35600  0.49610  0.41380  Biso   1.000  O
  O14      1.0000 0.64400  0.99610  0.08620  Biso   1.000  O
  O15      1.0000 0.64400  0.50390  0.58620  Biso   1.000  O
  O16      1.0000 0.35600  0.00390  0.91380  Biso   1.000  O
  N1       1.0000 0.25960  0.19910  0.97480  Biso   1.000  N
  N2       1.0000 0.74040  0.69910  0.52520  Biso   1.000  N
  N3       1.0000 0.74040  0.80090  0.02520  Biso   1.000  N
  N4       1.0000 0.25960  0.30090  0.47480  Biso   1.000  N
  N5       1.0000 0.23820  0.84160  0.97400  Biso   1.000  N
  N6       1.0000 0.76180  0.34160  0.52600  Biso   1.000  N
  N7       1.0000 0.76180  0.15840  0.02600  Biso   1.000  N
  N8       1.0000 0.23820  0.65840  0.47400  Biso   1.000  N
  C1       1.0000 0.35300  0.73080  0.26700  Biso   1.000  C
  C2       1.0000 0.64700  0.23080  0.23300  Biso   1.000  C
  C3       1.0000 0.64700  0.26920  0.73300  Biso   1.000  C
  C4       1.0000 0.35300  0.76920  0.76700  Biso   1.000  C
  C5       1.0000 0.14200  0.02600  0.16600  Biso   1.000  C
  C6       1.0000 0.85800  0.52600  0.33400  Biso   1.000  C
  C7       1.0000 0.85800  0.97400  0.83400  Biso   1.000  C
  C8       1.0000 0.14200  0.47400  0.66600  Biso   1.000  C
  C9       1.0000 0.15400  0.14400  0.14900  Biso   1.000  C
  C10      1.0000 0.84600  0.64400  0.35100  Biso   1.000  C
  C11      1.0000 0.84600  0.85600  0.85100  Biso   1.000  C
  C12      1.0000 0.15400  0.35600  0.64900  Biso   1.000  C
  C13      1.0000 0.19200  0.21700  0.18900  Biso   1.000  C
  C14      1.0000 0.80800  0.71700  0.31100  Biso   1.000  C
  C15      1.0000 0.80800  0.78300  0.81100  Biso   1.000  C
  C16      1.0000 0.19200  0.28300  0.68900  Biso   1.000  C
  C17      1.0000 0.23400  0.18101  0.24336  Biso   1.000  C
  C18      1.0000 0.76600  0.68101  0.25664  Biso   1.000  C
  C19      1.0000 0.76600  0.81899  0.75664  Biso   1.000  C
  C20      1.0000 0.23400  0.31899  0.74336  Biso   1.000  C
  C21      1.0000 0.24000  0.05800  0.25800  Biso   1.000  C
  C22      1.0000 0.76000  0.55800  0.24200  Biso   1.000  C
  C23      1.0000 0.76000  0.94200  0.74200  Biso   1.000  C
  C24      1.0000 0.24000  0.44200  0.75800  Biso   1.000  C
  C25      1.0000 0.19700  0.98200  0.21473  Biso   1.000  C
  C26      1.0000 0.80300  0.48200  0.28527  Biso   1.000  C
  C27      1.0000 0.80300  0.01800  0.78527  Biso   1.000  C
  C28      1.0000 0.19700  0.51800  0.71473  Biso   1.000  C
  C29      1.0000 0.11760  0.75820  0.13260  Biso   1.000  C
  C30      1.0000 0.88240  0.25820  0.36740  Biso   1.000  C
  C31      1.0000 0.88240  0.24180  0.86740  Biso   1.000  C
  C32      1.0000 0.11760  0.74180  0.63260  Biso   1.000  C
  C33      1.0000 0.20620  0.71170  0.18370  Biso   1.000  C
  C34      1.0000 0.79380  0.21170  0.31630  Biso   1.000  C
  C35      1.0000 0.79380  0.28830  0.81630  Biso   1.000  C
  C36      1.0000 0.20620  0.78830  0.68370  Biso   1.000  C
  C37      1.0000 0.27600  0.78100  0.21670  Biso   1.000  C
  C38      1.0000 0.72400  0.28100  0.28330  Biso   1.000  C
  C39      1.0000 0.72400  0.21900  0.78330  Biso   1.000  C
  C40      1.0000 0.27600  0.71900  0.71670  Biso   1.000  C
  C41      1.0000 0.23900  0.59360  0.18230  Biso   1.000  C
  C42      1.0000 0.76100  0.09360  0.31770  Biso   1.000  C
  C43      1.0000 0.76100  0.40640  0.81770  Biso   1.000  C
  C44      1.0000 0.23900  0.90640  0.68230  Biso   1.000  C
  C45      1.0000 0.41263  0.28773  0.38193  Biso   1.000  C
  C46      1.0000 0.58737  0.78773  0.11807  Biso   1.000  C
  C47      1.0000 0.58737  0.71227  0.61807  Biso   1.000  C
  C48      1.0000 0.41263  0.21227  0.88193  Biso   1.000  C
  C49      1.0000 0.29123  0.26809  0.37145  Biso   1.000  C
  C50      1.0000 0.70877  0.76809  0.12855  Biso   1.000  C
  C51      1.0000 0.70877  0.73191  0.62855  Biso   1.000  C
  C52      1.0000 0.29123  0.23191  0.87145  Biso   1.000  C
  C53      1.0000 0.24753  0.15073  0.36017  Biso   1.000  C
  C54      1.0000 0.75247  0.65073  0.13983  Biso   1.000  C
  C55      1.0000 0.75247  0.84927  0.63983  Biso   1.000  C
  C56      1.0000 0.24753  0.34927  0.86017  Biso   1.000  C
  C57      1.0000 0.32502  0.05351  0.36365  Biso   1.000  C
  C58      1.0000 0.67498  0.55351  0.13635  Biso   1.000  C
  C59      1.0000 0.67498  0.94649  0.63635  Biso   1.000  C
  C60      1.0000 0.32502  0.44649  0.86365  Biso   1.000  C
  C61      1.0000 0.44498  0.07718  0.37737  Biso   1.000  C
  C62      1.0000 0.55502  0.57718  0.12263  Biso   1.000  C
  C63      1.0000 0.55502  0.92282  0.62263  Biso   1.000  C
  C64      1.0000 0.44498  0.42282  0.87737  Biso   1.000  C
  C65      1.0000 0.47611  0.17800  0.38515  Biso   1.000  C
  C66      1.0000 0.52389  0.67800  0.11485  Biso   1.000  C
  C67      1.0000 0.52389  0.82200  0.61485  Biso   1.000  C
  C68      1.0000 0.47611  0.32200  0.88515  Biso   1.000  C
  C69      1.0000 0.47370  0.53700  0.31950  Biso   1.000  C
  C70      1.0000 0.52630  0.03700  0.18050  Biso   1.000  C
  C71      1.0000 0.52630  0.46300  0.68050  Biso   1.000  C
  C72      1.0000 0.47370  0.96300  0.81950  Biso   1.000  C
  C73      1.0000 0.37040  0.60280  0.27470  Biso   1.000  C
  C74      1.0000 0.62960  0.10280  0.22530  Biso   1.000  C
  C75      1.0000 0.62960  0.39720  0.72530  Biso   1.000  C
  C76      1.0000 0.37040  0.89720  0.77470  Biso   1.000  C
  C77      1.0000 0.32500  0.53990  0.22600  Biso   1.000  C
  C78      1.0000 0.67500  0.03990  0.27400  Biso   1.000  C
  C79      1.0000 0.67500  0.46010  0.77400  Biso   1.000  C
  C80      1.0000 0.32500  0.96010  0.72600  Biso   1.000  C
  C81      1.0000 0.36500  0.26970  0.97190  Biso   1.000  C
  C82      1.0000 0.63500  0.76970  0.52810  Biso   1.000  C
  C83      1.0000 0.63500  0.73030  0.02810  Biso   1.000  C
  C84      1.0000 0.36500  0.23030  0.47190  Biso   1.000  C
  C85      1.0000 0.17900  0.75590  0.00460  Biso   1.000  C
  C86      1.0000 0.82100  0.25590  0.49540  Biso   1.000  C
  C87      1.0000 0.82100  0.24410  0.99540  Biso   1.000  C
  C88      1.0000 0.17900  0.74410  0.50460  Biso   1.000  C
  C89      1.0000 0.36670  0.39480  0.96810  Biso   1.000  C
  C90      1.0000 0.63330  0.89480  0.53190  Biso   1.000  C
  C91      1.0000 0.63330  0.60520  0.03190  Biso   1.000  C
  C92      1.0000 0.36670  0.10520  0.46810  Biso   1.000  C
  C93      1.0000 0.19000  0.63030  0.99870  Biso   1.000  C
  C94      1.0000 0.81000  0.13030  0.50130  Biso   1.000  C
  C95      1.0000 0.81000  0.36970  0.00130  Biso   1.000  C
  C96      1.0000 0.19000  0.86970  0.49870  Biso   1.000  C
  C97      1.0000 0.16110  0.40040  0.96550  Biso   1.000  C
  C98      1.0000 0.83890  0.90040  0.53450  Biso   1.000  C
  C99      1.0000 0.83890  0.59960  0.03450  Biso   1.000  C
  C100     1.0000 0.16110  0.09960  0.46550  Biso   1.000  C
  C101     1.0000 0.34070  0.67040  0.93840  Biso   1.000  C
  C102     1.0000 0.65930  0.17040  0.56160  Biso   1.000  C
  C103     1.0000 0.65930  0.32960  0.06160  Biso   1.000  C
  C104     1.0000 0.34070  0.82960  0.43840  Biso   1.000  C
  C105     1.0000 0.16090  0.27380  0.97210  Biso   1.000  C
  C106     1.0000 0.83910  0.77380  0.52790  Biso   1.000  C
  C107     1.0000 0.83910  0.72620  0.02790  Biso   1.000  C
  C108     1.0000 0.16090  0.22620  0.47210  Biso   1.000  C
  C109     1.0000 0.31600  0.79480  0.93800  Biso   1.000  C
  C110     1.0000 0.68400  0.29480  0.56200  Biso   1.000  C
  C111     1.0000 0.68400  0.20520  0.06200  Biso   1.000  C
  C112     1.0000 0.31600  0.70520  0.43800  Biso   1.000  C
  C113     1.0000 0.26650  0.46040  0.96180  Biso   1.000  C
  C114     1.0000 0.73350  0.96040  0.53820  Biso   1.000  C
  C115     1.0000 0.73350  0.53960  0.03820  Biso   1.000  C
  C116     1.0000 0.26650  0.03960  0.46180  Biso   1.000  C
  C117     1.0000 0.26760  0.58640  0.96160  Biso   1.000  C
  C118     1.0000 0.73240  0.08640  0.53840  Biso   1.000  C
  C119     1.0000 0.73240  0.41360  0.03840  Biso   1.000  C
  C120     1.0000 0.26760  0.91360  0.46160  Biso   1.000  C
