data_image0
_cell_length_a       11.456
_cell_length_b       11.073
_cell_length_c       12.449
_cell_angle_alpha    90
_cell_angle_beta     112.05
_cell_angle_gamma    90

_symmetry_space_group_name_H-M    "P 1"
_symmetry_int_tables_number       1

loop_
  _symmetry_equiv_pos_as_xyz
  'x, y, z'

loop_
  _atom_site_label
  _atom_site_occupancy
  _atom_site_fract_x
  _atom_site_fract_y
  _atom_site_fract_z
  _atom_site_thermal_displace_type
  _atom_site_B_iso_or_equiv
  _atom_site_type_symbol
  Cu1      1.0000 0.75000  0.25395  0.75000  Biso   1.000  Cu
  Cu2      1.0000 0.25000  0.74605  0.25000  Biso   1.000  Cu
  P1       1.0000 0.01767  0.23576  0.72527  Biso   1.000  P
  P2       1.0000 0.48233  0.23576  0.77473  Biso   1.000  P
  P3       1.0000 0.98233  0.76424  0.27473  Biso   1.000  P
  P4       1.0000 0.51767  0.76424  0.22527  Biso   1.000  P
  N1       1.0000 0.75000  0.43660  0.75000  Biso   1.000  N
  N2       1.0000 0.25000  0.56340  0.25000  Biso   1.000  N
  N3       1.0000 0.75000  0.07310  0.75000  Biso   1.000  N
  N4       1.0000 0.25000  0.92690  0.25000  Biso   1.000  N
  O1       1.0000 0.08910  0.30900  0.83100  Biso   1.000  O
  O2       1.0000 0.41090  0.30900  0.66900  Biso   1.000  O
  O3       1.0000 0.91090  0.69100  0.16900  Biso   1.000  O
  O4       1.0000 0.58910  0.69100  0.33100  Biso   1.000  O
  O5       1.0000 0.87580  0.24980  0.67690  Biso   1.000  O
  O6       1.0000 0.62420  0.24980  0.82310  Biso   1.000  O
  O7       1.0000 0.12420  0.75020  0.32310  Biso   1.000  O
  O8       1.0000 0.37580  0.75020  0.17690  Biso   1.000  O
  O9       1.0000 0.92880  0.27240  0.95040  Biso   1.000  O
  O10      1.0000 0.57120  0.27240  0.54960  Biso   1.000  O
  O11      1.0000 0.07120  0.72760  0.04960  Biso   1.000  O
  O12      1.0000 0.42880  0.72760  0.45040  Biso   1.000  O
  H1       1.0000 0.94100  0.32000  0.99600  Biso   1.000  H
  H2       1.0000 0.55900  0.32000  0.50400  Biso   1.000  H
  H3       1.0000 0.05900  0.68000  0.00400  Biso   1.000  H
  H4       1.0000 0.44100  0.68000  0.49600  Biso   1.000  H
  H5       1.0000 0.98600  0.27800  0.93500  Biso   1.000  H
  H6       1.0000 0.51400  0.27800  0.56500  Biso   1.000  H
  H7       1.0000 0.01400  0.72200  0.06500  Biso   1.000  H
  H8       1.0000 0.48600  0.72200  0.43500  Biso   1.000  H
  O13      1.0000 0.06390  0.55020  0.86940  Biso   1.000  O
  O14      1.0000 0.43610  0.55020  0.63060  Biso   1.000  O
  O15      1.0000 0.93610  0.44980  0.13060  Biso   1.000  O
  O16      1.0000 0.56390  0.44980  0.36940  Biso   1.000  O
  H9       1.0000 0.07300  0.48600  0.85500  Biso   1.000  H
  H10      1.0000 0.42700  0.48600  0.64500  Biso   1.000  H
  H11      1.0000 0.92700  0.51400  0.14500  Biso   1.000  H
  H12      1.0000 0.57300  0.51400  0.35500  Biso   1.000  H
  H13      1.0000 0.09100  0.58600  0.92400  Biso   1.000  H
  H14      1.0000 0.40900  0.58600  0.57600  Biso   1.000  H
  H15      1.0000 0.90900  0.41400  0.07600  Biso   1.000  H
  H16      1.0000 0.59100  0.41400  0.42400  Biso   1.000  H
  C1       1.0000 0.74350  0.49900  0.83970  Biso   1.000  C
  C2       1.0000 0.75650  0.49900  0.66030  Biso   1.000  C
  C3       1.0000 0.25650  0.50100  0.16030  Biso   1.000  C
  C4       1.0000 0.24350  0.50100  0.33970  Biso   1.000  C
  H17      1.0000 0.73790  0.45690  0.90220  Biso   1.000  H
  H18      1.0000 0.76210  0.45690  0.59780  Biso   1.000  H
  H19      1.0000 0.26210  0.54310  0.09780  Biso   1.000  H
  H20      1.0000 0.23790  0.54310  0.40220  Biso   1.000  H
  C5       1.0000 0.74480  0.62300  0.84280  Biso   1.000  C
  C6       1.0000 0.75520  0.62300  0.65720  Biso   1.000  C
  C7       1.0000 0.25520  0.37700  0.15720  Biso   1.000  C
  C8       1.0000 0.24480  0.37700  0.34280  Biso   1.000  C
  H21      1.0000 0.74220  0.66330  0.90740  Biso   1.000  H
  H22      1.0000 0.75780  0.66330  0.59260  Biso   1.000  H
  H23      1.0000 0.25780  0.33670  0.09260  Biso   1.000  H
  H24      1.0000 0.24220  0.33670  0.40740  Biso   1.000  H
  C9       1.0000 0.75000  0.68780  0.75000  Biso   1.000  C
  C10      1.0000 0.25000  0.31220  0.25000  Biso   1.000  C
  C11      1.0000 0.75000  0.82300  0.75000  Biso   1.000  C
  C12      1.0000 0.25000  0.17700  0.25000  Biso   1.000  C
  C13      1.0000 0.82280  0.88720  0.84780  Biso   1.000  C
  C14      1.0000 0.67720  0.88720  0.65220  Biso   1.000  C
  C15      1.0000 0.17720  0.11280  0.15220  Biso   1.000  C
  C16      1.0000 0.32280  0.11280  0.34780  Biso   1.000  C
  H25      1.0000 0.87190  0.84700  0.91520  Biso   1.000  H
  H26      1.0000 0.62810  0.84700  0.58480  Biso   1.000  H
  H27      1.0000 0.12810  0.15300  0.08480  Biso   1.000  H
  H28      1.0000 0.37190  0.15300  0.41520  Biso   1.000  H
  C17      1.0000 0.82120  0.01130  0.84360  Biso   1.000  C
  C18      1.0000 0.67880  0.01130  0.65640  Biso   1.000  C
  C19      1.0000 0.17880  0.98870  0.15640  Biso   1.000  C
  C20      1.0000 0.32120  0.98870  0.34360  Biso   1.000  C
  H29      1.0000 0.87190  0.05390  0.90880  Biso   1.000  H
  H30      1.0000 0.62810  0.05390  0.59120  Biso   1.000  H
  H31      1.0000 0.12810  0.94610  0.09120  Biso   1.000  H
  H32      1.0000 0.37190  0.94610  0.40880  Biso   1.000  H
  C21      1.0000 0.05760  0.07810  0.75510  Biso   1.000  C
  C22      1.0000 0.44240  0.07810  0.74490  Biso   1.000  C
  C23      1.0000 0.94240  0.92190  0.24490  Biso   1.000  C
  C24      1.0000 0.55760  0.92190  0.25510  Biso   1.000  C
  C25      1.0000 0.15330  0.04130  0.85680  Biso   1.000  C
  C26      1.0000 0.34670  0.04130  0.64320  Biso   1.000  C
  C27      1.0000 0.84670  0.95870  0.14320  Biso   1.000  C
  C28      1.0000 0.65330  0.95870  0.35680  Biso   1.000  C
  H33      1.0000 0.19740  0.09870  0.91160  Biso   1.000  H
  H34      1.0000 0.30260  0.09870  0.58840  Biso   1.000  H
  H35      1.0000 0.80260  0.90130  0.08840  Biso   1.000  H
  H36      1.0000 0.69740  0.90130  0.41160  Biso   1.000  H
  C29      1.0000 0.18390  0.91980  0.87790  Biso   1.000  C
  C30      1.0000 0.31610  0.91980  0.62210  Biso   1.000  C
  C31      1.0000 0.81610  0.08020  0.12210  Biso   1.000  C
  C32      1.0000 0.68390  0.08020  0.37790  Biso   1.000  C
  H37      1.0000 0.24760  0.89650  0.94690  Biso   1.000  H
  H38      1.0000 0.25240  0.89650  0.55310  Biso   1.000  H
  H39      1.0000 0.75240  0.10350  0.05310  Biso   1.000  H
  H40      1.0000 0.74760  0.10350  0.44690  Biso   1.000  H
  C33      1.0000 0.12130  0.83460  0.79810  Biso   1.000  C
  C34      1.0000 0.37870  0.83460  0.70190  Biso   1.000  C
  C35      1.0000 0.87870  0.16540  0.20190  Biso   1.000  C
  C36      1.0000 0.62130  0.16540  0.29810  Biso   1.000  C
  H41      1.0000 0.14330  0.75360  0.81210  Biso   1.000  H
  H42      1.0000 0.35670  0.75360  0.68790  Biso   1.000  H
  H43      1.0000 0.85670  0.24640  0.18790  Biso   1.000  H
  H44      1.0000 0.64330  0.24640  0.31210  Biso   1.000  H
  C37      1.0000 0.02550  0.86820  0.69650  Biso   1.000  C
  C38      1.0000 0.47450  0.86820  0.80350  Biso   1.000  C
  C39      1.0000 0.97450  0.13180  0.30350  Biso   1.000  C
  C40      1.0000 0.52550  0.13180  0.19650  Biso   1.000  C
  H45      1.0000 0.98110  0.81010  0.64280  Biso   1.000  H
  H46      1.0000 0.51890  0.81010  0.85720  Biso   1.000  H
  H47      1.0000 0.01890  0.18990  0.35720  Biso   1.000  H
  H48      1.0000 0.48110  0.18990  0.14280  Biso   1.000  H
  C41      1.0000 0.99620  0.98950  0.67520  Biso   1.000  C
  C42      1.0000 0.50380  0.98950  0.82480  Biso   1.000  C
  C43      1.0000 0.00380  0.01050  0.32480  Biso   1.000  C
  C44      1.0000 0.49620  0.01050  0.17520  Biso   1.000  C
  H49      1.0000 0.93360  0.01210  0.60540  Biso   1.000  H
  H50      1.0000 0.56640  0.01210  0.89460  Biso   1.000  H
  H51      1.0000 0.06640  0.98790  0.39460  Biso   1.000  H
  H52      1.0000 0.43360  0.98790  0.10540  Biso   1.000  H
  C45      1.0000 0.07040  0.26450  0.60770  Biso   1.000  C
  C46      1.0000 0.42960  0.26450  0.89230  Biso   1.000  C
  C47      1.0000 0.92960  0.73550  0.39230  Biso   1.000  C
  C48      1.0000 0.57040  0.73550  0.10770  Biso   1.000  C
  H53      1.0000 0.16150  0.25770  0.63710  Biso   1.000  H
  H54      1.0000 0.33850  0.25770  0.86290  Biso   1.000  H
  H55      1.0000 0.83850  0.74230  0.36290  Biso   1.000  H
  H56      1.0000 0.66150  0.74230  0.13710  Biso   1.000  H
  H57      1.0000 0.03630  0.20240  0.54920  Biso   1.000  H
  H58      1.0000 0.46370  0.20240  0.95080  Biso   1.000  H
  H59      1.0000 0.96370  0.79760  0.45080  Biso   1.000  H
  H60      1.0000 0.53630  0.79760  0.04920  Biso   1.000  H
  C49      1.0000 0.03340  0.38620  0.55100  Biso   1.000  C
  C50      1.0000 0.46660  0.38620  0.94900  Biso   1.000  C
  C51      1.0000 0.96660  0.61380  0.44900  Biso   1.000  C
  C52      1.0000 0.53340  0.61380  0.05100  Biso   1.000  C
  C53      1.0000 0.91620  0.40520  0.46540  Biso   1.000  C
  C54      1.0000 0.58380  0.40520  0.03460  Biso   1.000  C
  C55      1.0000 0.08380  0.59480  0.53460  Biso   1.000  C
  C56      1.0000 0.41620  0.59480  0.96540  Biso   1.000  C
  H61      1.0000 0.85880  0.34200  0.44150  Biso   1.000  H
  H62      1.0000 0.64120  0.34200  0.05850  Biso   1.000  H
  H63      1.0000 0.14120  0.65800  0.55850  Biso   1.000  H
  H64      1.0000 0.35880  0.65800  0.94150  Biso   1.000  H
  C57      1.0000 0.88410  0.51810  0.41530  Biso   1.000  C
  C58      1.0000 0.61590  0.51810  0.08470  Biso   1.000  C
  C59      1.0000 0.11590  0.48190  0.58470  Biso   1.000  C
  C60      1.0000 0.38410  0.48190  0.91530  Biso   1.000  C
  H65      1.0000 0.80500  0.52950  0.35750  Biso   1.000  H
  H66      1.0000 0.69500  0.52950  0.14250  Biso   1.000  H
  H67      1.0000 0.19500  0.47050  0.64250  Biso   1.000  H
  H68      1.0000 0.30500  0.47050  0.85750  Biso   1.000  H
