data_image0
_cell_length_a       11.351
_cell_length_b       11.071
_cell_length_c       22.53
_cell_angle_alpha    90
_cell_angle_beta     97.45
_cell_angle_gamma    90

_symmetry_space_group_name_H-M    "P 1"
_symmetry_int_tables_number       1

loop_
  _symmetry_equiv_pos_as_xyz
  'x, y, z'

loop_
  _atom_site_label
  _atom_site_occupancy
  _atom_site_fract_x
  _atom_site_fract_y
  _atom_site_fract_z
  _atom_site_thermal_displace_type
  _atom_site_B_iso_or_equiv
  _atom_site_type_symbol
  Cu1      1.0000 0.00000  0.50000  0.50000  Biso   1.000  Cu
  Cu2      1.0000 0.00000  0.00000  0.00000  Biso   1.000  Cu
  Cu3      1.0000 0.50000  0.50000  0.50000  Biso   1.000  Cu
  Cu4      1.0000 0.50000  0.00000  0.00000  Biso   1.000  Cu
  P1       1.0000 0.71910  0.49830  0.37070  Biso   1.000  P
  P2       1.0000 0.28090  0.99830  0.12930  Biso   1.000  P
  P3       1.0000 0.28090  0.50170  0.62930  Biso   1.000  P
  P4       1.0000 0.71910  0.00170  0.87070  Biso   1.000  P
  P5       1.0000 0.77110  0.91030  0.10900  Biso   1.000  P
  P6       1.0000 0.22890  0.41030  0.39100  Biso   1.000  P
  P7       1.0000 0.22890  0.08970  0.89100  Biso   1.000  P
  P8       1.0000 0.77110  0.58970  0.60900  Biso   1.000  P
  O1       1.0000 0.84400  0.44500  0.41940  Biso   1.000  O
  O2       1.0000 0.15600  0.94500  0.08060  Biso   1.000  O
  O3       1.0000 0.15600  0.55500  0.58060  Biso   1.000  O
  O4       1.0000 0.84400  0.05500  0.91940  Biso   1.000  O
  O5       1.0000 0.64300  0.53000  0.43010  Biso   1.000  O
  O6       1.0000 0.35700  0.03000  0.06990  Biso   1.000  O
  O7       1.0000 0.35700  0.47000  0.56990  Biso   1.000  O
  O8       1.0000 0.64300  0.97000  0.93010  Biso   1.000  O
  O9       1.0000 0.85620  0.94100  0.06100  Biso   1.000  O
  O10      1.0000 0.14380  0.44100  0.43900  Biso   1.000  O
  O11      1.0000 0.14380  0.05900  0.93900  Biso   1.000  O
  O12      1.0000 0.85620  0.55900  0.56100  Biso   1.000  O
  O13      1.0000 0.64480  0.98900  0.08890  Biso   1.000  O
  O14      1.0000 0.35520  0.48900  0.41110  Biso   1.000  O
  O15      1.0000 0.35520  0.01100  0.91110  Biso   1.000  O
  O16      1.0000 0.64480  0.51100  0.58890  Biso   1.000  O
  C1       1.0000 0.82700  0.18500  0.21820  Biso   1.000  C
  C2       1.0000 0.17300  0.68500  0.28180  Biso   1.000  C
  C3       1.0000 0.17300  0.81500  0.78180  Biso   1.000  C
  C4       1.0000 0.82700  0.31500  0.71820  Biso   1.000  C
  C5       1.0000 0.74970  0.62230  0.32070  Biso   1.000  C
  C6       1.0000 0.25030  0.12230  0.17930  Biso   1.000  C
  C7       1.0000 0.25030  0.37770  0.67930  Biso   1.000  C
  C8       1.0000 0.74970  0.87770  0.82070  Biso   1.000  C
  C9       1.0000 0.74600  0.74050  0.33830  Biso   1.000  C
  C10      1.0000 0.25400  0.24050  0.16170  Biso   1.000  C
  C11      1.0000 0.25400  0.25950  0.66170  Biso   1.000  C
  C12      1.0000 0.74600  0.75950  0.83830  Biso   1.000  C
  C13      1.0000 0.76000  0.83400  0.29870  Biso   1.000  C
  C14      1.0000 0.24000  0.33400  0.20130  Biso   1.000  C
  C15      1.0000 0.24000  0.16600  0.70130  Biso   1.000  C
  C16      1.0000 0.76000  0.66600  0.79870  Biso   1.000  C
  C17      1.0000 0.74200  0.81300  0.24030  Biso   1.000  C
  C18      1.0000 0.25800  0.31300  0.25970  Biso   1.000  C
  C19      1.0000 0.25800  0.18700  0.75970  Biso   1.000  C
  C20      1.0000 0.74200  0.68700  0.74030  Biso   1.000  C
  C21      1.0000 0.74600  0.69800  0.22030  Biso   1.000  C
  C22      1.0000 0.25400  0.19800  0.27970  Biso   1.000  C
  C23      1.0000 0.25400  0.30200  0.77970  Biso   1.000  C
  C24      1.0000 0.74600  0.80200  0.72030  Biso   1.000  C
  C25      1.0000 0.74900  0.60100  0.26070  Biso   1.000  C
  C26      1.0000 0.25100  0.10100  0.23930  Biso   1.000  C
  C27      1.0000 0.25100  0.39900  0.73930  Biso   1.000  C
  C28      1.0000 0.74900  0.89900  0.76070  Biso   1.000  C
  C29      1.0000 0.63400  0.36580  0.32290  Biso   1.000  C
  C30      1.0000 0.36600  0.86580  0.17710  Biso   1.000  C
  C31      1.0000 0.36600  0.63420  0.67710  Biso   1.000  C
  C32      1.0000 0.63400  0.13420  0.82290  Biso   1.000  C
  C33      1.0000 0.69400  0.25650  0.28650  Biso   1.000  C
  C34      1.0000 0.30600  0.75650  0.21350  Biso   1.000  C
  C35      1.0000 0.30600  0.74350  0.71350  Biso   1.000  C
  C36      1.0000 0.69400  0.24350  0.78650  Biso   1.000  C
  C37      1.0000 0.77500  0.28210  0.24840  Biso   1.000  C
  C38      1.0000 0.22500  0.78210  0.25160  Biso   1.000  C
  C39      1.0000 0.22500  0.71790  0.75160  Biso   1.000  C
  C40      1.0000 0.77500  0.21790  0.74840  Biso   1.000  C
  C41      1.0000 0.68300  0.13540  0.30270  Biso   1.000  C
  C42      1.0000 0.31700  0.63540  0.19730  Biso   1.000  C
  C43      1.0000 0.31700  0.86460  0.69730  Biso   1.000  C
  C44      1.0000 0.68300  0.36460  0.80270  Biso   1.000  C
  C45      1.0000 0.74090  0.75220  0.10710  Biso   1.000  C
  C46      1.0000 0.25910  0.25220  0.39290  Biso   1.000  C
  C47      1.0000 0.25910  0.24780  0.89290  Biso   1.000  C
  C48      1.0000 0.74090  0.74780  0.60710  Biso   1.000  C
  C49      1.0000 0.62850  0.70910  0.10710  Biso   1.000  C
  C50      1.0000 0.37150  0.20910  0.39290  Biso   1.000  C
  C51      1.0000 0.37150  0.29090  0.89290  Biso   1.000  C
  C52      1.0000 0.62850  0.79090  0.60710  Biso   1.000  C
  C53      1.0000 0.60610  0.58680  0.10710  Biso   1.000  C
  C54      1.0000 0.39390  0.08680  0.39290  Biso   1.000  C
  C55      1.0000 0.39390  0.41320  0.89290  Biso   1.000  C
  C56      1.0000 0.60610  0.91320  0.60710  Biso   1.000  C
  C57      1.0000 0.69800  0.50910  0.10710  Biso   1.000  C
  C58      1.0000 0.30200  0.00910  0.39290  Biso   1.000  C
  C59      1.0000 0.30200  0.49090  0.89290  Biso   1.000  C
  C60      1.0000 0.69800  0.99090  0.60710  Biso   1.000  C
  C61      1.0000 0.81010  0.54960  0.10710  Biso   1.000  C
  C62      1.0000 0.18990  0.04960  0.39290  Biso   1.000  C
  C63      1.0000 0.18990  0.45040  0.89290  Biso   1.000  C
  C64      1.0000 0.81010  0.95040  0.60710  Biso   1.000  C
  C65      1.0000 0.83020  0.67120  0.10710  Biso   1.000  C
  C66      1.0000 0.16980  0.17120  0.39290  Biso   1.000  C
  C67      1.0000 0.16980  0.32880  0.89290  Biso   1.000  C
  C68      1.0000 0.83020  0.82880  0.60710  Biso   1.000  C
  C69      1.0000 0.85060  0.95290  0.19130  Biso   1.000  C
  C70      1.0000 0.14940  0.45290  0.30870  Biso   1.000  C
  C71      1.0000 0.14940  0.04710  0.80870  Biso   1.000  C
  C72      1.0000 0.85060  0.54710  0.69130  Biso   1.000  C
  C73      1.0000 0.78910  0.06520  0.22440  Biso   1.000  C
  C74      1.0000 0.21090  0.56520  0.27560  Biso   1.000  C
  C75      1.0000 0.21090  0.93480  0.77560  Biso   1.000  C
  C76      1.0000 0.78910  0.43480  0.72440  Biso   1.000  C
  C77      1.0000 0.71900  0.04050  0.26660  Biso   1.000  C
  C78      1.0000 0.28100  0.54050  0.23340  Biso   1.000  C
  C79      1.0000 0.28100  0.95950  0.73340  Biso   1.000  C
  C80      1.0000 0.71900  0.45950  0.76660  Biso   1.000  C
  N1       1.0000 0.99437  0.67796  0.49166  Biso   1.000  N
  N2       1.0000 0.00563  0.17796  0.00834  Biso   1.000  N
  N3       1.0000 0.00563  0.32204  0.50834  Biso   1.000  N
  N4       1.0000 0.99437  0.82204  0.99166  Biso   1.000  N
  C81      1.0000 0.09823  0.74318  0.48239  Biso   1.000  C
  C82      1.0000 0.90177  0.24318  0.01761  Biso   1.000  C
  C83      1.0000 0.90177  0.25682  0.51761  Biso   1.000  C
  C84      1.0000 0.09823  0.75682  0.98239  Biso   1.000  C
  C85      1.0000 0.09869  0.87514  0.48425  Biso   1.000  C
  C86      1.0000 0.90131  0.37514  0.01575  Biso   1.000  C
  C87      1.0000 0.90131  0.12486  0.51575  Biso   1.000  C
  C88      1.0000 0.09869  0.62486  0.98425  Biso   1.000  C
  C89      1.0000 0.89354  0.87189  0.49315  Biso   1.000  C
  C90      1.0000 0.10646  0.37189  0.00685  Biso   1.000  C
  C91      1.0000 0.10646  0.12811  0.50685  Biso   1.000  C
  C92      1.0000 0.89354  0.62811  0.99315  Biso   1.000  C
  C93      1.0000 0.89381  0.73987  0.49304  Biso   1.000  C
  C94      1.0000 0.10619  0.23987  0.00696  Biso   1.000  C
  C95      1.0000 0.10619  0.26013  0.50696  Biso   1.000  C
  C96      1.0000 0.89381  0.76013  0.99304  Biso   1.000  C
  N5       1.0000 0.50004  0.68531  0.50781  Biso   1.000  N
  N6       1.0000 0.49996  0.18531  0.99219  Biso   1.000  N
  N7       1.0000 0.49996  0.31469  0.49219  Biso   1.000  N
  N8       1.0000 0.50004  0.81469  0.00781  Biso   1.000  N
  C97      1.0000 0.60723  0.75188  0.50781  Biso   1.000  C
  C98      1.0000 0.39277  0.25188  0.99219  Biso   1.000  C
  C99      1.0000 0.39277  0.24812  0.49219  Biso   1.000  C
  C100     1.0000 0.60723  0.74812  0.00781  Biso   1.000  C
  C101     1.0000 0.60441  0.88364  0.50781  Biso   1.000  C
  C102     1.0000 0.39559  0.38364  0.99219  Biso   1.000  C
  C103     1.0000 0.39559  0.11636  0.49219  Biso   1.000  C
  C104     1.0000 0.60441  0.61636  0.00781  Biso   1.000  C
  C105     1.0000 0.39993  0.88511  0.50781  Biso   1.000  C
  C106     1.0000 0.60007  0.38511  0.99219  Biso   1.000  C
  C107     1.0000 0.60007  0.11489  0.49219  Biso   1.000  C
  C108     1.0000 0.39993  0.61489  0.00781  Biso   1.000  C
  C109     1.0000 0.39938  0.75125  0.50781  Biso   1.000  C
  C110     1.0000 0.60062  0.25125  0.99219  Biso   1.000  C
  C111     1.0000 0.60062  0.24875  0.49219  Biso   1.000  C
  C112     1.0000 0.39938  0.74875  0.00781  Biso   1.000  C
  C113     1.0000 0.99202  0.93707  0.49374  Biso   1.000  C
  C114     1.0000 0.00798  0.43707  0.00626  Biso   1.000  C
  C115     1.0000 0.00798  0.06293  0.50626  Biso   1.000  C
  C116     1.0000 0.99202  0.56293  0.99374  Biso   1.000  C
  C117     1.0000 0.49832  0.94395  0.50781  Biso   1.000  C
  C118     1.0000 0.50168  0.44395  0.99219  Biso   1.000  C
  C119     1.0000 0.50168  0.05605  0.49219  Biso   1.000  C
  C120     1.0000 0.49832  0.55605  0.00781  Biso   1.000  C
