data_image0
_cell_length_a       6.0838
_cell_length_b       10.1516
_cell_length_c       10.6888
_cell_angle_alpha    111.677
_cell_angle_beta     100.962
_cell_angle_gamma    105.125

_symmetry_space_group_name_H-M    "P 1"
_symmetry_int_tables_number       1

loop_
  _symmetry_equiv_pos_as_xyz
  'x, y, z'

loop_
  _atom_site_label
  _atom_site_occupancy
  _atom_site_fract_x
  _atom_site_fract_y
  _atom_site_fract_z
  _atom_site_thermal_displace_type
  _atom_site_B_iso_or_equiv
  _atom_site_type_symbol
  Cu1      1.0000 0.50000  0.00000  0.00000  Biso   1.000  Cu
  O1       1.0000 0.36690  0.07160  0.15170  Biso   1.000  O
  O2       1.0000 0.63310  0.92840  0.84830  Biso   1.000  O
  N1       1.0000 0.66980  0.92910  0.12440  Biso   1.000  N
  N2       1.0000 0.33020  0.07090  0.87560  Biso   1.000  N
  N3       1.0000 0.83680  0.83180  0.32150  Biso   1.000  N
  N4       1.0000 0.16320  0.16820  0.67850  Biso   1.000  N
  C1       1.0000 0.81050  0.84840  0.10320  Biso   1.000  C
  C2       1.0000 0.18950  0.15160  0.89680  Biso   1.000  C
  H1       1.0000 0.85620  0.82530  0.01960  Biso   1.000  H
  H2       1.0000 0.14380  0.17470  0.98040  Biso   1.000  H
  O3       1.0000 0.39720  0.09390  0.37170  Biso   1.000  O
  O4       1.0000 0.60280  0.90610  0.62830  Biso   1.000  O
  C3       1.0000 0.61170  0.96280  0.24500  Biso   1.000  C
  C4       1.0000 0.38830  0.03720  0.75500  Biso   1.000  C
  C5       1.0000 0.89330  0.79670  0.19960  Biso   1.000  C
  C6       1.0000 0.10670  0.20330  0.80040  Biso   1.000  C
  C7       1.0000 0.44780  0.05110  0.25990  Biso   1.000  C
  C8       1.0000 0.55220  0.94890  0.74010  Biso   1.000  C
  C9       1.0000 0.69670  0.91490  0.34260  Biso   1.000  C
  C10      1.0000 0.30330  0.08510  0.65740  Biso   1.000  C
  H3       1.0000 0.65490  0.94160  0.42740  Biso   1.000  H
  H4       1.0000 0.34510  0.05840  0.57260  Biso   1.000  H
  C11      1.0000 0.03720  0.69620  0.17230  Biso   1.000  C
  C12      1.0000 0.96280  0.30380  0.82770  Biso   1.000  C
  H5       1.0000 0.14640  0.71590  0.26270  Biso   1.000  H
  H6       1.0000 0.85360  0.28410  0.73730  Biso   1.000  H
  H7       1.0000 0.13070  0.71740  0.11210  Biso   1.000  H
  H8       1.0000 0.86930  0.28260  0.88790  Biso   1.000  H
  H9       1.0000 0.92870  0.58940  0.12400  Biso   1.000  H
  H10      1.0000 0.07130  0.41060  0.87600  Biso   1.000  H
  Cu2      1.0000 0.75896  0.51785  0.50287  Biso   1.000  Cu
  Cu3      1.0000 0.24104  0.48215  0.49713  Biso   1.000  Cu
  N5       1.0000 0.94450  0.46860  0.36470  Biso   1.000  N
  N6       1.0000 0.05550  0.53140  0.63530  Biso   1.000  N
  O5       1.0000 0.90880  0.76060  0.56020  Biso   1.000  O
  O6       1.0000 0.09120  0.23940  0.43980  Biso   1.000  O
  H11      1.0000 0.90870  0.77370  0.48730  Biso   1.000  H
  H12      1.0000 0.09130  0.22630  0.51270  Biso   1.000  H
  H13      1.0000 0.81640  0.79940  0.59600  Biso   1.000  H
  H14      1.0000 0.18360  0.20060  0.40400  Biso   1.000  H
  N7       1.0000 0.55930  0.53600  0.63370  Biso   1.000  N
  N8       1.0000 0.44070  0.46400  0.36630  Biso   1.000  N
  N9       1.0000 0.87310  0.36840  0.24240  Biso   1.000  N
  N10      1.0000 0.12690  0.63160  0.75760  Biso   1.000  N
  N11      1.0000 0.58210  0.51810  0.74100  Biso   1.000  N
  N12      1.0000 0.41790  0.48190  0.25900  Biso   1.000  N
  N13      1.0000 0.81150  0.27810  0.12710  Biso   1.000  N
  N14      1.0000 0.18850  0.72190  0.87290  Biso   1.000  N
  N15      1.0000 0.60490  0.50540  0.84400  Biso   1.000  N
  N16      1.0000 0.39510  0.49460  0.15600  Biso   1.000  N
