data_image0
_cell_length_a       12.3822
_cell_length_b       6.8517
_cell_length_c       13.5239
_cell_angle_alpha    90
_cell_angle_beta     114.498
_cell_angle_gamma    90

_symmetry_space_group_name_H-M    "P 1"
_symmetry_int_tables_number       1

loop_
  _symmetry_equiv_pos_as_xyz
  'x, y, z'

loop_
  _atom_site_label
  _atom_site_occupancy
  _atom_site_fract_x
  _atom_site_fract_y
  _atom_site_fract_z
  _atom_site_thermal_displace_type
  _atom_site_B_iso_or_equiv
  _atom_site_type_symbol
  Cu1      1.0000 0.99508  0.87406  0.76100  Biso   1.000  Cu
  Cu2      1.0000 0.00492  0.37406  0.73900  Biso   1.000  Cu
  Cu3      1.0000 0.00492  0.12594  0.23900  Biso   1.000  Cu
  Cu4      1.0000 0.99508  0.62594  0.26100  Biso   1.000  Cu
  C1       1.0000 0.80696  0.62440  0.59361  Biso   1.000  C
  C2       1.0000 0.19304  0.12440  0.90639  Biso   1.000  C
  C3       1.0000 0.19304  0.37560  0.40639  Biso   1.000  C
  C4       1.0000 0.80696  0.87560  0.09361  Biso   1.000  C
  C5       1.0000 0.68274  0.63860  0.50532  Biso   1.000  C
  C6       1.0000 0.31726  0.13860  0.99468  Biso   1.000  C
  C7       1.0000 0.31726  0.36140  0.49468  Biso   1.000  C
  C8       1.0000 0.68274  0.86140  0.00532  Biso   1.000  C
  C9       1.0000 0.62814  0.82000  0.47880  Biso   1.000  C
  C10      1.0000 0.37186  0.32000  0.02120  Biso   1.000  C
  C11      1.0000 0.37186  0.18000  0.52120  Biso   1.000  C
  C12      1.0000 0.62814  0.68000  0.97880  Biso   1.000  C
  H1       1.0000 0.66880  0.93020  0.51580  Biso   1.000  H
  H2       1.0000 0.33120  0.43020  0.98420  Biso   1.000  H
  H3       1.0000 0.33120  0.06980  0.48420  Biso   1.000  H
  H4       1.0000 0.66880  0.56980  0.01580  Biso   1.000  H
  C13      1.0000 0.51481  0.83970  0.39874  Biso   1.000  C
  C14      1.0000 0.48519  0.33970  0.10126  Biso   1.000  C
  C15      1.0000 0.48519  0.16030  0.60126  Biso   1.000  C
  C16      1.0000 0.51481  0.66030  0.89874  Biso   1.000  C
  H5       1.0000 0.48050  0.96300  0.38250  Biso   1.000  H
  H6       1.0000 0.51950  0.46300  0.11750  Biso   1.000  H
  H7       1.0000 0.51950  0.03700  0.61750  Biso   1.000  H
  H8       1.0000 0.48050  0.53700  0.88250  Biso   1.000  H
  C17      1.0000 0.45050  0.67780  0.34161  Biso   1.000  C
  C18      1.0000 0.54950  0.17780  0.15839  Biso   1.000  C
  C19      1.0000 0.54950  0.32220  0.65839  Biso   1.000  C
  C20      1.0000 0.45050  0.82220  0.84161  Biso   1.000  C
  C21      1.0000 0.50620  0.49610  0.36886  Biso   1.000  C
  C22      1.0000 0.49380  0.99610  0.13114  Biso   1.000  C
  C23      1.0000 0.49380  0.50390  0.63114  Biso   1.000  C
  C24      1.0000 0.50620  0.00390  0.86886  Biso   1.000  C
  H9       1.0000 0.46580  0.38550  0.33210  Biso   1.000  H
  H10      1.0000 0.53420  0.88550  0.16790  Biso   1.000  H
  H11      1.0000 0.53420  0.61450  0.66790  Biso   1.000  H
  H12      1.0000 0.46580  0.11450  0.83210  Biso   1.000  H
  C25      1.0000 0.62012  0.47670  0.44933  Biso   1.000  C
  C26      1.0000 0.37988  0.97670  0.05067  Biso   1.000  C
  C27      1.0000 0.37988  0.52330  0.55067  Biso   1.000  C
  C28      1.0000 0.62012  0.02330  0.94933  Biso   1.000  C
  H13      1.0000 0.65490  0.35380  0.46590  Biso   1.000  H
  H14      1.0000 0.34510  0.85380  0.03410  Biso   1.000  H
  H15      1.0000 0.34510  0.64620  0.53410  Biso   1.000  H
  H16      1.0000 0.65490  0.14620  0.96590  Biso   1.000  H
  C29      1.0000 0.32902  0.70040  0.25377  Biso   1.000  C
  C30      1.0000 0.67098  0.20040  0.24623  Biso   1.000  C
  C31      1.0000 0.67098  0.29960  0.74623  Biso   1.000  C
  C32      1.0000 0.32902  0.79960  0.75377  Biso   1.000  C
  C33      1.0000 0.27427  0.88110  0.23348  Biso   1.000  C
  C34      1.0000 0.72573  0.38110  0.26652  Biso   1.000  C
  C35      1.0000 0.72573  0.11890  0.76652  Biso   1.000  C
  C36      1.0000 0.27427  0.61890  0.73348  Biso   1.000  C
  H17      1.0000 0.31260  0.98520  0.27840  Biso   1.000  H
  H18      1.0000 0.68740  0.48520  0.22160  Biso   1.000  H
  H19      1.0000 0.68740  0.01480  0.72160  Biso   1.000  H
  H20      1.0000 0.31260  0.51480  0.77840  Biso   1.000  H
  C37      1.0000 0.10847  0.76410  0.08422  Biso   1.000  C
  C38      1.0000 0.89153  0.26410  0.41578  Biso   1.000  C
  C39      1.0000 0.89153  0.23590  0.91578  Biso   1.000  C
  C40      1.0000 0.10847  0.73590  0.58422  Biso   1.000  C
  H21      1.0000 0.03580  0.78640  0.02610  Biso   1.000  H
  H22      1.0000 0.96420  0.28640  0.47390  Biso   1.000  H
  H23      1.0000 0.96420  0.21360  0.97390  Biso   1.000  H
  H24      1.0000 0.03580  0.71360  0.52610  Biso   1.000  H
  C41      1.0000 0.15686  0.58050  0.10302  Biso   1.000  C
  C42      1.0000 0.84314  0.08050  0.39698  Biso   1.000  C
  C43      1.0000 0.84314  0.41950  0.89698  Biso   1.000  C
  C44      1.0000 0.15686  0.91950  0.60302  Biso   1.000  C
  H25      1.0000 0.11540  0.47780  0.05850  Biso   1.000  H
  H26      1.0000 0.88460  0.97780  0.44150  Biso   1.000  H
  H27      1.0000 0.88460  0.52220  0.94150  Biso   1.000  H
  H28      1.0000 0.11540  0.02220  0.55850  Biso   1.000  H
  C45      1.0000 0.26635  0.54610  0.18719  Biso   1.000  C
  C46      1.0000 0.73365  0.04610  0.31281  Biso   1.000  C
  C47      1.0000 0.73365  0.45390  0.81281  Biso   1.000  C
  C48      1.0000 0.26635  0.95390  0.68719  Biso   1.000  C
  H29      1.0000 0.29810  0.42080  0.19940  Biso   1.000  H
  H30      1.0000 0.70190  0.92080  0.30060  Biso   1.000  H
  H31      1.0000 0.70190  0.57920  0.80060  Biso   1.000  H
  H32      1.0000 0.29810  0.07920  0.69940  Biso   1.000  H
  O1       1.0000 0.85427  0.78371  0.63201  Biso   1.000  O
  O2       1.0000 0.14573  0.28371  0.86799  Biso   1.000  O
  O3       1.0000 0.14573  0.21629  0.36799  Biso   1.000  O
  O4       1.0000 0.85427  0.71629  0.13201  Biso   1.000  O
  O5       1.0000 0.85069  0.45826  0.62004  Biso   1.000  O
  O6       1.0000 0.14931  0.95826  0.87996  Biso   1.000  O
  O7       1.0000 0.14931  0.54174  0.37996  Biso   1.000  O
  O8       1.0000 0.85069  0.04174  0.12004  Biso   1.000  O
  O9       1.0000 0.11973  0.08692  0.13595  Biso   1.000  O
  O10      1.0000 0.88027  0.58692  0.36405  Biso   1.000  O
  O11      1.0000 0.88027  0.91308  0.86405  Biso   1.000  O
  O12      1.0000 0.11973  0.41308  0.63595  Biso   1.000  O
  O13      1.0000 0.03989  0.61834  0.80948  Biso   1.000  O
  O14      1.0000 0.96011  0.11834  0.69052  Biso   1.000  O
  O15      1.0000 0.96011  0.38166  0.19052  Biso   1.000  O
  O16      1.0000 0.03989  0.88166  0.30948  Biso   1.000  O
  H33      1.0000 0.09500  0.61600  0.85800  Biso   1.000  H
  H34      1.0000 0.90500  0.11600  0.64200  Biso   1.000  H
  H35      1.0000 0.90500  0.38400  0.14200  Biso   1.000  H
  H36      1.0000 0.09500  0.88400  0.35800  Biso   1.000  H
  N1       1.0000 0.16685  0.91170  0.15045  Biso   1.000  N
  N2       1.0000 0.83315  0.41170  0.34955  Biso   1.000  N
  N3       1.0000 0.83315  0.08830  0.84955  Biso   1.000  N
  N4       1.0000 0.16685  0.58830  0.65045  Biso   1.000  N
