data_image0
_cell_length_a       6.867
_cell_length_b       6.29
_cell_length_c       12.442
_cell_angle_alpha    90
_cell_angle_beta     100.874
_cell_angle_gamma    90

_symmetry_space_group_name_H-M    "P 1"
_symmetry_int_tables_number       1

loop_
  _symmetry_equiv_pos_as_xyz
  'x, y, z'

loop_
  _atom_site_label
  _atom_site_occupancy
  _atom_site_fract_x
  _atom_site_fract_y
  _atom_site_fract_z
  _atom_site_thermal_displace_type
  _atom_site_B_iso_or_equiv
  _atom_site_type_symbol
  Cu1      1.0000 0.52836  0.17981  0.00052  Biso   1.000  Cu
  Cu2      1.0000 0.47164  0.67981  0.99948  Biso   1.000  Cu
  C1       1.0000 0.42470  0.93290  0.79580  Biso   1.000  C
  C2       1.0000 0.57530  0.43290  0.20420  Biso   1.000  C
  C3       1.0000 0.36030  0.93260  0.67300  Biso   1.000  C
  C4       1.0000 0.63970  0.43260  0.32700  Biso   1.000  C
  C5       1.0000 0.27170  0.75540  0.61820  Biso   1.000  C
  C6       1.0000 0.72830  0.25540  0.38180  Biso   1.000  C
  H1       1.0000 0.25930  0.63150  0.65720  Biso   1.000  H
  H2       1.0000 0.74070  0.13150  0.34280  Biso   1.000  H
  C7       1.0000 0.20130  0.76020  0.50630  Biso   1.000  C
  C8       1.0000 0.79870  0.26020  0.49370  Biso   1.000  C
  H3       1.0000 0.13900  0.64070  0.47160  Biso   1.000  H
  H4       1.0000 0.86100  0.14070  0.52840  Biso   1.000  H
  C9       1.0000 0.22250  0.94250  0.44460  Biso   1.000  C
  C10      1.0000 0.77750  0.44250  0.55540  Biso   1.000  C
  C11      1.0000 0.31410  0.11910  0.50030  Biso   1.000  C
  C12      1.0000 0.68590  0.61910  0.49970  Biso   1.000  C
  H5       1.0000 0.33090  0.24170  0.46120  Biso   1.000  H
  H6       1.0000 0.66910  0.74170  0.53880  Biso   1.000  H
  C13      1.0000 0.38080  0.11590  0.61290  Biso   1.000  C
  C14      1.0000 0.61920  0.61590  0.38710  Biso   1.000  C
  H7       1.0000 0.43940  0.23650  0.64840  Biso   1.000  H
  H8       1.0000 0.56060  0.73650  0.35160  Biso   1.000  H
  C15      1.0000 0.13830  0.94910  0.32490  Biso   1.000  C
  C16      1.0000 0.86170  0.44910  0.67510  Biso   1.000  C
  C17      1.0000 0.05300  0.77120  0.26780  Biso   1.000  C
  C18      1.0000 0.94700  0.27120  0.73220  Biso   1.000  C
  H9       1.0000 0.06090  0.64010  0.30290  Biso   1.000  H
  H10      1.0000 0.93910  0.14010  0.69710  Biso   1.000  H
  C19      1.0000 0.95690  0.78590  0.16000  Biso   1.000  C
  C20      1.0000 0.04310  0.28590  0.84000  Biso   1.000  C
  H11      1.0000 0.90260  0.66470  0.12320  Biso   1.000  H
  H12      1.0000 0.09740  0.16470  0.87680  Biso   1.000  H
  C21      1.0000 0.03530  0.14240  0.15640  Biso   1.000  C
  C22      1.0000 0.96470  0.64240  0.84360  Biso   1.000  C
  H13      1.0000 0.03370  0.26840  0.11710  Biso   1.000  H
  H14      1.0000 0.96630  0.76840  0.88290  Biso   1.000  H
  C23      1.0000 0.13530  0.13560  0.26360  Biso   1.000  C
  C24      1.0000 0.86470  0.63560  0.73640  Biso   1.000  C
  H15      1.0000 0.20120  0.25590  0.29510  Biso   1.000  H
  H16      1.0000 0.79880  0.75590  0.70490  Biso   1.000  H
  O1       1.0000 0.47850  0.10500  0.84090  Biso   1.000  O
  O2       1.0000 0.52150  0.60500  0.15910  Biso   1.000  O
  O3       1.0000 0.41770  0.75360  0.84170  Biso   1.000  O
  O4       1.0000 0.58230  0.25360  0.15830  Biso   1.000  O
  O5       1.0000 0.83270  0.98610  0.00860  Biso   1.000  O
  O6       1.0000 0.16730  0.48610  0.99140  Biso   1.000  O
  O7       1.0000 0.62950  0.44830  0.96640  Biso   1.000  O
  O8       1.0000 0.37050  0.94830  0.03360  Biso   1.000  O
  H17      1.0000 0.61800  0.45100  0.90800  Biso   1.000  H
  H18      1.0000 0.38200  0.95100  0.09200  Biso   1.000  H
  N1       1.0000 0.94140  0.97340  0.10790  Biso   1.000  N
  N2       1.0000 0.05860  0.47340  0.89210  Biso   1.000  N
