data_image0
_cell_length_a       20.657
_cell_length_b       12.578
_cell_length_c       18.299
_cell_angle_alpha    90
_cell_angle_beta     93.74
_cell_angle_gamma    90

_symmetry_space_group_name_H-M    "P 1"
_symmetry_int_tables_number       1

loop_
  _symmetry_equiv_pos_as_xyz
  'x, y, z'

loop_
  _atom_site_label
  _atom_site_occupancy
  _atom_site_fract_x
  _atom_site_fract_y
  _atom_site_fract_z
  _atom_site_thermal_displace_type
  _atom_site_B_iso_or_equiv
  _atom_site_type_symbol
  Cu1      1.0000 0.50000  0.87430  0.25000  Biso   1.000  Cu
  Cu2      1.0000 0.00000  0.37430  0.25000  Biso   1.000  Cu
  Cu3      1.0000 0.50000  0.12570  0.75000  Biso   1.000  Cu
  Cu4      1.0000 0.00000  0.62570  0.75000  Biso   1.000  Cu
  Cu5      1.0000 0.66849  0.63101  0.08812  Biso   1.000  Cu
  Cu6      1.0000 0.33151  0.63101  0.41188  Biso   1.000  Cu
  Cu7      1.0000 0.16849  0.13101  0.08812  Biso   1.000  Cu
  Cu8      1.0000 0.83151  0.13101  0.41188  Biso   1.000  Cu
  Cu9      1.0000 0.33151  0.36899  0.91188  Biso   1.000  Cu
  Cu10     1.0000 0.66849  0.36899  0.58812  Biso   1.000  Cu
  Cu11     1.0000 0.83151  0.86899  0.91188  Biso   1.000  Cu
  Cu12     1.0000 0.16849  0.86899  0.58812  Biso   1.000  Cu
  O1       1.0000 0.77780  0.65010  0.05940  Biso   1.000  O
  O2       1.0000 0.22220  0.65010  0.44060  Biso   1.000  O
  O3       1.0000 0.27780  0.15010  0.05940  Biso   1.000  O
  O4       1.0000 0.72220  0.15010  0.44060  Biso   1.000  O
  O5       1.0000 0.22220  0.34990  0.94060  Biso   1.000  O
  O6       1.0000 0.77780  0.34990  0.55940  Biso   1.000  O
  O7       1.0000 0.72220  0.84990  0.94060  Biso   1.000  O
  O8       1.0000 0.27780  0.84990  0.55940  Biso   1.000  O
  O9       1.0000 0.55220  0.65310  0.10430  Biso   1.000  O
  O10      1.0000 0.44780  0.65310  0.39570  Biso   1.000  O
  O11      1.0000 0.05220  0.15310  0.10430  Biso   1.000  O
  O12      1.0000 0.94780  0.15310  0.39570  Biso   1.000  O
  O13      1.0000 0.44780  0.34690  0.89570  Biso   1.000  O
  O14      1.0000 0.55220  0.34690  0.60430  Biso   1.000  O
  O15      1.0000 0.94780  0.84690  0.89570  Biso   1.000  O
  O16      1.0000 0.05220  0.84690  0.60430  Biso   1.000  O
  O17      1.0000 0.60630  0.84980  0.22960  Biso   1.000  O
  O18      1.0000 0.39370  0.84980  0.27040  Biso   1.000  O
  O19      1.0000 0.10630  0.34980  0.22960  Biso   1.000  O
  O20      1.0000 0.89370  0.34980  0.27040  Biso   1.000  O
  O21      1.0000 0.39370  0.15020  0.77040  Biso   1.000  O
  O22      1.0000 0.60630  0.15020  0.72960  Biso   1.000  O
  O23      1.0000 0.89370  0.65020  0.77040  Biso   1.000  O
  O24      1.0000 0.10630  0.65020  0.72960  Biso   1.000  O
  C1       1.0000 0.61300  0.77640  0.18500  Biso   1.000  C
  C2       1.0000 0.38700  0.77640  0.31500  Biso   1.000  C
  C3       1.0000 0.11300  0.27640  0.18500  Biso   1.000  C
  C4       1.0000 0.88700  0.27640  0.31500  Biso   1.000  C
  C5       1.0000 0.38700  0.22360  0.81500  Biso   1.000  C
  C6       1.0000 0.61300  0.22360  0.68500  Biso   1.000  C
  C7       1.0000 0.88700  0.72360  0.81500  Biso   1.000  C
  C8       1.0000 0.11300  0.72360  0.68500  Biso   1.000  C
  C9       1.0000 0.78040  0.72090  0.01280  Biso   1.000  C
  C10      1.0000 0.21960  0.72090  0.48720  Biso   1.000  C
  C11      1.0000 0.28040  0.22090  0.01280  Biso   1.000  C
  C12      1.0000 0.71960  0.22090  0.48720  Biso   1.000  C
  C13      1.0000 0.21960  0.27910  0.98720  Biso   1.000  C
  C14      1.0000 0.78040  0.27910  0.51280  Biso   1.000  C
  C15      1.0000 0.71960  0.77910  0.98720  Biso   1.000  C
  C16      1.0000 0.28040  0.77910  0.51280  Biso   1.000  C
  C17      1.0000 0.54760  0.72530  0.15070  Biso   1.000  C
  C18      1.0000 0.45240  0.72530  0.34930  Biso   1.000  C
  C19      1.0000 0.04760  0.22530  0.15070  Biso   1.000  C
  C20      1.0000 0.95240  0.22530  0.34930  Biso   1.000  C
  C21      1.0000 0.45240  0.27470  0.84930  Biso   1.000  C
  C22      1.0000 0.54760  0.27470  0.65070  Biso   1.000  C
  C23      1.0000 0.95240  0.77470  0.84930  Biso   1.000  C
  C24      1.0000 0.04760  0.77470  0.65070  Biso   1.000  C
  O25      1.0000 0.66460  0.74390  0.16260  Biso   1.000  O
  O26      1.0000 0.33540  0.74390  0.33740  Biso   1.000  O
  O27      1.0000 0.16460  0.24390  0.16260  Biso   1.000  O
  O28      1.0000 0.83540  0.24390  0.33740  Biso   1.000  O
  O29      1.0000 0.33540  0.25610  0.83740  Biso   1.000  O
  O30      1.0000 0.66460  0.25610  0.66260  Biso   1.000  O
  O31      1.0000 0.83540  0.75610  0.83740  Biso   1.000  O
  O32      1.0000 0.16460  0.75610  0.66260  Biso   1.000  O
  O33      1.0000 0.49500  0.75980  0.17350  Biso   1.000  O
  O34      1.0000 0.50500  0.75980  0.32650  Biso   1.000  O
  O35      1.0000 0.99500  0.25980  0.17350  Biso   1.000  O
  O36      1.0000 0.00500  0.25980  0.32650  Biso   1.000  O
  O37      1.0000 0.50500  0.24020  0.82650  Biso   1.000  O
  O38      1.0000 0.49500  0.24020  0.67350  Biso   1.000  O
  O39      1.0000 0.00500  0.74020  0.82650  Biso   1.000  O
  O40      1.0000 0.99500  0.74020  0.67350  Biso   1.000  O
  N1       1.0000 0.64740  0.51890  0.01430  Biso   1.000  N
  N2       1.0000 0.35260  0.51890  0.48570  Biso   1.000  N
  N3       1.0000 0.14740  0.01890  0.01430  Biso   1.000  N
  N4       1.0000 0.85260  0.01890  0.48570  Biso   1.000  N
  N5       1.0000 0.35260  0.48110  0.98570  Biso   1.000  N
  N6       1.0000 0.64740  0.48110  0.51430  Biso   1.000  N
  N7       1.0000 0.85260  0.98110  0.98570  Biso   1.000  N
  N8       1.0000 0.14740  0.98110  0.51430  Biso   1.000  N
  N9       1.0000 0.69760  0.53170  0.16730  Biso   1.000  N
  N10      1.0000 0.30240  0.53170  0.33270  Biso   1.000  N
  N11      1.0000 0.19760  0.03170  0.16730  Biso   1.000  N
  N12      1.0000 0.80240  0.03170  0.33270  Biso   1.000  N
  N13      1.0000 0.30240  0.46830  0.83270  Biso   1.000  N
  N14      1.0000 0.69760  0.46830  0.66730  Biso   1.000  N
  N15      1.0000 0.80240  0.96830  0.83270  Biso   1.000  N
  N16      1.0000 0.19760  0.96830  0.66730  Biso   1.000  N
  N17      1.0000 0.48400  0.98270  0.16950  Biso   1.000  N
  N18      1.0000 0.51600  0.98270  0.33050  Biso   1.000  N
  N19      1.0000 0.98400  0.48270  0.16950  Biso   1.000  N
  N20      1.0000 0.01600  0.48270  0.33050  Biso   1.000  N
  N21      1.0000 0.51600  0.01730  0.83050  Biso   1.000  N
  N22      1.0000 0.48400  0.01730  0.66950  Biso   1.000  N
  N23      1.0000 0.01600  0.51730  0.83050  Biso   1.000  N
  N24      1.0000 0.98400  0.51730  0.66950  Biso   1.000  N
  C25      1.0000 0.68250  0.44820  0.97460  Biso   1.000  C
  C26      1.0000 0.31750  0.44820  0.52540  Biso   1.000  C
  C27      1.0000 0.18250  0.94820  0.97460  Biso   1.000  C
  C28      1.0000 0.81750  0.94820  0.52540  Biso   1.000  C
  C29      1.0000 0.31750  0.55180  0.02540  Biso   1.000  C
  C30      1.0000 0.68250  0.55180  0.47460  Biso   1.000  C
  C31      1.0000 0.81750  0.05180  0.02540  Biso   1.000  C
  C32      1.0000 0.18250  0.05180  0.47460  Biso   1.000  C
  C33      1.0000 0.51500  0.07450  0.15480  Biso   1.000  C
  C34      1.0000 0.48500  0.07450  0.34520  Biso   1.000  C
  C35      1.0000 0.01500  0.57450  0.15480  Biso   1.000  C
  C36      1.0000 0.98500  0.57450  0.34520  Biso   1.000  C
  C37      1.0000 0.48500  0.92550  0.84520  Biso   1.000  C
  C38      1.0000 0.51500  0.92550  0.65480  Biso   1.000  C
  C39      1.0000 0.98500  0.42550  0.84520  Biso   1.000  C
  C40      1.0000 0.01500  0.42550  0.65480  Biso   1.000  C
  O41      1.0000 0.83410  0.75220  0.98630  Biso   1.000  O
  O42      1.0000 0.16590  0.75220  0.51370  Biso   1.000  O
  O43      1.0000 0.33410  0.25220  0.98630  Biso   1.000  O
  O44      1.0000 0.66590  0.25220  0.51370  Biso   1.000  O
  O45      1.0000 0.16590  0.24780  0.01370  Biso   1.000  O
  O46      1.0000 0.83410  0.24780  0.48630  Biso   1.000  O
  O47      1.0000 0.66590  0.74780  0.01370  Biso   1.000  O
  O48      1.0000 0.33410  0.74780  0.48630  Biso   1.000  O
  C41      1.0000 0.66490  0.47790  0.22130  Biso   1.000  C
  C42      1.0000 0.33510  0.47790  0.27870  Biso   1.000  C
  C43      1.0000 0.16490  0.97790  0.22130  Biso   1.000  C
  C44      1.0000 0.83510  0.97790  0.27870  Biso   1.000  C
  C45      1.0000 0.33510  0.52210  0.77870  Biso   1.000  C
  C46      1.0000 0.66490  0.52210  0.72130  Biso   1.000  C
  C47      1.0000 0.83510  0.02210  0.77870  Biso   1.000  C
  C48      1.0000 0.16490  0.02210  0.72130  Biso   1.000  C
  C49      1.0000 0.51060  0.21200  0.06580  Biso   1.000  C
  C50      1.0000 0.48940  0.21200  0.43420  Biso   1.000  C
  C51      1.0000 0.01060  0.71200  0.06580  Biso   1.000  C
  C52      1.0000 0.98940  0.71200  0.43420  Biso   1.000  C
  C53      1.0000 0.48940  0.78800  0.93420  Biso   1.000  C
  C54      1.0000 0.51060  0.78800  0.56580  Biso   1.000  C
  C55      1.0000 0.98940  0.28800  0.93420  Biso   1.000  C
  C56      1.0000 0.01060  0.28800  0.56580  Biso   1.000  C
  H1       1.0000 0.49200  0.24000  0.02230  Biso   1.000  H
  H2       1.0000 0.50800  0.24000  0.47770  Biso   1.000  H
  H3       1.0000 0.99200  0.74000  0.02230  Biso   1.000  H
  H4       1.0000 0.00800  0.74000  0.47770  Biso   1.000  H
  H5       1.0000 0.50800  0.76000  0.97770  Biso   1.000  H
  H6       1.0000 0.49200  0.76000  0.52230  Biso   1.000  H
  H7       1.0000 0.00800  0.26000  0.97770  Biso   1.000  H
  H8       1.0000 0.99200  0.26000  0.52230  Biso   1.000  H
  C57      1.0000 0.70890  0.41950  0.26510  Biso   1.000  C
  C58      1.0000 0.29110  0.41950  0.23490  Biso   1.000  C
  C59      1.0000 0.20890  0.91950  0.26510  Biso   1.000  C
  C60      1.0000 0.79110  0.91950  0.23490  Biso   1.000  C
  C61      1.0000 0.29110  0.58050  0.73490  Biso   1.000  C
  C62      1.0000 0.70890  0.58050  0.76510  Biso   1.000  C
  C63      1.0000 0.79110  0.08050  0.73490  Biso   1.000  C
  C64      1.0000 0.20890  0.08050  0.76510  Biso   1.000  C
  C65      1.0000 0.66340  0.31170  0.88000  Biso   1.000  C
  C66      1.0000 0.33660  0.31170  0.62000  Biso   1.000  C
  C67      1.0000 0.16340  0.81170  0.88000  Biso   1.000  C
  C68      1.0000 0.83660  0.81170  0.62000  Biso   1.000  C
  C69      1.0000 0.33660  0.68830  0.12000  Biso   1.000  C
  C70      1.0000 0.66340  0.68830  0.38000  Biso   1.000  C
  C71      1.0000 0.83660  0.18830  0.12000  Biso   1.000  C
  C72      1.0000 0.16340  0.18830  0.38000  Biso   1.000  C
  H9       1.0000 0.63550  0.27340  0.84800  Biso   1.000  H
  H10      1.0000 0.36450  0.27340  0.65200  Biso   1.000  H
  H11      1.0000 0.13550  0.77340  0.84800  Biso   1.000  H
  H12      1.0000 0.86450  0.77340  0.65200  Biso   1.000  H
  H13      1.0000 0.36450  0.72660  0.15200  Biso   1.000  H
  H14      1.0000 0.63550  0.72660  0.34800  Biso   1.000  H
  H15      1.0000 0.86450  0.22660  0.15200  Biso   1.000  H
  H16      1.0000 0.13550  0.22660  0.34800  Biso   1.000  H
  C73      1.0000 0.64220  0.38950  0.92800  Biso   1.000  C
  C74      1.0000 0.35780  0.38950  0.57200  Biso   1.000  C
  C75      1.0000 0.14220  0.88950  0.92800  Biso   1.000  C
  C76      1.0000 0.85780  0.88950  0.57200  Biso   1.000  C
  C77      1.0000 0.35780  0.61050  0.07200  Biso   1.000  C
  C78      1.0000 0.64220  0.61050  0.42800  Biso   1.000  C
  C79      1.0000 0.85780  0.11050  0.07200  Biso   1.000  C
  C80      1.0000 0.14220  0.11050  0.42800  Biso   1.000  C
  C81      1.0000 0.56370  0.26320  0.10250  Biso   1.000  C
  C82      1.0000 0.43630  0.26320  0.39750  Biso   1.000  C
  C83      1.0000 0.06370  0.76320  0.10250  Biso   1.000  C
  C84      1.0000 0.93630  0.76320  0.39750  Biso   1.000  C
  C85      1.0000 0.43630  0.73680  0.89750  Biso   1.000  C
  C86      1.0000 0.56370  0.73680  0.60250  Biso   1.000  C
  C87      1.0000 0.93630  0.23680  0.89750  Biso   1.000  C
  C88      1.0000 0.06370  0.23680  0.60250  Biso   1.000  C
  H17      1.0000 0.57930  0.32730  0.08540  Biso   1.000  H
  H18      1.0000 0.42070  0.32730  0.41460  Biso   1.000  H
  H19      1.0000 0.07930  0.82730  0.08540  Biso   1.000  H
  H20      1.0000 0.92070  0.82730  0.41460  Biso   1.000  H
  H21      1.0000 0.42070  0.67270  0.91460  Biso   1.000  H
  H22      1.0000 0.57930  0.67270  0.58540  Biso   1.000  H
  H23      1.0000 0.92070  0.17270  0.91460  Biso   1.000  H
  H24      1.0000 0.07930  0.17270  0.58540  Biso   1.000  H
  C89      1.0000 0.57240  0.12560  0.19270  Biso   1.000  C
  C90      1.0000 0.42760  0.12560  0.30730  Biso   1.000  C
  C91      1.0000 0.07240  0.62560  0.19270  Biso   1.000  C
  C92      1.0000 0.92760  0.62560  0.30730  Biso   1.000  C
  C93      1.0000 0.42760  0.87440  0.80730  Biso   1.000  C
  C94      1.0000 0.57240  0.87440  0.69270  Biso   1.000  C
  C95      1.0000 0.92760  0.37440  0.80730  Biso   1.000  C
  C96      1.0000 0.07240  0.37440  0.69270  Biso   1.000  C
  H25      1.0000 0.59330  0.09520  0.23420  Biso   1.000  H
  H26      1.0000 0.40670  0.09520  0.26580  Biso   1.000  H
  H27      1.0000 0.09330  0.59520  0.23420  Biso   1.000  H
  H28      1.0000 0.90670  0.59520  0.26580  Biso   1.000  H
  H29      1.0000 0.40670  0.90480  0.76580  Biso   1.000  H
  H30      1.0000 0.59330  0.90480  0.73420  Biso   1.000  H
  H31      1.0000 0.90670  0.40480  0.76580  Biso   1.000  H
  H32      1.0000 0.09330  0.40480  0.73420  Biso   1.000  H
  C97      1.0000 0.69250  0.35360  0.32260  Biso   1.000  C
  C98      1.0000 0.30750  0.35360  0.17740  Biso   1.000  C
  C99      1.0000 0.19250  0.85360  0.32260  Biso   1.000  C
  C100     1.0000 0.80750  0.85360  0.17740  Biso   1.000  C
  C101     1.0000 0.30750  0.64640  0.67740  Biso   1.000  C
  C102     1.0000 0.69250  0.64640  0.82260  Biso   1.000  C
  C103     1.0000 0.80750  0.14640  0.67740  Biso   1.000  C
  C104     1.0000 0.19250  0.14640  0.82260  Biso   1.000  C
  H33      1.0000 0.72320  0.31360  0.35000  Biso   1.000  H
  H34      1.0000 0.27680  0.31360  0.15000  Biso   1.000  H
  H35      1.0000 0.22320  0.81360  0.35000  Biso   1.000  H
  H36      1.0000 0.77680  0.81360  0.15000  Biso   1.000  H
  H37      1.0000 0.27680  0.68640  0.65000  Biso   1.000  H
  H38      1.0000 0.72320  0.68640  0.85000  Biso   1.000  H
  H39      1.0000 0.77680  0.18640  0.65000  Biso   1.000  H
  H40      1.0000 0.22320  0.18640  0.85000  Biso   1.000  H
  C105     1.0000 0.60000  0.47430  0.23510  Biso   1.000  C
  C106     1.0000 0.40000  0.47430  0.26490  Biso   1.000  C
  C107     1.0000 0.10000  0.97430  0.23510  Biso   1.000  C
  C108     1.0000 0.90000  0.97430  0.26490  Biso   1.000  C
  C109     1.0000 0.40000  0.52570  0.76490  Biso   1.000  C
  C110     1.0000 0.60000  0.52570  0.73510  Biso   1.000  C
  C111     1.0000 0.90000  0.02570  0.76490  Biso   1.000  C
  C112     1.0000 0.10000  0.02570  0.73510  Biso   1.000  C
  H41      1.0000 0.56870  0.51080  0.20620  Biso   1.000  H
  H42      1.0000 0.43130  0.51080  0.29380  Biso   1.000  H
  H43      1.0000 0.06870  0.01080  0.20620  Biso   1.000  H
  H44      1.0000 0.93130  0.01080  0.29380  Biso   1.000  H
  H45      1.0000 0.43130  0.48920  0.79380  Biso   1.000  H
  H46      1.0000 0.56870  0.48920  0.70620  Biso   1.000  H
  H47      1.0000 0.93130  0.98920  0.79380  Biso   1.000  H
  H48      1.0000 0.06870  0.98920  0.70620  Biso   1.000  H
  N25      1.0000 0.76960  0.43790  0.23840  Biso   1.000  N
  N26      1.0000 0.23040  0.43790  0.26160  Biso   1.000  N
  N27      1.0000 0.26960  0.93790  0.23840  Biso   1.000  N
  N28      1.0000 0.73040  0.93790  0.26160  Biso   1.000  N
  N29      1.0000 0.23040  0.56210  0.76160  Biso   1.000  N
  N30      1.0000 0.76960  0.56210  0.73840  Biso   1.000  N
  N31      1.0000 0.73040  0.06210  0.76160  Biso   1.000  N
  N32      1.0000 0.26960  0.06210  0.73840  Biso   1.000  N
  H49      1.0000 0.80620  0.41280  0.25560  Biso   1.000  H
  H50      1.0000 0.19380  0.41280  0.24440  Biso   1.000  H
  H51      1.0000 0.30620  0.91280  0.25560  Biso   1.000  H
  H52      1.0000 0.69380  0.91280  0.24440  Biso   1.000  H
  H53      1.0000 0.19380  0.58720  0.74440  Biso   1.000  H
  H54      1.0000 0.80620  0.58720  0.75560  Biso   1.000  H
  H55      1.0000 0.69380  0.08720  0.74440  Biso   1.000  H
  H56      1.0000 0.30620  0.08720  0.75560  Biso   1.000  H
  N33      1.0000 0.58060  0.42410  0.93620  Biso   1.000  N
  N34      1.0000 0.41940  0.42410  0.56380  Biso   1.000  N
  N35      1.0000 0.08060  0.92410  0.93620  Biso   1.000  N
  N36      1.0000 0.91940  0.92410  0.56380  Biso   1.000  N
  N37      1.0000 0.41940  0.57590  0.06380  Biso   1.000  N
  N38      1.0000 0.58060  0.57590  0.43620  Biso   1.000  N
  N39      1.0000 0.91940  0.07590  0.06380  Biso   1.000  N
  N40      1.0000 0.08060  0.07590  0.43620  Biso   1.000  N
  H57      1.0000 0.54520  0.40080  0.91440  Biso   1.000  H
  H58      1.0000 0.45480  0.40080  0.58560  Biso   1.000  H
  H59      1.0000 0.04520  0.90080  0.91440  Biso   1.000  H
  H60      1.0000 0.95480  0.90080  0.58560  Biso   1.000  H
  H61      1.0000 0.45480  0.59920  0.08560  Biso   1.000  H
  H62      1.0000 0.54520  0.59920  0.41440  Biso   1.000  H
  H63      1.0000 0.95480  0.09920  0.08560  Biso   1.000  H
  H64      1.0000 0.04520  0.09920  0.41440  Biso   1.000  H
  C113     1.0000 0.58390  0.41270  0.29490  Biso   1.000  C
  C114     1.0000 0.41610  0.41270  0.20510  Biso   1.000  C
  C115     1.0000 0.08390  0.91270  0.29490  Biso   1.000  C
  C116     1.0000 0.91610  0.91270  0.20510  Biso   1.000  C
  C117     1.0000 0.41610  0.58730  0.70510  Biso   1.000  C
  C118     1.0000 0.58390  0.58730  0.79490  Biso   1.000  C
  C119     1.0000 0.91610  0.08730  0.70510  Biso   1.000  C
  C120     1.0000 0.08390  0.08730  0.79490  Biso   1.000  C
  H65      1.0000 0.54110  0.41300  0.30750  Biso   1.000  H
  H66      1.0000 0.45890  0.41300  0.19250  Biso   1.000  H
  H67      1.0000 0.04110  0.91300  0.30750  Biso   1.000  H
  H68      1.0000 0.95890  0.91300  0.19250  Biso   1.000  H
  H69      1.0000 0.45890  0.58700  0.69250  Biso   1.000  H
  H70      1.0000 0.54110  0.58700  0.80750  Biso   1.000  H
  H71      1.0000 0.95890  0.08700  0.69250  Biso   1.000  H
  H72      1.0000 0.04110  0.08700  0.80750  Biso   1.000  H
  C121     1.0000 0.62740  0.35250  0.33560  Biso   1.000  C
  C122     1.0000 0.37260  0.35250  0.16440  Biso   1.000  C
  C123     1.0000 0.12740  0.85250  0.33560  Biso   1.000  C
  C124     1.0000 0.87260  0.85250  0.16440  Biso   1.000  C
  C125     1.0000 0.37260  0.64750  0.66440  Biso   1.000  C
  C126     1.0000 0.62740  0.64750  0.83560  Biso   1.000  C
  C127     1.0000 0.87260  0.14750  0.66440  Biso   1.000  C
  C128     1.0000 0.12740  0.14750  0.83560  Biso   1.000  C
  H73      1.0000 0.61310  0.30990  0.37290  Biso   1.000  H
  H74      1.0000 0.38690  0.30990  0.12710  Biso   1.000  H
  H75      1.0000 0.11310  0.80990  0.37290  Biso   1.000  H
  H76      1.0000 0.88690  0.80990  0.12710  Biso   1.000  H
  H77      1.0000 0.38690  0.69010  0.62710  Biso   1.000  H
  H78      1.0000 0.61310  0.69010  0.87290  Biso   1.000  H
  H79      1.0000 0.88690  0.19010  0.62710  Biso   1.000  H
  H80      1.0000 0.11310  0.19010  0.87290  Biso   1.000  H
  C129     1.0000 0.59250  0.21540  0.16550  Biso   1.000  C
  C130     1.0000 0.40750  0.21540  0.33450  Biso   1.000  C
  C131     1.0000 0.09250  0.71540  0.16550  Biso   1.000  C
  C132     1.0000 0.90750  0.71540  0.33450  Biso   1.000  C
  C133     1.0000 0.40750  0.78460  0.83450  Biso   1.000  C
  C134     1.0000 0.59250  0.78460  0.66550  Biso   1.000  C
  C135     1.0000 0.90750  0.28460  0.83450  Biso   1.000  C
  C136     1.0000 0.09250  0.28460  0.66550  Biso   1.000  C
  H81      1.0000 0.62780  0.24910  0.18950  Biso   1.000  H
  H82      1.0000 0.37220  0.24910  0.31050  Biso   1.000  H
  H83      1.0000 0.12780  0.74910  0.18950  Biso   1.000  H
  H84      1.0000 0.87220  0.74910  0.31050  Biso   1.000  H
  H85      1.0000 0.37220  0.75090  0.81050  Biso   1.000  H
  H86      1.0000 0.62780  0.75090  0.68950  Biso   1.000  H
  H87      1.0000 0.87220  0.25090  0.81050  Biso   1.000  H
  H88      1.0000 0.12780  0.25090  0.68950  Biso   1.000  H
  C137     1.0000 0.73150  0.29740  0.88510  Biso   1.000  C
  C138     1.0000 0.26850  0.29740  0.61490  Biso   1.000  C
  C139     1.0000 0.23150  0.79740  0.88510  Biso   1.000  C
  C140     1.0000 0.76850  0.79740  0.61490  Biso   1.000  C
  C141     1.0000 0.26850  0.70260  0.11490  Biso   1.000  C
  C142     1.0000 0.73150  0.70260  0.38510  Biso   1.000  C
  C143     1.0000 0.76850  0.20260  0.11490  Biso   1.000  C
  C144     1.0000 0.23150  0.20260  0.38510  Biso   1.000  C
  H89      1.0000 0.74990  0.24950  0.85370  Biso   1.000  H
  H90      1.0000 0.25010  0.24950  0.64630  Biso   1.000  H
  H91      1.0000 0.24990  0.74950  0.85370  Biso   1.000  H
  H92      1.0000 0.75010  0.74950  0.64630  Biso   1.000  H
  H93      1.0000 0.25010  0.75050  0.14630  Biso   1.000  H
  H94      1.0000 0.74990  0.75050  0.35370  Biso   1.000  H
  H95      1.0000 0.75010  0.25050  0.14630  Biso   1.000  H
  H96      1.0000 0.24990  0.25050  0.35370  Biso   1.000  H
  C145     1.0000 0.74900  0.42780  0.98020  Biso   1.000  C
  C146     1.0000 0.25100  0.42780  0.51980  Biso   1.000  C
  C147     1.0000 0.24900  0.92780  0.98020  Biso   1.000  C
  C148     1.0000 0.75100  0.92780  0.51980  Biso   1.000  C
  C149     1.0000 0.25100  0.57220  0.01980  Biso   1.000  C
  C150     1.0000 0.74900  0.57220  0.48020  Biso   1.000  C
  C151     1.0000 0.75100  0.07220  0.01980  Biso   1.000  C
  C152     1.0000 0.24900  0.07220  0.48020  Biso   1.000  C
  H97      1.0000 0.77700  0.46410  0.01330  Biso   1.000  H
  H98      1.0000 0.22300  0.46410  0.48670  Biso   1.000  H
  H99      1.0000 0.27700  0.96410  0.01330  Biso   1.000  H
  H100     1.0000 0.72300  0.96410  0.48670  Biso   1.000  H
  H101     1.0000 0.22300  0.53590  0.98670  Biso   1.000  H
  H102     1.0000 0.77700  0.53590  0.51330  Biso   1.000  H
  H103     1.0000 0.72300  0.03590  0.98670  Biso   1.000  H
  H104     1.0000 0.27700  0.03590  0.51330  Biso   1.000  H
  C153     1.0000 0.77110  0.35190  0.93470  Biso   1.000  C
  C154     1.0000 0.22890  0.35190  0.56530  Biso   1.000  C
  C155     1.0000 0.27110  0.85190  0.93470  Biso   1.000  C
  C156     1.0000 0.72890  0.85190  0.56530  Biso   1.000  C
  C157     1.0000 0.22890  0.64810  0.06530  Biso   1.000  C
  C158     1.0000 0.77110  0.64810  0.43470  Biso   1.000  C
  C159     1.0000 0.72890  0.14810  0.06530  Biso   1.000  C
  C160     1.0000 0.27110  0.14810  0.43470  Biso   1.000  C
  H105     1.0000 0.81520  0.33650  0.93760  Biso   1.000  H
  H106     1.0000 0.18480  0.33650  0.56240  Biso   1.000  H
  H107     1.0000 0.31520  0.83650  0.93760  Biso   1.000  H
  H108     1.0000 0.68480  0.83650  0.56240  Biso   1.000  H
  H109     1.0000 0.18480  0.66350  0.06240  Biso   1.000  H
  H110     1.0000 0.81520  0.66350  0.43760  Biso   1.000  H
  H111     1.0000 0.68480  0.16350  0.06240  Biso   1.000  H
  H112     1.0000 0.31520  0.16350  0.43760  Biso   1.000  H
  N41      1.0000 0.43730  0.05340  0.07180  Biso   1.000  N
  N42      1.0000 0.56270  0.05340  0.42820  Biso   1.000  N
  N43      1.0000 0.93730  0.55340  0.07180  Biso   1.000  N
  N44      1.0000 0.06270  0.55340  0.42820  Biso   1.000  N
  N45      1.0000 0.56270  0.94660  0.92820  Biso   1.000  N
  N46      1.0000 0.43730  0.94660  0.57180  Biso   1.000  N
  N47      1.0000 0.06270  0.44660  0.92820  Biso   1.000  N
  N48      1.0000 0.93730  0.44660  0.57180  Biso   1.000  N
  H113     1.0000 0.41060  0.05990  0.03400  Biso   1.000  H
  H114     1.0000 0.58940  0.05990  0.46600  Biso   1.000  H
  H115     1.0000 0.91060  0.55990  0.03400  Biso   1.000  H
  H116     1.0000 0.08940  0.55990  0.46600  Biso   1.000  H
  H117     1.0000 0.58940  0.94010  0.96600  Biso   1.000  H
  H118     1.0000 0.41060  0.94010  0.53400  Biso   1.000  H
  H119     1.0000 0.08940  0.44010  0.96600  Biso   1.000  H
  H120     1.0000 0.91060  0.44010  0.53400  Biso   1.000  H
  C161     1.0000 0.48680  0.12280  0.09370  Biso   1.000  C
  C162     1.0000 0.51320  0.12280  0.40630  Biso   1.000  C
  C163     1.0000 0.98680  0.62280  0.09370  Biso   1.000  C
  C164     1.0000 0.01320  0.62280  0.40630  Biso   1.000  C
  C165     1.0000 0.51320  0.87720  0.90630  Biso   1.000  C
  C166     1.0000 0.48680  0.87720  0.59370  Biso   1.000  C
  C167     1.0000 0.01320  0.37720  0.90630  Biso   1.000  C
  C168     1.0000 0.98680  0.37720  0.59370  Biso   1.000  C
  C169     1.0000 0.75950  0.50320  0.17970  Biso   1.000  C
  C170     1.0000 0.24050  0.50320  0.32030  Biso   1.000  C
  C171     1.0000 0.25950  0.00320  0.17970  Biso   1.000  C
  C172     1.0000 0.74050  0.00320  0.32030  Biso   1.000  C
  C173     1.0000 0.24050  0.49680  0.82030  Biso   1.000  C
  C174     1.0000 0.75950  0.49680  0.67970  Biso   1.000  C
  C175     1.0000 0.74050  0.99680  0.82030  Biso   1.000  C
  C176     1.0000 0.25950  0.99680  0.67970  Biso   1.000  C
  H121     1.0000 0.79240  0.52590  0.15110  Biso   1.000  H
  H122     1.0000 0.20760  0.52590  0.34890  Biso   1.000  H
  H123     1.0000 0.29240  0.02590  0.15110  Biso   1.000  H
  H124     1.0000 0.70760  0.02590  0.34890  Biso   1.000  H
  H125     1.0000 0.20760  0.47410  0.84890  Biso   1.000  H
  H126     1.0000 0.79240  0.47410  0.65110  Biso   1.000  H
  H127     1.0000 0.70760  0.97410  0.84890  Biso   1.000  H
  H128     1.0000 0.29240  0.97410  0.65110  Biso   1.000  H
  C177     1.0000 0.58730  0.50400  0.98680  Biso   1.000  C
  C178     1.0000 0.41270  0.50400  0.51320  Biso   1.000  C
  C179     1.0000 0.08730  0.00400  0.98680  Biso   1.000  C
  C180     1.0000 0.91270  0.00400  0.51320  Biso   1.000  C
  C181     1.0000 0.41270  0.49600  0.01320  Biso   1.000  C
  C182     1.0000 0.58730  0.49600  0.48680  Biso   1.000  C
  C183     1.0000 0.91270  0.99600  0.01320  Biso   1.000  C
  C184     1.0000 0.08730  0.99600  0.48680  Biso   1.000  C
  H129     1.0000 0.55240  0.54450  0.00070  Biso   1.000  H
  H130     1.0000 0.44760  0.54450  0.49930  Biso   1.000  H
  H131     1.0000 0.05240  0.04450  0.00070  Biso   1.000  H
  H132     1.0000 0.94760  0.04450  0.49930  Biso   1.000  H
  H133     1.0000 0.44760  0.45550  0.99930  Biso   1.000  H
  H134     1.0000 0.55240  0.45550  0.50070  Biso   1.000  H
  H135     1.0000 0.94760  0.95550  0.99930  Biso   1.000  H
  H136     1.0000 0.05240  0.95550  0.50070  Biso   1.000  H
  C185     1.0000 0.43910  0.97510  0.12020  Biso   1.000  C
  C186     1.0000 0.56090  0.97510  0.37980  Biso   1.000  C
  C187     1.0000 0.93910  0.47510  0.12020  Biso   1.000  C
  C188     1.0000 0.06090  0.47510  0.37980  Biso   1.000  C
  C189     1.0000 0.56090  0.02490  0.87980  Biso   1.000  C
  C190     1.0000 0.43910  0.02490  0.62020  Biso   1.000  C
  C191     1.0000 0.06090  0.52490  0.87980  Biso   1.000  C
  C192     1.0000 0.93910  0.52490  0.62020  Biso   1.000  C
  H137     1.0000 0.40950  0.91920  0.11780  Biso   1.000  H
  H138     1.0000 0.59050  0.91920  0.38220  Biso   1.000  H
  H139     1.0000 0.90950  0.41920  0.11780  Biso   1.000  H
  H140     1.0000 0.09050  0.41920  0.38220  Biso   1.000  H
  H141     1.0000 0.59050  0.08080  0.88220  Biso   1.000  H
  H142     1.0000 0.40950  0.08080  0.61780  Biso   1.000  H
  H143     1.0000 0.09050  0.58080  0.88220  Biso   1.000  H
  H144     1.0000 0.90950  0.58080  0.61780  Biso   1.000  H
