data_image0
_cell_length_a       14.2379
_cell_length_b       12.2801
_cell_length_c       9.383
_cell_angle_alpha    90
_cell_angle_beta     108.721
_cell_angle_gamma    90

_symmetry_space_group_name_H-M    "P 1"
_symmetry_int_tables_number       1

loop_
  _symmetry_equiv_pos_as_xyz
  'x, y, z'

loop_
  _atom_site_label
  _atom_site_occupancy
  _atom_site_fract_x
  _atom_site_fract_y
  _atom_site_fract_z
  _atom_site_thermal_displace_type
  _atom_site_B_iso_or_equiv
  _atom_site_type_symbol
  C1       1.0000 0.24790  0.25020  0.43280  Biso   1.000  C
  C2       1.0000 0.24790  0.74980  0.93280  Biso   1.000  C
  C3       1.0000 0.74790  0.75020  0.43280  Biso   1.000  C
  C4       1.0000 0.74790  0.24980  0.93280  Biso   1.000  C
  H1       1.0000 0.18990  0.20980  0.39550  Biso   1.000  H
  H2       1.0000 0.18990  0.79020  0.89550  Biso   1.000  H
  H3       1.0000 0.68990  0.70980  0.39550  Biso   1.000  H
  H4       1.0000 0.68990  0.29020  0.89550  Biso   1.000  H
  Cu1      1.0000 0.16841  0.12419  0.73839  Biso   1.000  Cu
  Cu2      1.0000 0.16841  0.87581  0.23839  Biso   1.000  Cu
  Cu3      1.0000 0.66841  0.62419  0.73839  Biso   1.000  Cu
  Cu4      1.0000 0.66841  0.37581  0.23839  Biso   1.000  Cu
  O1       1.0000 0.24995  0.88901  0.49880  Biso   1.000  O
  O2       1.0000 0.24995  0.11099  0.99880  Biso   1.000  O
  O3       1.0000 0.74995  0.38901  0.49880  Biso   1.000  O
  O4       1.0000 0.74995  0.61099  0.99880  Biso   1.000  O
  O5       1.0000 0.07518  0.08895  0.49139  Biso   1.000  O
  O6       1.0000 0.07518  0.91105  0.99139  Biso   1.000  O
  O7       1.0000 0.57518  0.58895  0.49139  Biso   1.000  O
  O8       1.0000 0.57518  0.41105  0.99139  Biso   1.000  O
  O9       1.0000 0.08508  0.98050  0.30768  Biso   1.000  O
  O10      1.0000 0.08508  0.01950  0.80768  Biso   1.000  O
  O11      1.0000 0.58508  0.48050  0.30768  Biso   1.000  O
  O12      1.0000 0.58508  0.51950  0.80768  Biso   1.000  O
  O13      1.0000 0.23962  0.99810  0.68333  Biso   1.000  O
  O14      1.0000 0.23962  0.00190  0.18333  Biso   1.000  O
  O15      1.0000 0.73962  0.49810  0.68333  Biso   1.000  O
  O16      1.0000 0.73962  0.50190  0.18333  Biso   1.000  O
  N1       1.0000 0.34287  0.25663  0.83440  Biso   1.000  N
  N2       1.0000 0.34287  0.74337  0.33440  Biso   1.000  N
  N3       1.0000 0.84287  0.75663  0.83440  Biso   1.000  N
  N4       1.0000 0.84287  0.24337  0.33440  Biso   1.000  N
  N5       1.0000 0.98735  0.24506  0.65380  Biso   1.000  N
  N6       1.0000 0.98735  0.75494  0.15380  Biso   1.000  N
  N7       1.0000 0.48735  0.74506  0.65380  Biso   1.000  N
  N8       1.0000 0.48735  0.25494  0.15380  Biso   1.000  N
  C5       1.0000 0.11479  0.01505  0.44020  Biso   1.000  C
  C6       1.0000 0.11479  0.98495  0.94020  Biso   1.000  C
  C7       1.0000 0.61479  0.51505  0.44020  Biso   1.000  C
  C8       1.0000 0.61479  0.48495  0.94020  Biso   1.000  C
  C9       1.0000 0.20985  0.96303  0.55060  Biso   1.000  C
  C10      1.0000 0.20985  0.03697  0.05060  Biso   1.000  C
  C11      1.0000 0.70985  0.46303  0.55060  Biso   1.000  C
  C12      1.0000 0.70985  0.53697  0.05060  Biso   1.000  C
  N9       1.0000 0.27439  0.22352  0.71130  Biso   1.000  N
  N10      1.0000 0.27439  0.77648  0.21130  Biso   1.000  N
  N11      1.0000 0.77439  0.72352  0.71130  Biso   1.000  N
  N12      1.0000 0.77439  0.27648  0.21130  Biso   1.000  N
  N13      1.0000 0.94056  0.33458  0.67330  Biso   1.000  N
  N14      1.0000 0.94056  0.66542  0.17330  Biso   1.000  N
  N15      1.0000 0.44056  0.83458  0.67330  Biso   1.000  N
  N16      1.0000 0.44056  0.16542  0.17330  Biso   1.000  N
  H5       1.0000 0.88000  0.34980  0.62340  Biso   1.000  H
  H6       1.0000 0.88000  0.65020  0.12340  Biso   1.000  H
  H7       1.0000 0.38000  0.84980  0.62340  Biso   1.000  H
  H8       1.0000 0.38000  0.15020  0.12340  Biso   1.000  H
  N17      1.0000 0.07836  0.24831  0.74735  Biso   1.000  N
  N18      1.0000 0.07836  0.75169  0.24735  Biso   1.000  N
  N19      1.0000 0.57836  0.74831  0.74735  Biso   1.000  N
  N20      1.0000 0.57836  0.25169  0.24735  Biso   1.000  N
  N21      1.0000 0.40702  0.31720  0.79300  Biso   1.000  N
  N22      1.0000 0.40702  0.68280  0.29300  Biso   1.000  N
  N23      1.0000 0.90702  0.81720  0.79300  Biso   1.000  N
  N24      1.0000 0.90702  0.18280  0.29300  Biso   1.000  N
  H9       1.0000 0.45800  0.34830  0.85490  Biso   1.000  H
  H10      1.0000 0.45800  0.65170  0.35490  Biso   1.000  H
  H11      1.0000 0.95800  0.84830  0.85490  Biso   1.000  H
  H12      1.0000 0.95800  0.15170  0.35490  Biso   1.000  H
  C13      1.0000 0.16070  0.48470  0.00060  Biso   1.000  C
  C14      1.0000 0.16070  0.51530  0.50060  Biso   1.000  C
  C15      1.0000 0.66070  0.98470  0.00060  Biso   1.000  C
  C16      1.0000 0.66070  0.01530  0.50060  Biso   1.000  C
  H13      1.0000 0.21370  0.51640  0.07430  Biso   1.000  H
  H14      1.0000 0.21370  0.48360  0.57430  Biso   1.000  H
  H15      1.0000 0.71370  0.01640  0.07430  Biso   1.000  H
  H16      1.0000 0.71370  0.98360  0.57430  Biso   1.000  H
  C17      1.0000 0.42400  0.37800  0.54480  Biso   1.000  C
  C18      1.0000 0.42400  0.62200  0.04480  Biso   1.000  C
  C19      1.0000 0.92400  0.87800  0.54480  Biso   1.000  C
  C20      1.0000 0.92400  0.12200  0.04480  Biso   1.000  C
  H17      1.0000 0.48040  0.42120  0.58140  Biso   1.000  H
  H18      1.0000 0.48040  0.57880  0.08140  Biso   1.000  H
  H19      1.0000 0.98040  0.92120  0.58140  Biso   1.000  H
  H20      1.0000 0.98040  0.07880  0.08140  Biso   1.000  H
  C21      1.0000 0.09082  0.34173  0.83030  Biso   1.000  C
  C22      1.0000 0.09082  0.65827  0.33030  Biso   1.000  C
  C23      1.0000 0.59082  0.84173  0.83030  Biso   1.000  C
  C24      1.0000 0.59082  0.15827  0.33030  Biso   1.000  C
  C25      1.0000 0.17367  0.38488  0.94280  Biso   1.000  C
  C26      1.0000 0.17367  0.61512  0.44280  Biso   1.000  C
  C27      1.0000 0.67367  0.88488  0.94280  Biso   1.000  C
  C28      1.0000 0.67367  0.11512  0.44280  Biso   1.000  C
  H21      1.0000 0.23380  0.34800  0.97610  Biso   1.000  H
  H22      1.0000 0.23380  0.65200  0.47610  Biso   1.000  H
  H23      1.0000 0.73380  0.84800  0.97610  Biso   1.000  H
  H24      1.0000 0.73380  0.15200  0.47610  Biso   1.000  H
  C29      1.0000 0.98823  0.50020  0.84220  Biso   1.000  C
  C30      1.0000 0.98823  0.49980  0.34220  Biso   1.000  C
  C31      1.0000 0.48823  0.00020  0.84220  Biso   1.000  C
  C32      1.0000 0.48823  0.99980  0.34220  Biso   1.000  C
  H25      1.0000 0.92850  0.53790  0.80970  Biso   1.000  H
  H26      1.0000 0.92850  0.46210  0.30970  Biso   1.000  H
  H27      1.0000 0.42850  0.03790  0.80970  Biso   1.000  H
  H28      1.0000 0.42850  0.96210  0.30970  Biso   1.000  H
  C33      1.0000 0.00093  0.39891  0.78250  Biso   1.000  C
  C34      1.0000 0.00093  0.60109  0.28250  Biso   1.000  C
  C35      1.0000 0.50093  0.89891  0.78250  Biso   1.000  C
  C36      1.0000 0.50093  0.10109  0.28250  Biso   1.000  C
  C37      1.0000 0.38211  0.32386  0.64090  Biso   1.000  C
  C38      1.0000 0.38211  0.67614  0.14090  Biso   1.000  C
  C39      1.0000 0.88211  0.82386  0.64090  Biso   1.000  C
  C40      1.0000 0.88211  0.17614  0.14090  Biso   1.000  C
  C41      1.0000 0.29080  0.30060  0.33910  Biso   1.000  C
  C42      1.0000 0.29080  0.69940  0.83910  Biso   1.000  C
  C43      1.0000 0.79080  0.80060  0.33910  Biso   1.000  C
  C44      1.0000 0.79080  0.19940  0.83910  Biso   1.000  C
  H29      1.0000 0.26190  0.29300  0.23560  Biso   1.000  H
  H30      1.0000 0.26190  0.70700  0.73560  Biso   1.000  H
  H31      1.0000 0.76190  0.79300  0.23560  Biso   1.000  H
  H32      1.0000 0.76190  0.20700  0.73560  Biso   1.000  H
  C45      1.0000 0.37810  0.36410  0.39580  Biso   1.000  C
  C46      1.0000 0.37810  0.63590  0.89580  Biso   1.000  C
  C47      1.0000 0.87810  0.86410  0.39580  Biso   1.000  C
  C48      1.0000 0.87810  0.13590  0.89580  Biso   1.000  C
  H33      1.0000 0.40450  0.39720  0.32810  Biso   1.000  H
  H34      1.0000 0.40450  0.60280  0.82810  Biso   1.000  H
  H35      1.0000 0.90450  0.89720  0.32810  Biso   1.000  H
  H36      1.0000 0.90450  0.10280  0.82810  Biso   1.000  H
  C49      1.0000 0.06960  0.53990  0.95140  Biso   1.000  C
  C50      1.0000 0.06960  0.46010  0.45140  Biso   1.000  C
  C51      1.0000 0.56960  0.03990  0.95140  Biso   1.000  C
  C52      1.0000 0.56960  0.96010  0.45140  Biso   1.000  C
  H37      1.0000 0.06440  0.60660  0.99520  Biso   1.000  H
  H38      1.0000 0.06440  0.39340  0.49520  Biso   1.000  H
  H39      1.0000 0.56440  0.10660  0.99520  Biso   1.000  H
  H40      1.0000 0.56440  0.89340  0.49520  Biso   1.000  H
  C53      1.0000 0.29561  0.26235  0.58780  Biso   1.000  C
  C54      1.0000 0.29561  0.73765  0.08780  Biso   1.000  C
  C55      1.0000 0.79561  0.76235  0.58780  Biso   1.000  C
  C56      1.0000 0.79561  0.23765  0.08780  Biso   1.000  C
