data_image0
_cell_length_a       10.358
_cell_length_b       7.68
_cell_length_c       23.191
_cell_angle_alpha    90
_cell_angle_beta     102.903
_cell_angle_gamma    90

_symmetry_space_group_name_H-M    "P 1"
_symmetry_int_tables_number       1

loop_
  _symmetry_equiv_pos_as_xyz
  'x, y, z'

loop_
  _atom_site_label
  _atom_site_occupancy
  _atom_site_fract_x
  _atom_site_fract_y
  _atom_site_fract_z
  _atom_site_thermal_displace_type
  _atom_site_B_iso_or_equiv
  _atom_site_type_symbol
  Cu1      1.0000 0.95619  0.85204  0.53720  Biso   1.000  Cu
  Cu2      1.0000 0.54381  0.35204  0.96280  Biso   1.000  Cu
  Cu3      1.0000 0.04381  0.14796  0.46280  Biso   1.000  Cu
  Cu4      1.0000 0.45619  0.64796  0.03720  Biso   1.000  Cu
  N1       1.0000 0.01880  0.76820  0.62010  Biso   1.000  N
  N2       1.0000 0.48120  0.26820  0.87990  Biso   1.000  N
  N3       1.0000 0.98120  0.23180  0.37990  Biso   1.000  N
  N4       1.0000 0.51880  0.73180  0.12010  Biso   1.000  N
  N5       1.0000 0.01460  0.08130  0.77640  Biso   1.000  N
  N6       1.0000 0.48540  0.58130  0.72360  Biso   1.000  N
  N7       1.0000 0.98540  0.91870  0.22360  Biso   1.000  N
  N8       1.0000 0.51460  0.41870  0.27640  Biso   1.000  N
  N9       1.0000 0.95420  0.85010  0.81570  Biso   1.000  N
  N10      1.0000 0.54580  0.35010  0.68430  Biso   1.000  N
  N11      1.0000 0.04580  0.14990  0.18430  Biso   1.000  N
  N12      1.0000 0.45420  0.64990  0.31570  Biso   1.000  N
  N13      1.0000 0.82580  0.66590  0.51560  Biso   1.000  N
  N14      1.0000 0.67420  0.16590  0.98440  Biso   1.000  N
  N15      1.0000 0.17420  0.33410  0.48440  Biso   1.000  N
  N16      1.0000 0.32580  0.83410  0.01560  Biso   1.000  N
  N17      1.0000 0.84630  0.51500  0.51170  Biso   1.000  N
  N18      1.0000 0.65370  0.01500  0.98830  Biso   1.000  N
  N19      1.0000 0.15370  0.48500  0.48830  Biso   1.000  N
  N20      1.0000 0.34630  0.98500  0.01170  Biso   1.000  N
  N21      1.0000 0.86020  0.36460  0.50640  Biso   1.000  N
  N22      1.0000 0.63980  0.86460  0.99360  Biso   1.000  N
  N23      1.0000 0.13980  0.63540  0.49360  Biso   1.000  N
  N24      1.0000 0.36020  0.13540  0.00640  Biso   1.000  N
  N25      1.0000 0.91660  0.95120  0.45510  Biso   1.000  N
  N26      1.0000 0.58340  0.45120  0.04490  Biso   1.000  N
  N27      1.0000 0.08340  0.04880  0.54490  Biso   1.000  N
  N28      1.0000 0.41660  0.54880  0.95510  Biso   1.000  N
  N29      1.0000 0.84440  0.88580  0.41290  Biso   1.000  N
  N30      1.0000 0.65560  0.38580  0.08710  Biso   1.000  N
  N31      1.0000 0.15560  0.11420  0.58710  Biso   1.000  N
  N32      1.0000 0.34440  0.61420  0.91290  Biso   1.000  N
  N33      1.0000 0.77750  0.82180  0.37260  Biso   1.000  N
  N34      1.0000 0.72250  0.32180  0.12740  Biso   1.000  N
  N35      1.0000 0.22250  0.17820  0.62740  Biso   1.000  N
  N36      1.0000 0.27750  0.67820  0.87260  Biso   1.000  N
  O1       1.0000 0.06090  0.18050  0.74140  Biso   1.000  O
  O2       1.0000 0.43910  0.68050  0.75860  Biso   1.000  O
  O3       1.0000 0.93910  0.81950  0.25860  Biso   1.000  O
  O4       1.0000 0.56090  0.31950  0.24140  Biso   1.000  O
  O5       1.0000 0.92650  0.69180  0.82320  Biso   1.000  O
  O6       1.0000 0.57350  0.19180  0.67680  Biso   1.000  O
  O7       1.0000 0.07350  0.30820  0.17680  Biso   1.000  O
  O8       1.0000 0.42650  0.80820  0.32320  Biso   1.000  O
  O9       1.0000 0.80130  0.05040  0.56125  Biso   1.000  O
  O10      1.0000 0.69870  0.55040  0.93875  Biso   1.000  O
  O11      1.0000 0.19870  0.94960  0.43875  Biso   1.000  O
  O12      1.0000 0.30130  0.44960  0.06125  Biso   1.000  O
  H1       1.0000 0.82880  0.14430  0.58630  Biso   1.000  H
  H2       1.0000 0.67120  0.64430  0.91370  Biso   1.000  H
  H3       1.0000 0.17120  0.85570  0.41370  Biso   1.000  H
  H4       1.0000 0.32880  0.35570  0.08630  Biso   1.000  H
  C1       1.0000 0.07140  0.60920  0.63190  Biso   1.000  C
  C2       1.0000 0.42860  0.10920  0.86810  Biso   1.000  C
  C3       1.0000 0.92860  0.39080  0.36810  Biso   1.000  C
  C4       1.0000 0.57140  0.89080  0.13190  Biso   1.000  C
  H5       1.0000 0.08520  0.54200  0.60050  Biso   1.000  H
  H6       1.0000 0.41480  0.04200  0.89950  Biso   1.000  H
  H7       1.0000 0.91480  0.45800  0.39950  Biso   1.000  H
  H8       1.0000 0.58520  0.95800  0.10050  Biso   1.000  H
  C5       1.0000 0.10590  0.54060  0.68760  Biso   1.000  C
  C6       1.0000 0.39410  0.04060  0.81240  Biso   1.000  C
  C7       1.0000 0.89410  0.45940  0.31240  Biso   1.000  C
  C8       1.0000 0.60590  0.95940  0.18760  Biso   1.000  C
  H9       1.0000 0.14220  0.42950  0.69370  Biso   1.000  H
  H10      1.0000 0.35780  0.92950  0.80630  Biso   1.000  H
  H11      1.0000 0.85780  0.57050  0.30630  Biso   1.000  H
  H12      1.0000 0.64220  0.07050  0.19370  Biso   1.000  H
  C9       1.0000 0.08620  0.63820  0.73440  Biso   1.000  C
  C10      1.0000 0.41380  0.13820  0.76560  Biso   1.000  C
  C11      1.0000 0.91380  0.36180  0.26560  Biso   1.000  C
  C12      1.0000 0.58620  0.86180  0.23440  Biso   1.000  C
  H13      1.0000 0.10880  0.59440  0.77270  Biso   1.000  H
  H14      1.0000 0.39120  0.09440  0.72730  Biso   1.000  H
  H15      1.0000 0.89120  0.40560  0.22730  Biso   1.000  H
  H16      1.0000 0.60880  0.90560  0.27270  Biso   1.000  H
  C13      1.0000 0.03240  0.80220  0.72370  Biso   1.000  C
  C14      1.0000 0.46760  0.30220  0.77630  Biso   1.000  C
  C15      1.0000 0.96760  0.19780  0.27630  Biso   1.000  C
  C16      1.0000 0.53240  0.69780  0.22370  Biso   1.000  C
  C17      1.0000 0.00020  0.86280  0.66580  Biso   1.000  C
  C18      1.0000 0.49980  0.36280  0.83420  Biso   1.000  C
  C19      1.0000 0.99980  0.13720  0.33420  Biso   1.000  C
  C20      1.0000 0.50020  0.63720  0.16580  Biso   1.000  C
  H17      1.0000 0.96420  0.97370  0.65860  Biso   1.000  H
  H18      1.0000 0.53580  0.47370  0.84140  Biso   1.000  H
  H19      1.0000 0.03580  0.02630  0.34140  Biso   1.000  H
  H20      1.0000 0.46420  0.52630  0.15860  Biso   1.000  H
  C21      1.0000 0.00030  0.91080  0.77160  Biso   1.000  C
  C22      1.0000 0.49970  0.41080  0.72840  Biso   1.000  C
  C23      1.0000 0.99970  0.08920  0.22840  Biso   1.000  C
  C24      1.0000 0.50030  0.58920  0.27160  Biso   1.000  C
  C25      1.0000 0.96590  0.15540  0.82730  Biso   1.000  C
  C26      1.0000 0.53410  0.65540  0.67270  Biso   1.000  C
  C27      1.0000 0.03410  0.84460  0.17270  Biso   1.000  C
  C28      1.0000 0.46590  0.34460  0.32730  Biso   1.000  C
  C29      1.0000 0.93030  0.98760  0.85700  Biso   1.000  C
  C30      1.0000 0.56970  0.48760  0.64300  Biso   1.000  C
  C31      1.0000 0.06970  0.01240  0.14300  Biso   1.000  C
  C32      1.0000 0.43030  0.51240  0.35700  Biso   1.000  C
  C33      1.0000 0.78810  0.97450  0.86070  Biso   1.000  C
  C34      1.0000 0.71190  0.47450  0.63930  Biso   1.000  C
  C35      1.0000 0.21190  0.02550  0.13930  Biso   1.000  C
  C36      1.0000 0.28810  0.52550  0.36070  Biso   1.000  C
  H21      1.0000 0.73220  0.99900  0.82260  Biso   1.000  H
  H22      1.0000 0.76780  0.49900  0.67740  Biso   1.000  H
  H23      1.0000 0.26780  0.00100  0.17740  Biso   1.000  H
  H24      1.0000 0.23220  0.50100  0.32260  Biso   1.000  H
  H25      1.0000 0.77070  0.05710  0.88910  Biso   1.000  H
  H26      1.0000 0.72930  0.55710  0.61090  Biso   1.000  H
  H27      1.0000 0.22930  0.94290  0.11090  Biso   1.000  H
  H28      1.0000 0.27070  0.44290  0.38910  Biso   1.000  H
  H29      1.0000 0.77040  0.85900  0.87270  Biso   1.000  H
  H30      1.0000 0.72960  0.35900  0.62730  Biso   1.000  H
  H31      1.0000 0.22960  0.14100  0.12730  Biso   1.000  H
  H32      1.0000 0.27040  0.64100  0.37270  Biso   1.000  H
  C37      1.0000 0.02290  0.94970  0.91680  Biso   1.000  C
  C38      1.0000 0.47710  0.44970  0.58320  Biso   1.000  C
  C39      1.0000 0.97710  0.05030  0.08320  Biso   1.000  C
  C40      1.0000 0.52290  0.55030  0.41680  Biso   1.000  C
  H33      1.0000 0.99580  0.84400  0.93280  Biso   1.000  H
  H34      1.0000 0.50420  0.34400  0.56720  Biso   1.000  H
  H35      1.0000 0.00420  0.15600  0.06720  Biso   1.000  H
  H36      1.0000 0.49580  0.65600  0.43280  Biso   1.000  H
  H37      1.0000 0.01920  0.04420  0.94350  Biso   1.000  H
  H38      1.0000 0.48080  0.54420  0.55650  Biso   1.000  H
  H39      1.0000 0.98080  0.95580  0.05650  Biso   1.000  H
  H40      1.0000 0.51920  0.45580  0.44350  Biso   1.000  H
  H41      1.0000 0.11190  0.93700  0.91180  Biso   1.000  H
  H42      1.0000 0.38810  0.43700  0.58820  Biso   1.000  H
  H43      1.0000 0.88810  0.06300  0.08820  Biso   1.000  H
  H44      1.0000 0.61190  0.56300  0.41180  Biso   1.000  H
  C41      1.0000 0.07750  0.26220  0.86250  Biso   1.000  C
  C42      1.0000 0.42250  0.76220  0.63750  Biso   1.000  C
  C43      1.0000 0.92250  0.73780  0.13750  Biso   1.000  C
  C44      1.0000 0.57750  0.23780  0.36250  Biso   1.000  C
  H45      1.0000 0.15120  0.18770  0.87850  Biso   1.000  H
  H46      1.0000 0.34880  0.68770  0.62150  Biso   1.000  H
  H47      1.0000 0.84880  0.81230  0.12150  Biso   1.000  H
  H48      1.0000 0.65120  0.31230  0.37850  Biso   1.000  H
  H49      1.0000 0.04860  0.31940  0.89420  Biso   1.000  H
  H50      1.0000 0.45140  0.81940  0.60580  Biso   1.000  H
  H51      1.0000 0.95140  0.68060  0.10580  Biso   1.000  H
  H52      1.0000 0.54860  0.18060  0.39420  Biso   1.000  H
  H53      1.0000 0.10400  0.34790  0.83730  Biso   1.000  H
  H54      1.0000 0.39600  0.84790  0.66270  Biso   1.000  H
  H55      1.0000 0.89600  0.65210  0.16270  Biso   1.000  H
  H56      1.0000 0.60400  0.15210  0.33730  Biso   1.000  H
  C45      1.0000 0.84800  0.27040  0.80000  Biso   1.000  C
  C46      1.0000 0.65200  0.77040  0.70000  Biso   1.000  C
  C47      1.0000 0.15200  0.72960  0.20000  Biso   1.000  C
  C48      1.0000 0.34800  0.22960  0.30000  Biso   1.000  C
  H57      1.0000 0.87860  0.37140  0.78260  Biso   1.000  H
  H58      1.0000 0.62140  0.87140  0.71740  Biso   1.000  H
  H59      1.0000 0.12140  0.62860  0.21740  Biso   1.000  H
  H60      1.0000 0.37860  0.12860  0.28260  Biso   1.000  H
  H61      1.0000 0.80340  0.30590  0.83020  Biso   1.000  H
  H62      1.0000 0.69660  0.80590  0.66980  Biso   1.000  H
  H63      1.0000 0.19660  0.69410  0.16980  Biso   1.000  H
  H64      1.0000 0.30340  0.19410  0.33020  Biso   1.000  H
  H65      1.0000 0.78780  0.20620  0.77000  Biso   1.000  H
  H66      1.0000 0.71220  0.70620  0.73000  Biso   1.000  H
  H67      1.0000 0.21220  0.79380  0.23000  Biso   1.000  H
  H68      1.0000 0.28780  0.29380  0.27000  Biso   1.000  H
  C49      1.0000 0.66530  0.02130  0.53620  Biso   1.000  C
  C50      1.0000 0.83470  0.52130  0.96380  Biso   1.000  C
  C51      1.0000 0.33470  0.97870  0.46380  Biso   1.000  C
  C52      1.0000 0.16530  0.47870  0.03620  Biso   1.000  C
  H69      1.0000 0.61340  0.11000  0.54950  Biso   1.000  H
  H70      1.0000 0.88660  0.61000  0.95050  Biso   1.000  H
  H71      1.0000 0.38660  0.89000  0.45050  Biso   1.000  H
  H72      1.0000 0.11340  0.39000  0.04950  Biso   1.000  H
  H73      1.0000 0.63990  0.90920  0.54830  Biso   1.000  H
  H74      1.0000 0.86010  0.40920  0.95170  Biso   1.000  H
  H75      1.0000 0.36010  0.09080  0.45170  Biso   1.000  H
  H76      1.0000 0.13990  0.59080  0.04830  Biso   1.000  H
  H77      1.0000 0.65040  0.02500  0.49380  Biso   1.000  H
  H78      1.0000 0.84960  0.52500  0.00620  Biso   1.000  H
  H79      1.0000 0.34960  0.97500  0.50620  Biso   1.000  H
  H80      1.0000 0.15040  0.47500  0.99380  Biso   1.000  H
