data_image0
_cell_length_a       9.739
_cell_length_b       7.1341
_cell_length_c       13.785
_cell_angle_alpha    90
_cell_angle_beta     105.772
_cell_angle_gamma    90

_symmetry_space_group_name_H-M    "P 1"
_symmetry_int_tables_number       1

loop_
  _symmetry_equiv_pos_as_xyz
  'x, y, z'

loop_
  _atom_site_label
  _atom_site_occupancy
  _atom_site_fract_x
  _atom_site_fract_y
  _atom_site_fract_z
  _atom_site_thermal_displace_type
  _atom_site_B_iso_or_equiv
  _atom_site_type_symbol
  Cu1      1.0000 0.30813  0.47536  0.22578  Biso   1.000  Cu
  Cu2      1.0000 0.69187  0.97536  0.77422  Biso   1.000  Cu
  Cl1      1.0000 0.32590  0.97590  0.17590  Biso   1.000  Cl
  Cl2      1.0000 0.67410  0.47590  0.82410  Biso   1.000  Cl
  Cl3      1.0000 0.87999  0.97720  0.33066  Biso   1.000  Cl
  Cl4      1.0000 0.12001  0.47720  0.66934  Biso   1.000  Cl
  N1       1.0000 0.43830  0.47510  0.35500  Biso   1.000  N
  N2       1.0000 0.56170  0.97510  0.64500  Biso   1.000  N
  O1       1.0000 0.17100  0.47620  0.30630  Biso   1.000  O
  O2       1.0000 0.82900  0.97620  0.69370  Biso   1.000  O
  O3       1.0000 0.17370  0.46980  0.09380  Biso   1.000  O
  O4       1.0000 0.82630  0.96980  0.90620  Biso   1.000  O
  O5       1.0000 0.48590  0.47950  0.18450  Biso   1.000  O
  O6       1.0000 0.51410  0.97950  0.81550  Biso   1.000  O
  O7       1.0000 0.31690  0.81500  0.22420  Biso   1.000  O
  O8       1.0000 0.68310  0.31500  0.77580  Biso   1.000  O
  O9       1.0000 0.48370  0.99900  0.20710  Biso   1.000  O
  O10      1.0000 0.51630  0.49900  0.79290  Biso   1.000  O
  O11      1.0000 0.15200  0.95600  0.14840  Biso   1.000  O
  O12      1.0000 0.84800  0.45600  0.85160  Biso   1.000  O
  O13      1.0000 0.29200  0.13510  0.21780  Biso   1.000  O
  O14      1.0000 0.70800  0.63510  0.78220  Biso   1.000  O
  O15      1.0000 0.30210  0.96920  0.07110  Biso   1.000  O
  O16      1.0000 0.69790  0.46920  0.92890  Biso   1.000  O
  O17      1.0000 0.02630  0.97900  0.35710  Biso   1.000  O
  O18      1.0000 0.97370  0.47900  0.64290  Biso   1.000  O
  O19      1.0000 0.81880  0.13070  0.36770  Biso   1.000  O
  O20      1.0000 0.18120  0.63070  0.63230  Biso   1.000  O
  O21      1.0000 0.83000  0.02700  0.23010  Biso   1.000  O
  O22      1.0000 0.17000  0.52700  0.76990  Biso   1.000  O
  O23      1.0000 0.83720  0.82440  0.37680  Biso   1.000  O
  O24      1.0000 0.16280  0.32440  0.62320  Biso   1.000  O
  C1       1.0000 0.62600  0.47360  0.54050  Biso   1.000  C
  C2       1.0000 0.37400  0.97360  0.45950  Biso   1.000  C
  H1       1.0000 0.69220  0.47420  0.60640  Biso   1.000  H
  H2       1.0000 0.30780  0.97420  0.39360  Biso   1.000  H
  C3       1.0000 0.48100  0.48200  0.53130  Biso   1.000  C
  C4       1.0000 0.51900  0.98200  0.46870  Biso   1.000  C
  H3       1.0000 0.44560  0.48600  0.58980  Biso   1.000  H
  H4       1.0000 0.55440  0.98600  0.41020  Biso   1.000  H
  C5       1.0000 0.38770  0.47910  0.43630  Biso   1.000  C
  C6       1.0000 0.61230  0.97910  0.56370  Biso   1.000  C
  C7       1.0000 0.22780  0.48500  0.41240  Biso   1.000  C
  C8       1.0000 0.77220  0.98500  0.58760  Biso   1.000  C
  H5       1.0000 0.19580  0.38030  0.44400  Biso   1.000  H
  H6       1.0000 0.80420  0.88030  0.55600  Biso   1.000  H
  H7       1.0000 0.19630  0.59830  0.43770  Biso   1.000  H
  H8       1.0000 0.80370  0.09830  0.56230  Biso   1.000  H
  C9       1.0000 0.01930  0.48500  0.26950  Biso   1.000  C
  C10      1.0000 0.98070  0.98500  0.73050  Biso   1.000  C
  H9       1.0000 0.98740  0.61170  0.27120  Biso   1.000  H
  H10      1.0000 0.01260  0.11170  0.72880  Biso   1.000  H
  H11      1.0000 0.97710  0.41000  0.31170  Biso   1.000  H
  H12      1.0000 0.02290  0.91000  0.68830  Biso   1.000  H
  C11      1.0000 0.97420  0.40840  0.16200  Biso   1.000  C
  C12      1.0000 0.02580  0.90840  0.83800  Biso   1.000  C
  H13      1.0000 0.87530  0.44100  0.13630  Biso   1.000  H
  H14      1.0000 0.12470  0.94100  0.86370  Biso   1.000  H
  H15      1.0000 0.97730  0.27420  0.16780  Biso   1.000  H
  H16      1.0000 0.02270  0.77420  0.83220  Biso   1.000  H
  C13      1.0000 0.03120  0.45800  0.08620  Biso   1.000  C
  C14      1.0000 0.96880  0.95800  0.91380  Biso   1.000  C
  H17      1.0000 0.99980  0.36130  0.03670  Biso   1.000  H
  H18      1.0000 0.00020  0.86130  0.96330  Biso   1.000  H
  H19      1.0000 0.98490  0.57090  0.05600  Biso   1.000  H
  H20      1.0000 0.01510  0.07090  0.94400  Biso   1.000  H
  C15      1.0000 0.22400  0.48000  0.00760  Biso   1.000  C
  C16      1.0000 0.77600  0.98000  0.99240  Biso   1.000  C
  H21      1.0000 0.17760  0.58480  0.96810  Biso   1.000  H
  H22      1.0000 0.82240  0.08480  0.03190  Biso   1.000  H
  H23      1.0000 0.18770  0.36940  0.97000  Biso   1.000  H
  H24      1.0000 0.81230  0.86940  0.03000  Biso   1.000  H
  C17      1.0000 0.36160  0.46900  0.00810  Biso   1.000  C
  C18      1.0000 0.63840  0.96900  0.99190  Biso   1.000  C
  H25      1.0000 0.36890  0.58950  0.97860  Biso   1.000  H
  H26      1.0000 0.63110  0.08950  0.02140  Biso   1.000  H
  H27      1.0000 0.37130  0.37960  0.95840  Biso   1.000  H
  H28      1.0000 0.62870  0.87960  0.04160  Biso   1.000  H
  C19      1.0000 0.49360  0.47800  0.08410  Biso   1.000  C
  C20      1.0000 0.50640  0.97800  0.91590  Biso   1.000  C
  H29      1.0000 0.53780  0.36160  0.07440  Biso   1.000  H
  H30      1.0000 0.46220  0.86160  0.92560  Biso   1.000  H
  H31      1.0000 0.55520  0.57730  0.07500  Biso   1.000  H
  H32      1.0000 0.44480  0.07730  0.92500  Biso   1.000  H
  C21      1.0000 0.61270  0.47900  0.26230  Biso   1.000  C
  C22      1.0000 0.38730  0.97900  0.73770  Biso   1.000  C
  H33      1.0000 0.67670  0.57750  0.25530  Biso   1.000  H
  H34      1.0000 0.32330  0.07750  0.74470  Biso   1.000  H
  H35      1.0000 0.65760  0.36080  0.25850  Biso   1.000  H
  H36      1.0000 0.34240  0.86080  0.74150  Biso   1.000  H
  C23      1.0000 0.57690  0.48230  0.36250  Biso   1.000  C
  C24      1.0000 0.42310  0.98230  0.63750  Biso   1.000  C
  C25      1.0000 0.67620  0.47500  0.45620  Biso   1.000  C
  C26      1.0000 0.32380  0.97500  0.54380  Biso   1.000  C
  H37      1.0000 0.77600  0.46220  0.46130  Biso   1.000  H
  H38      1.0000 0.22400  0.96220  0.53870  Biso   1.000  H
