data_image0
_cell_length_a       14.213
_cell_length_b       14.84
_cell_length_c       9.334
_cell_angle_alpha    90
_cell_angle_beta     94.6
_cell_angle_gamma    90

_symmetry_space_group_name_H-M    "P 1"
_symmetry_int_tables_number       1

loop_
  _symmetry_equiv_pos_as_xyz
  'x, y, z'

loop_
  _atom_site_label
  _atom_site_occupancy
  _atom_site_fract_x
  _atom_site_fract_y
  _atom_site_fract_z
  _atom_site_thermal_displace_type
  _atom_site_B_iso_or_equiv
  _atom_site_type_symbol
  Zn1      1.0000 0.50000  0.22648  0.25000  Biso   1.000  Zn
  Zn2      1.0000 0.00000  0.72648  0.25000  Biso   1.000  Zn
  Zn3      1.0000 0.50000  0.77352  0.75000  Biso   1.000  Zn
  Zn4      1.0000 0.00000  0.27352  0.75000  Biso   1.000  Zn
  Cu1      1.0000 0.25000  0.25000  0.00000  Biso   1.000  Cu
  Cu2      1.0000 0.75000  0.75000  0.00000  Biso   1.000  Cu
  Cu3      1.0000 0.25000  0.75000  0.50000  Biso   1.000  Cu
  Cu4      1.0000 0.75000  0.25000  0.50000  Biso   1.000  Cu
  O1       1.0000 0.39300  0.31030  0.19320  Biso   1.000  O
  O2       1.0000 0.89300  0.81030  0.19320  Biso   1.000  O
  O3       1.0000 0.39300  0.68970  0.69320  Biso   1.000  O
  O4       1.0000 0.89300  0.18970  0.69320  Biso   1.000  O
  O5       1.0000 0.60700  0.68970  0.80680  Biso   1.000  O
  O6       1.0000 0.10700  0.18970  0.80680  Biso   1.000  O
  O7       1.0000 0.60700  0.31030  0.30680  Biso   1.000  O
  O8       1.0000 0.10700  0.81030  0.30680  Biso   1.000  O
  O9       1.0000 0.31580  0.43860  0.19650  Biso   1.000  O
  O10      1.0000 0.81580  0.93860  0.19650  Biso   1.000  O
  O11      1.0000 0.31580  0.56140  0.69650  Biso   1.000  O
  O12      1.0000 0.81580  0.06140  0.69650  Biso   1.000  O
  O13      1.0000 0.68420  0.56140  0.80350  Biso   1.000  O
  O14      1.0000 0.18420  0.06140  0.80350  Biso   1.000  O
  O15      1.0000 0.68420  0.43860  0.30350  Biso   1.000  O
  O16      1.0000 0.18420  0.93860  0.30350  Biso   1.000  O
  O17      1.0000 0.51860  0.17560  0.04950  Biso   1.000  O
  O18      1.0000 0.01860  0.67560  0.04950  Biso   1.000  O
  O19      1.0000 0.51860  0.82440  0.54950  Biso   1.000  O
  O20      1.0000 0.01860  0.32440  0.54950  Biso   1.000  O
  O21      1.0000 0.48140  0.82440  0.95050  Biso   1.000  O
  O22      1.0000 0.98140  0.32440  0.95050  Biso   1.000  O
  O23      1.0000 0.48140  0.17560  0.45050  Biso   1.000  O
  O24      1.0000 0.98140  0.67560  0.45050  Biso   1.000  O
  O25      1.0000 0.60910  0.10650  0.20990  Biso   1.000  O
  O26      1.0000 0.10910  0.60650  0.20990  Biso   1.000  O
  O27      1.0000 0.60910  0.89350  0.70990  Biso   1.000  O
  O28      1.0000 0.10910  0.39350  0.70990  Biso   1.000  O
  O29      1.0000 0.39090  0.89350  0.79010  Biso   1.000  O
  O30      1.0000 0.89090  0.39350  0.79010  Biso   1.000  O
  O31      1.0000 0.39090  0.10650  0.29010  Biso   1.000  O
  O32      1.0000 0.89090  0.60650  0.29010  Biso   1.000  O
  N1       1.0000 0.22230  0.13580  0.10120  Biso   1.000  N
  N2       1.0000 0.72230  0.63580  0.10120  Biso   1.000  N
  N3       1.0000 0.22230  0.86420  0.60120  Biso   1.000  N
  N4       1.0000 0.72230  0.36420  0.60120  Biso   1.000  N
  N5       1.0000 0.77770  0.86420  0.89880  Biso   1.000  N
  N6       1.0000 0.27770  0.36420  0.89880  Biso   1.000  N
  N7       1.0000 0.77770  0.13580  0.39880  Biso   1.000  N
  N8       1.0000 0.27770  0.63580  0.39880  Biso   1.000  N
  N9       1.0000 0.15960  0.30600  0.12910  Biso   1.000  N
  N10      1.0000 0.65960  0.80600  0.12910  Biso   1.000  N
  N11      1.0000 0.15960  0.69400  0.62910  Biso   1.000  N
  N12      1.0000 0.65960  0.19400  0.62910  Biso   1.000  N
  N13      1.0000 0.84040  0.69400  0.87090  Biso   1.000  N
  N14      1.0000 0.34040  0.19400  0.87090  Biso   1.000  N
  N15      1.0000 0.84040  0.30600  0.37090  Biso   1.000  N
  N16      1.0000 0.34040  0.80600  0.37090  Biso   1.000  N
  C1       1.0000 0.14070  0.15020  0.18410  Biso   1.000  C
  C2       1.0000 0.64070  0.65020  0.18410  Biso   1.000  C
  C3       1.0000 0.14070  0.84980  0.68410  Biso   1.000  C
  C4       1.0000 0.64070  0.34980  0.68410  Biso   1.000  C
  C5       1.0000 0.85930  0.84980  0.81590  Biso   1.000  C
  C6       1.0000 0.35930  0.34980  0.81590  Biso   1.000  C
  C7       1.0000 0.85930  0.15020  0.31590  Biso   1.000  C
  C8       1.0000 0.35930  0.65020  0.31590  Biso   1.000  C
  H1       1.0000 0.13980  0.10420  0.26230  Biso   1.000  H
  H2       1.0000 0.63980  0.60420  0.26230  Biso   1.000  H
  H3       1.0000 0.13980  0.89580  0.76230  Biso   1.000  H
  H4       1.0000 0.63980  0.39580  0.76230  Biso   1.000  H
  H5       1.0000 0.86020  0.89580  0.73770  Biso   1.000  H
  H6       1.0000 0.36020  0.39580  0.73770  Biso   1.000  H
  H7       1.0000 0.86020  0.10420  0.23770  Biso   1.000  H
  H8       1.0000 0.36020  0.60420  0.23770  Biso   1.000  H
  H9       1.0000 0.08090  0.14470  0.12060  Biso   1.000  H
  H10      1.0000 0.58090  0.64470  0.12060  Biso   1.000  H
  H11      1.0000 0.08090  0.85530  0.62060  Biso   1.000  H
  H12      1.0000 0.58090  0.35530  0.62060  Biso   1.000  H
  H13      1.0000 0.91910  0.85530  0.87940  Biso   1.000  H
  H14      1.0000 0.41910  0.35530  0.87940  Biso   1.000  H
  H15      1.0000 0.91910  0.14470  0.37940  Biso   1.000  H
  H16      1.0000 0.41910  0.64470  0.37940  Biso   1.000  H
  C9       1.0000 0.14740  0.24260  0.24680  Biso   1.000  C
  C10      1.0000 0.64740  0.74260  0.24680  Biso   1.000  C
  C11      1.0000 0.14740  0.75740  0.74680  Biso   1.000  C
  C12      1.0000 0.64740  0.25740  0.74680  Biso   1.000  C
  C13      1.0000 0.85260  0.75740  0.75320  Biso   1.000  C
  C14      1.0000 0.35260  0.25740  0.75320  Biso   1.000  C
  C15      1.0000 0.85260  0.24260  0.25320  Biso   1.000  C
  C16      1.0000 0.35260  0.74260  0.25320  Biso   1.000  C
  H17      1.0000 0.08940  0.25800  0.29560  Biso   1.000  H
  H18      1.0000 0.58940  0.75800  0.29560  Biso   1.000  H
  H19      1.0000 0.08940  0.74200  0.79560  Biso   1.000  H
  H20      1.0000 0.58940  0.24200  0.79560  Biso   1.000  H
  H21      1.0000 0.91060  0.74200  0.70440  Biso   1.000  H
  H22      1.0000 0.41060  0.24200  0.70440  Biso   1.000  H
  H23      1.0000 0.91060  0.25800  0.20440  Biso   1.000  H
  H24      1.0000 0.41060  0.75800  0.20440  Biso   1.000  H
  H25      1.0000 0.20310  0.24600  0.31920  Biso   1.000  H
  H26      1.0000 0.70310  0.74600  0.31920  Biso   1.000  H
  H27      1.0000 0.20310  0.75400  0.81920  Biso   1.000  H
  H28      1.0000 0.70310  0.25400  0.81920  Biso   1.000  H
  H29      1.0000 0.79690  0.75400  0.68080  Biso   1.000  H
  H30      1.0000 0.29690  0.25400  0.68080  Biso   1.000  H
  H31      1.0000 0.79690  0.24600  0.18080  Biso   1.000  H
  H32      1.0000 0.29690  0.74600  0.18080  Biso   1.000  H
  C17      1.0000 0.36900  0.38250  0.25530  Biso   1.000  C
  C18      1.0000 0.86900  0.88250  0.25530  Biso   1.000  C
  C19      1.0000 0.36900  0.61750  0.75530  Biso   1.000  C
  C20      1.0000 0.86900  0.11750  0.75530  Biso   1.000  C
  C21      1.0000 0.63100  0.61750  0.74470  Biso   1.000  C
  C22      1.0000 0.13100  0.11750  0.74470  Biso   1.000  C
  C23      1.0000 0.63100  0.38250  0.24470  Biso   1.000  C
  C24      1.0000 0.13100  0.88250  0.24470  Biso   1.000  C
  C25      1.0000 0.40750  0.39850  0.40790  Biso   1.000  C
  C26      1.0000 0.90750  0.89850  0.40790  Biso   1.000  C
  C27      1.0000 0.40750  0.60150  0.90790  Biso   1.000  C
  C28      1.0000 0.90750  0.10150  0.90790  Biso   1.000  C
  C29      1.0000 0.59250  0.60150  0.59210  Biso   1.000  C
  C30      1.0000 0.09250  0.10150  0.59210  Biso   1.000  C
  C31      1.0000 0.59250  0.39850  0.09210  Biso   1.000  C
  C32      1.0000 0.09250  0.89850  0.09210  Biso   1.000  C
  H33      1.0000 0.36390  0.43870  0.45740  Biso   1.000  H
  H34      1.0000 0.86390  0.93870  0.45740  Biso   1.000  H
  H35      1.0000 0.36390  0.56130  0.95740  Biso   1.000  H
  H36      1.0000 0.86390  0.06130  0.95740  Biso   1.000  H
  H37      1.0000 0.63610  0.56130  0.54260  Biso   1.000  H
  H38      1.0000 0.13610  0.06130  0.54260  Biso   1.000  H
  H39      1.0000 0.63610  0.43870  0.04260  Biso   1.000  H
  H40      1.0000 0.13610  0.93870  0.04260  Biso   1.000  H
  H41      1.0000 0.47150  0.42670  0.40810  Biso   1.000  H
  H42      1.0000 0.97150  0.92670  0.40810  Biso   1.000  H
  H43      1.0000 0.47150  0.57330  0.90810  Biso   1.000  H
  H44      1.0000 0.97150  0.07330  0.90810  Biso   1.000  H
  H45      1.0000 0.52850  0.57330  0.59190  Biso   1.000  H
  H46      1.0000 0.02850  0.07330  0.59190  Biso   1.000  H
  H47      1.0000 0.52850  0.42670  0.09190  Biso   1.000  H
  H48      1.0000 0.02850  0.92670  0.09190  Biso   1.000  H
  H49      1.0000 0.41480  0.33950  0.45910  Biso   1.000  H
  H50      1.0000 0.91480  0.83950  0.45910  Biso   1.000  H
  H51      1.0000 0.41480  0.66050  0.95910  Biso   1.000  H
  H52      1.0000 0.91480  0.16050  0.95910  Biso   1.000  H
  H53      1.0000 0.58520  0.66050  0.54090  Biso   1.000  H
  H54      1.0000 0.08520  0.16050  0.54090  Biso   1.000  H
  H55      1.0000 0.58520  0.33950  0.04090  Biso   1.000  H
  H56      1.0000 0.08520  0.83950  0.04090  Biso   1.000  H
  C33      1.0000 0.58020  0.11620  0.08320  Biso   1.000  C
  C34      1.0000 0.08020  0.61620  0.08320  Biso   1.000  C
  C35      1.0000 0.58020  0.88380  0.58320  Biso   1.000  C
  C36      1.0000 0.08020  0.38380  0.58320  Biso   1.000  C
  C37      1.0000 0.41980  0.88380  0.91680  Biso   1.000  C
  C38      1.0000 0.91980  0.38380  0.91680  Biso   1.000  C
  C39      1.0000 0.41980  0.11620  0.41680  Biso   1.000  C
  C40      1.0000 0.91980  0.61620  0.41680  Biso   1.000  C
  C41      1.0000 0.61350  0.05790  0.96860  Biso   1.000  C
  C42      1.0000 0.11350  0.55790  0.96860  Biso   1.000  C
  C43      1.0000 0.61350  0.94210  0.46860  Biso   1.000  C
  C44      1.0000 0.11350  0.44210  0.46860  Biso   1.000  C
  C45      1.0000 0.38650  0.94210  0.03140  Biso   1.000  C
  C46      1.0000 0.88650  0.44210  0.03140  Biso   1.000  C
  C47      1.0000 0.38650  0.05790  0.53140  Biso   1.000  C
  C48      1.0000 0.88650  0.55790  0.53140  Biso   1.000  C
  H57      1.0000 0.67060  0.08550  0.93050  Biso   1.000  H
  H58      1.0000 0.17060  0.58550  0.93050  Biso   1.000  H
  H59      1.0000 0.67060  0.91450  0.43050  Biso   1.000  H
  H60      1.0000 0.17060  0.41450  0.43050  Biso   1.000  H
  H61      1.0000 0.32940  0.91450  0.06950  Biso   1.000  H
  H62      1.0000 0.82940  0.41450  0.06950  Biso   1.000  H
  H63      1.0000 0.32940  0.08550  0.56950  Biso   1.000  H
  H64      1.0000 0.82940  0.58550  0.56950  Biso   1.000  H
  H65      1.0000 0.56300  0.05220  0.88810  Biso   1.000  H
  H66      1.0000 0.06300  0.55220  0.88810  Biso   1.000  H
  H67      1.0000 0.56300  0.94780  0.38810  Biso   1.000  H
  H68      1.0000 0.06300  0.44780  0.38810  Biso   1.000  H
  H69      1.0000 0.43700  0.94780  0.11190  Biso   1.000  H
  H70      1.0000 0.93700  0.44780  0.11190  Biso   1.000  H
  H71      1.0000 0.43700  0.05220  0.61190  Biso   1.000  H
  H72      1.0000 0.93700  0.55220  0.61190  Biso   1.000  H
  H73      1.0000 0.63010  0.99650  0.00640  Biso   1.000  H
  H74      1.0000 0.13010  0.49650  0.00640  Biso   1.000  H
  H75      1.0000 0.63010  0.00350  0.50640  Biso   1.000  H
  H76      1.0000 0.13010  0.50350  0.50640  Biso   1.000  H
  H77      1.0000 0.36990  0.00350  0.99360  Biso   1.000  H
  H78      1.0000 0.86990  0.50350  0.99360  Biso   1.000  H
  H79      1.0000 0.36990  0.99650  0.49360  Biso   1.000  H
  H80      1.0000 0.86990  0.49650  0.49360  Biso   1.000  H
  H81      1.0000 0.27650  0.10100  0.16410  Biso   1.000  H
  H82      1.0000 0.77650  0.60100  0.16410  Biso   1.000  H
  H83      1.0000 0.27650  0.89900  0.66410  Biso   1.000  H
  H84      1.0000 0.77650  0.39900  0.66410  Biso   1.000  H
  H85      1.0000 0.72350  0.89900  0.83590  Biso   1.000  H
  H86      1.0000 0.22350  0.39900  0.83590  Biso   1.000  H
  H87      1.0000 0.72350  0.10100  0.33590  Biso   1.000  H
  H88      1.0000 0.22350  0.60100  0.33590  Biso   1.000  H
  H89      1.0000 0.11120  0.31580  0.08100  Biso   1.000  H
  H90      1.0000 0.61120  0.81580  0.08100  Biso   1.000  H
  H91      1.0000 0.11120  0.68420  0.58100  Biso   1.000  H
  H92      1.0000 0.61120  0.18420  0.58100  Biso   1.000  H
  H93      1.0000 0.88880  0.68420  0.91900  Biso   1.000  H
  H94      1.0000 0.38880  0.18420  0.91900  Biso   1.000  H
  H95      1.0000 0.88880  0.31580  0.41900  Biso   1.000  H
  H96      1.0000 0.38880  0.81580  0.41900  Biso   1.000  H
  H97      1.0000 0.20650  0.10450  0.04270  Biso   1.000  H
  H98      1.0000 0.70650  0.60450  0.04270  Biso   1.000  H
  H99      1.0000 0.20650  0.89550  0.54270  Biso   1.000  H
  H100     1.0000 0.70650  0.39550  0.54270  Biso   1.000  H
  H101     1.0000 0.79350  0.89550  0.95730  Biso   1.000  H
  H102     1.0000 0.29350  0.39550  0.95730  Biso   1.000  H
  H103     1.0000 0.79350  0.10450  0.45730  Biso   1.000  H
  H104     1.0000 0.29350  0.60450  0.45730  Biso   1.000  H
  H105     1.0000 0.18370  0.35320  0.15640  Biso   1.000  H
  H106     1.0000 0.68370  0.85320  0.15640  Biso   1.000  H
  H107     1.0000 0.18370  0.64680  0.65640  Biso   1.000  H
  H108     1.0000 0.68370  0.14680  0.65640  Biso   1.000  H
  H109     1.0000 0.81630  0.64680  0.84360  Biso   1.000  H
  H110     1.0000 0.31630  0.14680  0.84360  Biso   1.000  H
  H111     1.0000 0.81630  0.35320  0.34360  Biso   1.000  H
  H112     1.0000 0.31630  0.85320  0.34360  Biso   1.000  H
