data_image0
_cell_length_a       7.0622
_cell_length_b       9.6969
_cell_length_c       11.3531
_cell_angle_alpha    90
_cell_angle_beta     105.308
_cell_angle_gamma    90

_symmetry_space_group_name_H-M    "P 1"
_symmetry_int_tables_number       1

loop_
  _symmetry_equiv_pos_as_xyz
  'x, y, z'

loop_
  _atom_site_label
  _atom_site_occupancy
  _atom_site_fract_x
  _atom_site_fract_y
  _atom_site_fract_z
  _atom_site_thermal_displace_type
  _atom_site_B_iso_or_equiv
  _atom_site_type_symbol
  Cu1      1.0000 0.14825  0.88096  0.71360  Biso   1.000  Cu
  Cu2      1.0000 0.64825  0.61904  0.21360  Biso   1.000  Cu
  Cu3      1.0000 0.85175  0.11904  0.28640  Biso   1.000  Cu
  Cu4      1.0000 0.35175  0.38096  0.78640  Biso   1.000  Cu
  O1       1.0000 0.23980  0.00860  0.59851  Biso   1.000  O
  O2       1.0000 0.73980  0.49140  0.09851  Biso   1.000  O
  O3       1.0000 0.76020  0.99140  0.40149  Biso   1.000  O
  O4       1.0000 0.26020  0.50860  0.90149  Biso   1.000  O
  N1       1.0000 0.41250  0.84110  0.81540  Biso   1.000  N
  N2       1.0000 0.91250  0.65890  0.31540  Biso   1.000  N
  N3       1.0000 0.58750  0.15890  0.18460  Biso   1.000  N
  N4       1.0000 0.08750  0.34110  0.68460  Biso   1.000  N
  N5       1.0000 0.73870  0.81750  0.95550  Biso   1.000  N
  N6       1.0000 0.23870  0.68250  0.45550  Biso   1.000  N
  N7       1.0000 0.26130  0.18250  0.04450  Biso   1.000  N
  N8       1.0000 0.76130  0.31750  0.54450  Biso   1.000  N
  N9       1.0000 0.87170  0.95520  0.13840  Biso   1.000  N
  N10      1.0000 0.37170  0.54480  0.63840  Biso   1.000  N
  N11      1.0000 0.12830  0.04480  0.86160  Biso   1.000  N
  N12      1.0000 0.62830  0.45520  0.36160  Biso   1.000  N
  N13      1.0000 0.09700  0.10550  0.40960  Biso   1.000  N
  N14      1.0000 0.59700  0.39450  0.90960  Biso   1.000  N
  N15      1.0000 0.90300  0.89450  0.59040  Biso   1.000  N
  N16      1.0000 0.40300  0.60550  0.09040  Biso   1.000  N
  N17      1.0000 0.99730  0.26670  0.22070  Biso   1.000  N
  N18      1.0000 0.49730  0.23330  0.72070  Biso   1.000  N
  N19      1.0000 0.00270  0.73330  0.77930  Biso   1.000  N
  N20      1.0000 0.50270  0.76670  0.27930  Biso   1.000  N
  H1       1.0000 0.91720  0.33880  0.19390  Biso   1.000  H
  H2       1.0000 0.41720  0.16120  0.69390  Biso   1.000  H
  H3       1.0000 0.08280  0.66120  0.80610  Biso   1.000  H
  H4       1.0000 0.58280  0.83880  0.30610  Biso   1.000  H
  H5       1.0000 0.03770  0.23330  0.15740  Biso   1.000  H
  H6       1.0000 0.53770  0.26670  0.65740  Biso   1.000  H
  H7       1.0000 0.96230  0.76670  0.84260  Biso   1.000  H
  H8       1.0000 0.46230  0.73330  0.34260  Biso   1.000  H
  C1       1.0000 0.56270  0.83480  0.88450  Biso   1.000  C
  C2       1.0000 0.06270  0.66520  0.38450  Biso   1.000  C
  C3       1.0000 0.43730  0.16520  0.11550  Biso   1.000  C
  C4       1.0000 0.93730  0.33480  0.61550  Biso   1.000  C
  C5       1.0000 0.80050  0.89500  0.05170  Biso   1.000  C
  C6       1.0000 0.30050  0.60500  0.55170  Biso   1.000  C
  C7       1.0000 0.19950  0.10500  0.94830  Biso   1.000  C
  C8       1.0000 0.69950  0.39500  0.44830  Biso   1.000  C
  C9       1.0000 0.09960  0.03240  0.50390  Biso   1.000  C
  C10      1.0000 0.59960  0.46760  0.00390  Biso   1.000  C
  C11      1.0000 0.90040  0.96760  0.49610  Biso   1.000  C
  C12      1.0000 0.40040  0.53240  0.99610  Biso   1.000  C
  C13      1.0000 0.26050  0.18640  0.39070  Biso   1.000  C
  C14      1.0000 0.76050  0.31360  0.89070  Biso   1.000  C
  C15      1.0000 0.73950  0.81360  0.60930  Biso   1.000  C
  C16      1.0000 0.23950  0.68640  0.10930  Biso   1.000  C
  H9       1.0000 0.34810  0.21360  0.46830  Biso   1.000  H
  H10      1.0000 0.84810  0.28640  0.96830  Biso   1.000  H
  H11      1.0000 0.65190  0.78640  0.53170  Biso   1.000  H
  H12      1.0000 0.15190  0.71360  0.03170  Biso   1.000  H
  H13      1.0000 0.33440  0.13360  0.34530  Biso   1.000  H
  H14      1.0000 0.83440  0.36640  0.84530  Biso   1.000  H
  H15      1.0000 0.66560  0.86640  0.65470  Biso   1.000  H
  H16      1.0000 0.16560  0.63360  0.15470  Biso   1.000  H
  C17      1.0000 0.16800  0.31180  0.31860  Biso   1.000  C
  C18      1.0000 0.66800  0.18820  0.81860  Biso   1.000  C
  C19      1.0000 0.83200  0.68820  0.68140  Biso   1.000  C
  C20      1.0000 0.33200  0.81180  0.18140  Biso   1.000  C
  H17      1.0000 0.26280  0.35740  0.28360  Biso   1.000  H
  H18      1.0000 0.76280  0.14260  0.78360  Biso   1.000  H
  H19      1.0000 0.73720  0.64260  0.71640  Biso   1.000  H
  H20      1.0000 0.23720  0.85740  0.21640  Biso   1.000  H
  H21      1.0000 0.12660  0.37670  0.37190  Biso   1.000  H
  H22      1.0000 0.62660  0.12330  0.87190  Biso   1.000  H
  H23      1.0000 0.87340  0.62330  0.62810  Biso   1.000  H
  H24      1.0000 0.37340  0.87670  0.12810  Biso   1.000  H
