data_image0
_cell_length_a       19.057
_cell_length_b       5.5459
_cell_length_c       13.697
_cell_angle_alpha    90
_cell_angle_beta     90
_cell_angle_gamma    90

_symmetry_space_group_name_H-M    "P 1"
_symmetry_int_tables_number       1

loop_
  _symmetry_equiv_pos_as_xyz
  'x, y, z'

loop_
  _atom_site_label
  _atom_site_occupancy
  _atom_site_fract_x
  _atom_site_fract_y
  _atom_site_fract_z
  _atom_site_thermal_displace_type
  _atom_site_B_iso_or_equiv
  _atom_site_type_symbol
  Cu1      1.0000 0.68164  0.06755  0.45778  Biso   1.000  Cu
  Cu2      1.0000 0.31836  0.93245  0.95778  Biso   1.000  Cu
  Cu3      1.0000 0.18164  0.93245  0.45778  Biso   1.000  Cu
  Cu4      1.0000 0.81836  0.06755  0.95778  Biso   1.000  Cu
  N1       1.0000 0.70150  0.35350  0.54970  Biso   1.000  N
  N2       1.0000 0.29850  0.64650  0.04970  Biso   1.000  N
  N3       1.0000 0.20150  0.64650  0.54970  Biso   1.000  N
  N4       1.0000 0.79850  0.35350  0.04970  Biso   1.000  N
  N5       1.0000 0.78300  0.12440  0.43120  Biso   1.000  N
  N6       1.0000 0.21700  0.87560  0.93120  Biso   1.000  N
  N7       1.0000 0.28300  0.87560  0.43120  Biso   1.000  N
  N8       1.0000 0.71700  0.12440  0.93120  Biso   1.000  N
  N9       1.0000 0.82730  0.03030  0.36370  Biso   1.000  N
  N10      1.0000 0.17270  0.96970  0.86370  Biso   1.000  N
  N11      1.0000 0.32730  0.96970  0.36370  Biso   1.000  N
  N12      1.0000 0.67270  0.03030  0.86370  Biso   1.000  N
  N13      1.0000 0.87100  0.37540  0.42340  Biso   1.000  N
  N14      1.0000 0.12900  0.62460  0.92340  Biso   1.000  N
  N15      1.0000 0.37100  0.62460  0.42340  Biso   1.000  N
  N16      1.0000 0.62900  0.37540  0.92340  Biso   1.000  N
  C1       1.0000 0.65710  0.45090  0.61260  Biso   1.000  C
  C2       1.0000 0.34290  0.54910  0.11260  Biso   1.000  C
  C3       1.0000 0.15710  0.54910  0.61260  Biso   1.000  C
  C4       1.0000 0.84290  0.45090  0.11260  Biso   1.000  C
  H1       1.0000 0.61170  0.38170  0.61860  Biso   1.000  H
  H2       1.0000 0.38830  0.61830  0.11860  Biso   1.000  H
  H3       1.0000 0.11170  0.61830  0.61860  Biso   1.000  H
  H4       1.0000 0.88830  0.38170  0.11860  Biso   1.000  H
  C5       1.0000 0.67340  0.64840  0.67020  Biso   1.000  C
  C6       1.0000 0.32660  0.35160  0.17020  Biso   1.000  C
  C7       1.0000 0.17340  0.35160  0.67020  Biso   1.000  C
  C8       1.0000 0.82660  0.64840  0.17020  Biso   1.000  C
  H5       1.0000 0.64040  0.70980  0.71590  Biso   1.000  H
  H6       1.0000 0.35960  0.29020  0.21590  Biso   1.000  H
  H7       1.0000 0.14040  0.29020  0.71590  Biso   1.000  H
  H8       1.0000 0.85960  0.70980  0.21590  Biso   1.000  H
  C9       1.0000 0.73820  0.75370  0.65990  Biso   1.000  C
  C10      1.0000 0.26180  0.24630  0.15990  Biso   1.000  C
  C11      1.0000 0.23820  0.24630  0.65990  Biso   1.000  C
  C12      1.0000 0.76180  0.75370  0.15990  Biso   1.000  C
  H9       1.0000 0.75000  0.89240  0.69710  Biso   1.000  H
  H10      1.0000 0.25000  0.10760  0.19710  Biso   1.000  H
  H11      1.0000 0.25000  0.10760  0.69710  Biso   1.000  H
  H12      1.0000 0.75000  0.89240  0.19710  Biso   1.000  H
  C13      1.0000 0.78640  0.65670  0.59470  Biso   1.000  C
  C14      1.0000 0.21360  0.34330  0.09470  Biso   1.000  C
  C15      1.0000 0.28640  0.34330  0.59470  Biso   1.000  C
  C16      1.0000 0.71360  0.65670  0.09470  Biso   1.000  C
  H13      1.0000 0.83180  0.72520  0.58750  Biso   1.000  H
  H14      1.0000 0.16820  0.27480  0.08750  Biso   1.000  H
  H15      1.0000 0.33180  0.27480  0.58750  Biso   1.000  H
  H16      1.0000 0.66820  0.72520  0.08750  Biso   1.000  H
  C17      1.0000 0.76620  0.45500  0.53990  Biso   1.000  C
  C18      1.0000 0.23380  0.54500  0.03990  Biso   1.000  C
  C19      1.0000 0.26620  0.54500  0.53990  Biso   1.000  C
  C20      1.0000 0.73380  0.45500  0.03990  Biso   1.000  C
  C21      1.0000 0.80820  0.32860  0.46820  Biso   1.000  C
  C22      1.0000 0.19180  0.67140  0.96820  Biso   1.000  C
  C23      1.0000 0.30820  0.67140  0.46820  Biso   1.000  C
  C24      1.0000 0.69180  0.32860  0.96820  Biso   1.000  C
  C25      1.0000 0.88120  0.18440  0.35840  Biso   1.000  C
  C26      1.0000 0.11880  0.81560  0.85840  Biso   1.000  C
  C27      1.0000 0.38120  0.81560  0.35840  Biso   1.000  C
  C28      1.0000 0.61880  0.18440  0.85840  Biso   1.000  C
  C29      1.0000 0.94250  0.17540  0.30130  Biso   1.000  C
  C30      1.0000 0.05750  0.82460  0.80130  Biso   1.000  C
  C31      1.0000 0.44250  0.82460  0.30130  Biso   1.000  C
  C32      1.0000 0.55750  0.17540  0.80130  Biso   1.000  C
  H17      1.0000 0.95060  0.04420  0.25810  Biso   1.000  H
  H18      1.0000 0.04940  0.95580  0.75810  Biso   1.000  H
  H19      1.0000 0.45060  0.95580  0.25810  Biso   1.000  H
  H20      1.0000 0.54940  0.04420  0.75810  Biso   1.000  H
  C33      1.0000 0.98940  0.35570  0.30880  Biso   1.000  C
  C34      1.0000 0.01060  0.64430  0.80880  Biso   1.000  C
  C35      1.0000 0.48940  0.64430  0.30880  Biso   1.000  C
  C36      1.0000 0.51060  0.35570  0.80880  Biso   1.000  C
  H21      1.0000 0.03020  0.35390  0.26900  Biso   1.000  H
  H22      1.0000 0.96980  0.64610  0.76900  Biso   1.000  H
  H23      1.0000 0.53020  0.64610  0.26900  Biso   1.000  H
  H24      1.0000 0.46980  0.35390  0.76900  Biso   1.000  H
  C37      1.0000 0.97860  0.55080  0.37610  Biso   1.000  C
  C38      1.0000 0.02140  0.44920  0.87610  Biso   1.000  C
  C39      1.0000 0.47860  0.44920  0.37610  Biso   1.000  C
  C40      1.0000 0.52140  0.55080  0.87610  Biso   1.000  C
  H25      1.0000 0.01270  0.67510  0.38120  Biso   1.000  H
  H26      1.0000 0.98730  0.32490  0.88120  Biso   1.000  H
  H27      1.0000 0.51270  0.32490  0.38120  Biso   1.000  H
  H28      1.0000 0.48730  0.67510  0.88120  Biso   1.000  H
  C41      1.0000 0.92040  0.55920  0.43230  Biso   1.000  C
  C42      1.0000 0.07960  0.44080  0.93230  Biso   1.000  C
  C43      1.0000 0.42040  0.44080  0.43230  Biso   1.000  C
  C44      1.0000 0.57960  0.55920  0.93230  Biso   1.000  C
  H29      1.0000 0.91320  0.68800  0.47690  Biso   1.000  H
  H30      1.0000 0.08680  0.31200  0.97690  Biso   1.000  H
  H31      1.0000 0.41320  0.31200  0.47690  Biso   1.000  H
  H32      1.0000 0.58680  0.68800  0.97690  Biso   1.000  H
  N17      1.0000 0.58830  0.02030  0.51100  Biso   1.000  N
  N18      1.0000 0.41170  0.97970  0.01100  Biso   1.000  N
  N19      1.0000 0.08830  0.97970  0.51100  Biso   1.000  N
  N20      1.0000 0.91170  0.02030  0.01100  Biso   1.000  N
  C45      1.0000 0.53430  0.97250  0.54690  Biso   1.000  C
  C46      1.0000 0.46570  0.02750  0.04690  Biso   1.000  C
  C47      1.0000 0.03430  0.02750  0.54690  Biso   1.000  C
  C48      1.0000 0.96570  0.97250  0.04690  Biso   1.000  C
  S1       1.0000 0.46025  0.90910  0.60075  Biso   1.000  S
  S2       1.0000 0.53975  0.09090  0.10075  Biso   1.000  S
  S3       1.0000 0.96025  0.09090  0.60075  Biso   1.000  S
  S4       1.0000 0.03975  0.90910  0.10075  Biso   1.000  S
  N21      1.0000 0.67910  0.76350  0.38390  Biso   1.000  N
  N22      1.0000 0.32090  0.23650  0.88390  Biso   1.000  N
  N23      1.0000 0.17910  0.23650  0.38390  Biso   1.000  N
  N24      1.0000 0.82090  0.76350  0.88390  Biso   1.000  N
  C49      1.0000 0.66880  0.57950  0.34800  Biso   1.000  C
  C50      1.0000 0.33120  0.42050  0.84800  Biso   1.000  C
  C51      1.0000 0.16880  0.42050  0.34800  Biso   1.000  C
  C52      1.0000 0.83120  0.57950  0.84800  Biso   1.000  C
  S5       1.0000 0.65424  0.31800  0.29568  Biso   1.000  S
  S6       1.0000 0.34576  0.68200  0.79568  Biso   1.000  S
  S7       1.0000 0.15424  0.68200  0.29568  Biso   1.000  S
  S8       1.0000 0.84576  0.31800  0.79568  Biso   1.000  S
