data_image0
_cell_length_a       9.0315
_cell_length_b       13.2968
_cell_length_c       7.7103
_cell_angle_alpha    90
_cell_angle_beta     109.747
_cell_angle_gamma    90

_symmetry_space_group_name_H-M    "P 1"
_symmetry_int_tables_number       1

loop_
  _symmetry_equiv_pos_as_xyz
  'x, y, z'

loop_
  _atom_site_label
  _atom_site_occupancy
  _atom_site_fract_x
  _atom_site_fract_y
  _atom_site_fract_z
  _atom_site_thermal_displace_type
  _atom_site_B_iso_or_equiv
  _atom_site_type_symbol
  Cu1      1.0000 0.50000  0.50000  0.00000  Biso   1.000  Cu
  Cu2      1.0000 0.50000  0.00000  0.50000  Biso   1.000  Cu
  S1       1.0000 0.71708  0.59072  0.46778  Biso   1.000  S
  S2       1.0000 0.28292  0.09072  0.03222  Biso   1.000  S
  S3       1.0000 0.28292  0.40928  0.53222  Biso   1.000  S
  S4       1.0000 0.71708  0.90928  0.96778  Biso   1.000  S
  O1       1.0000 0.75970  0.54705  0.65140  Biso   1.000  O
  O2       1.0000 0.24030  0.04705  0.84860  Biso   1.000  O
  O3       1.0000 0.24030  0.45295  0.34860  Biso   1.000  O
  O4       1.0000 0.75970  0.95295  0.15140  Biso   1.000  O
  O5       1.0000 0.63010  0.51986  0.32740  Biso   1.000  O
  O6       1.0000 0.36990  0.01986  0.17260  Biso   1.000  O
  O7       1.0000 0.36990  0.48014  0.67260  Biso   1.000  O
  O8       1.0000 0.63010  0.98014  0.82740  Biso   1.000  O
  O9       1.0000 0.85155  0.63461  0.43350  Biso   1.000  O
  O10      1.0000 0.14845  0.13461  0.06650  Biso   1.000  O
  O11      1.0000 0.14845  0.36539  0.56650  Biso   1.000  O
  O12      1.0000 0.85155  0.86539  0.93350  Biso   1.000  O
  O13      1.0000 0.30405  0.52269  0.05270  Biso   1.000  O
  O14      1.0000 0.69595  0.02269  0.44730  Biso   1.000  O
  O15      1.0000 0.69595  0.47731  0.94730  Biso   1.000  O
  O16      1.0000 0.30405  0.97731  0.55270  Biso   1.000  O
  O17      1.0000 0.03962  0.44578  0.82550  Biso   1.000  O
  O18      1.0000 0.96038  0.94578  0.67450  Biso   1.000  O
  O19      1.0000 0.96038  0.55422  0.17450  Biso   1.000  O
  O20      1.0000 0.03962  0.05422  0.32550  Biso   1.000  O
  O21      1.0000 0.89380  0.28570  0.97120  Biso   1.000  O
  O22      1.0000 0.10620  0.78570  0.52880  Biso   1.000  O
  O23      1.0000 0.10620  0.71430  0.02880  Biso   1.000  O
  O24      1.0000 0.89380  0.21430  0.47120  Biso   1.000  O
  N1       1.0000 0.51190  0.85052  0.46910  Biso   1.000  N
  N2       1.0000 0.48810  0.35052  0.03090  Biso   1.000  N
  N3       1.0000 0.48810  0.14948  0.53090  Biso   1.000  N
  N4       1.0000 0.51190  0.64948  0.96910  Biso   1.000  N
  N5       1.0000 0.40130  0.78560  0.48200  Biso   1.000  N
  N6       1.0000 0.59870  0.28560  0.01800  Biso   1.000  N
  N7       1.0000 0.59870  0.21440  0.51800  Biso   1.000  N
  N8       1.0000 0.40130  0.71440  0.98200  Biso   1.000  N
  H1       1.0000 0.31250  0.80360  0.49050  Biso   1.000  H
  H2       1.0000 0.68750  0.30360  0.00950  Biso   1.000  H
  H3       1.0000 0.68750  0.19640  0.50950  Biso   1.000  H
  H4       1.0000 0.31250  0.69640  0.99050  Biso   1.000  H
  C1       1.0000 0.44600  0.69047  0.48010  Biso   1.000  C
  C2       1.0000 0.55400  0.19047  0.01990  Biso   1.000  C
  C3       1.0000 0.55400  0.30953  0.51990  Biso   1.000  C
  C4       1.0000 0.44600  0.80953  0.98010  Biso   1.000  C
  H5       1.0000 0.38860  0.63350  0.48730  Biso   1.000  H
  H6       1.0000 0.61140  0.13350  0.01270  Biso   1.000  H
  H7       1.0000 0.61140  0.36650  0.51270  Biso   1.000  H
  H8       1.0000 0.38860  0.86650  0.98730  Biso   1.000  H
  C5       1.0000 0.59330  0.69250  0.46530  Biso   1.000  C
  C6       1.0000 0.40670  0.19250  0.03470  Biso   1.000  C
  C7       1.0000 0.40670  0.30750  0.53470  Biso   1.000  C
  C8       1.0000 0.59330  0.80750  0.96530  Biso   1.000  C
  C9       1.0000 0.62930  0.79334  0.45810  Biso   1.000  C
  C10      1.0000 0.37070  0.29334  0.04190  Biso   1.000  C
  C11      1.0000 0.37070  0.20666  0.54190  Biso   1.000  C
  C12      1.0000 0.62930  0.70666  0.95810  Biso   1.000  C
  H9       1.0000 0.72230  0.81760  0.44720  Biso   1.000  H
  H10      1.0000 0.27770  0.31760  0.05280  Biso   1.000  H
  H11      1.0000 0.27770  0.18240  0.55280  Biso   1.000  H
  H12      1.0000 0.72230  0.68240  0.94720  Biso   1.000  H
  H13      1.0000 0.22290  0.50270  0.98120  Biso   1.000  H
  H14      1.0000 0.77710  0.00270  0.51880  Biso   1.000  H
  H15      1.0000 0.77710  0.49730  0.01880  Biso   1.000  H
  H16      1.0000 0.22290  0.99730  0.48120  Biso   1.000  H
  H17      1.0000 0.30740  0.50700  0.15280  Biso   1.000  H
  H18      1.0000 0.69260  0.00700  0.34720  Biso   1.000  H
  H19      1.0000 0.69260  0.49300  0.84720  Biso   1.000  H
  H20      1.0000 0.30740  0.99300  0.65280  Biso   1.000  H
  H21      1.0000 0.96320  0.48240  0.77550  Biso   1.000  H
  H22      1.0000 0.03680  0.98240  0.72450  Biso   1.000  H
  H23      1.0000 0.03680  0.51760  0.22450  Biso   1.000  H
  H24      1.0000 0.96320  0.01760  0.27550  Biso   1.000  H
  H25      1.0000 0.06620  0.42490  0.74420  Biso   1.000  H
  H26      1.0000 0.93380  0.92490  0.75580  Biso   1.000  H
  H27      1.0000 0.93380  0.57510  0.25580  Biso   1.000  H
  H28      1.0000 0.06620  0.07510  0.24420  Biso   1.000  H
  H29      1.0000 0.92880  0.32740  0.92200  Biso   1.000  H
  H30      1.0000 0.07120  0.82740  0.57800  Biso   1.000  H
  H31      1.0000 0.07120  0.67260  0.07800  Biso   1.000  H
  H32      1.0000 0.92880  0.17260  0.42200  Biso   1.000  H
  H33      1.0000 0.94020  0.23340  0.98060  Biso   1.000  H
  H34      1.0000 0.05980  0.73340  0.51940  Biso   1.000  H
  H35      1.0000 0.05980  0.76660  0.01940  Biso   1.000  H
  H36      1.0000 0.94020  0.26660  0.48060  Biso   1.000  H
