data_image0
_cell_length_a       10.0956
_cell_length_b       6.871
_cell_length_c       18.6152
_cell_angle_alpha    90
_cell_angle_beta     97.27
_cell_angle_gamma    90

_symmetry_space_group_name_H-M    "P 1"
_symmetry_int_tables_number       1

loop_
  _symmetry_equiv_pos_as_xyz
  'x, y, z'

loop_
  _atom_site_label
  _atom_site_occupancy
  _atom_site_fract_x
  _atom_site_fract_y
  _atom_site_fract_z
  _atom_site_thermal_displace_type
  _atom_site_B_iso_or_equiv
  _atom_site_type_symbol
  Cu1      1.0000 0.50000  0.50000  0.50000  Biso   1.000  Cu
  Cu2      1.0000 0.50000  0.50000  0.00000  Biso   1.000  Cu
  C1       1.0000 0.28280  0.40390  0.38075  Biso   1.000  C
  C2       1.0000 0.28280  0.59610  0.88075  Biso   1.000  C
  C3       1.0000 0.71720  0.59610  0.61925  Biso   1.000  C
  C4       1.0000 0.71720  0.40390  0.11925  Biso   1.000  C
  H1       1.0000 0.26490  0.53960  0.38160  Biso   1.000  H
  H2       1.0000 0.26490  0.46040  0.88160  Biso   1.000  H
  H3       1.0000 0.73510  0.46040  0.61840  Biso   1.000  H
  H4       1.0000 0.73510  0.53960  0.11840  Biso   1.000  H
  C5       1.0000 0.19900  0.28600  0.33511  Biso   1.000  C
  C6       1.0000 0.19900  0.71400  0.83511  Biso   1.000  C
  C7       1.0000 0.80100  0.71400  0.66489  Biso   1.000  C
  C8       1.0000 0.80100  0.28600  0.16489  Biso   1.000  C
  C9       1.0000 0.22360  0.08680  0.33456  Biso   1.000  C
  C10      1.0000 0.22360  0.91320  0.83456  Biso   1.000  C
  C11      1.0000 0.77640  0.91320  0.66544  Biso   1.000  C
  C12      1.0000 0.77640  0.08680  0.16544  Biso   1.000  C
  H5       1.0000 0.16520  0.00160  0.30540  Biso   1.000  H
  H6       1.0000 0.16520  0.99840  0.80540  Biso   1.000  H
  H7       1.0000 0.83480  0.99840  0.69460  Biso   1.000  H
  H8       1.0000 0.83480  0.00160  0.19460  Biso   1.000  H
  C13      1.0000 0.33440  0.01590  0.37713  Biso   1.000  C
  C14      1.0000 0.33440  0.98410  0.87713  Biso   1.000  C
  C15      1.0000 0.66560  0.98410  0.62287  Biso   1.000  C
  C16      1.0000 0.66560  0.01590  0.12287  Biso   1.000  C
  H9       1.0000 0.35560  0.88120  0.37670  Biso   1.000  H
  H10      1.0000 0.35560  0.11880  0.87670  Biso   1.000  H
  H11      1.0000 0.64440  0.11880  0.62330  Biso   1.000  H
  H12      1.0000 0.64440  0.88120  0.12330  Biso   1.000  H
  C17      1.0000 0.41440  0.14340  0.42045  Biso   1.000  C
  C18      1.0000 0.41440  0.85660  0.92045  Biso   1.000  C
  C19      1.0000 0.58560  0.85660  0.57955  Biso   1.000  C
  C20      1.0000 0.58560  0.14340  0.07955  Biso   1.000  C
  H13      1.0000 0.49140  0.09360  0.44910  Biso   1.000  H
  H14      1.0000 0.49140  0.90640  0.94910  Biso   1.000  H
  H15      1.0000 0.50860  0.90640  0.55090  Biso   1.000  H
  H16      1.0000 0.50860  0.09360  0.05090  Biso   1.000  H
  C21      1.0000 0.08710  0.37150  0.28812  Biso   1.000  C
  C22      1.0000 0.08710  0.62850  0.78812  Biso   1.000  C
  C23      1.0000 0.91290  0.62850  0.71188  Biso   1.000  C
  C24      1.0000 0.91290  0.37150  0.21188  Biso   1.000  C
  C25      1.0000 0.32900  0.33460  0.61291  Biso   1.000  C
  C26      1.0000 0.32900  0.66540  0.11291  Biso   1.000  C
  C27      1.0000 0.67100  0.66540  0.38709  Biso   1.000  C
  C28      1.0000 0.67100  0.33460  0.88709  Biso   1.000  C
  C29      1.0000 0.23240  0.48150  0.59409  Biso   1.000  C
  C30      1.0000 0.23240  0.51850  0.09409  Biso   1.000  C
  C31      1.0000 0.76760  0.51850  0.40591  Biso   1.000  C
  C32      1.0000 0.76760  0.48150  0.90591  Biso   1.000  C
  H17      1.0000 0.15350  0.47990  0.61700  Biso   1.000  H
  H18      1.0000 0.15350  0.52010  0.11700  Biso   1.000  H
  H19      1.0000 0.84650  0.52010  0.38300  Biso   1.000  H
  H20      1.0000 0.84650  0.47990  0.88300  Biso   1.000  H
  C33      1.0000 0.24610  0.62610  0.54468  Biso   1.000  C
  C34      1.0000 0.24610  0.37390  0.04468  Biso   1.000  C
  C35      1.0000 0.75390  0.37390  0.45532  Biso   1.000  C
  C36      1.0000 0.75390  0.62610  0.95532  Biso   1.000  C
  C37      1.0000 0.30140  0.19630  0.67422  Biso   1.000  C
  C38      1.0000 0.30140  0.80370  0.17422  Biso   1.000  C
  C39      1.0000 0.69860  0.80370  0.32578  Biso   1.000  C
  C40      1.0000 0.69860  0.19630  0.82578  Biso   1.000  C
  C41      1.0000 0.13140  0.77040  0.52696  Biso   1.000  C
  C42      1.0000 0.13140  0.22960  0.02696  Biso   1.000  C
  C43      1.0000 0.86860  0.22960  0.47304  Biso   1.000  C
  C44      1.0000 0.86860  0.77040  0.97304  Biso   1.000  C
  N1       1.0000 0.38839  0.33350  0.42392  Biso   1.000  N
  N2       1.0000 0.38839  0.66650  0.92392  Biso   1.000  N
  N3       1.0000 0.61161  0.66650  0.57608  Biso   1.000  N
  N4       1.0000 0.61161  0.33350  0.07608  Biso   1.000  N
  N5       1.0000 0.05812  0.55140  0.27559  Biso   1.000  N
  N6       1.0000 0.05812  0.44860  0.77559  Biso   1.000  N
  N7       1.0000 0.94188  0.44860  0.72441  Biso   1.000  N
  N8       1.0000 0.94188  0.55140  0.22441  Biso   1.000  N
  O1       1.0000 0.00000  0.24670  0.25000  Biso   1.000  O
  O2       1.0000 0.00000  0.75330  0.75000  Biso   1.000  O
  O3       1.0000 0.43487  0.30760  0.58827  Biso   1.000  O
  O4       1.0000 0.43487  0.69240  0.08827  Biso   1.000  O
  O5       1.0000 0.56513  0.69240  0.41173  Biso   1.000  O
  O6       1.0000 0.56513  0.30760  0.91173  Biso   1.000  O
  O7       1.0000 0.34116  0.66050  0.50826  Biso   1.000  O
  O8       1.0000 0.34116  0.33950  0.00826  Biso   1.000  O
  O9       1.0000 0.65884  0.33950  0.49174  Biso   1.000  O
  O10      1.0000 0.65884  0.66050  0.99174  Biso   1.000  O
  F1       1.0000 0.17229  0.15430  0.67309  Biso   1.000  F
  F2       1.0000 0.17229  0.84570  0.17309  Biso   1.000  F
  F3       1.0000 0.82771  0.84570  0.32691  Biso   1.000  F
  F4       1.0000 0.82771  0.15430  0.82691  Biso   1.000  F
  F5       1.0000 0.36610  0.02940  0.67196  Biso   1.000  F
  F6       1.0000 0.36610  0.97060  0.17196  Biso   1.000  F
  F7       1.0000 0.63390  0.97060  0.32804  Biso   1.000  F
  F8       1.0000 0.63390  0.02940  0.82804  Biso   1.000  F
  F9       1.0000 0.34118  0.27970  0.73833  Biso   1.000  F
  F10      1.0000 0.34118  0.72030  0.23833  Biso   1.000  F
  F11      1.0000 0.65882  0.72030  0.26167  Biso   1.000  F
  F12      1.0000 0.65882  0.27970  0.76167  Biso   1.000  F
  F13      1.0000 0.03795  0.75920  0.57021  Biso   1.000  F
  F14      1.0000 0.03795  0.24080  0.07021  Biso   1.000  F
  F15      1.0000 0.96205  0.24080  0.42979  Biso   1.000  F
  F16      1.0000 0.96205  0.75920  0.92979  Biso   1.000  F
  F17      1.0000 0.07336  0.74210  0.45924  Biso   1.000  F
  F18      1.0000 0.07336  0.25790  0.95924  Biso   1.000  F
  F19      1.0000 0.92664  0.25790  0.54076  Biso   1.000  F
  F20      1.0000 0.92664  0.74210  0.04076  Biso   1.000  F
  F21      1.0000 0.17479  0.95330  0.52892  Biso   1.000  F
  F22      1.0000 0.17479  0.04670  0.02892  Biso   1.000  F
  F23      1.0000 0.82521  0.04670  0.47108  Biso   1.000  F
  F24      1.0000 0.82521  0.95330  0.97108  Biso   1.000  F
