data_image0
_cell_length_a       9.2277
_cell_length_b       16.0479
_cell_length_c       18.3403
_cell_angle_alpha    90
_cell_angle_beta     91.126
_cell_angle_gamma    90

_symmetry_space_group_name_H-M    "P 1"
_symmetry_int_tables_number       1

loop_
  _symmetry_equiv_pos_as_xyz
  'x, y, z'

loop_
  _atom_site_label
  _atom_site_occupancy
  _atom_site_fract_x
  _atom_site_fract_y
  _atom_site_fract_z
  _atom_site_thermal_displace_type
  _atom_site_B_iso_or_equiv
  _atom_site_type_symbol
  Cu1      1.0000 0.51134  0.35664  0.22700  Biso   1.000  Cu
  Cu2      1.0000 0.51134  0.14336  0.72700  Biso   1.000  Cu
  Cu3      1.0000 0.48866  0.64336  0.77300  Biso   1.000  Cu
  Cu4      1.0000 0.48866  0.85664  0.27300  Biso   1.000  Cu
  C1       1.0000 0.24690  0.43550  0.28400  Biso   1.000  C
  C2       1.0000 0.24690  0.06450  0.78400  Biso   1.000  C
  C3       1.0000 0.75310  0.56450  0.71600  Biso   1.000  C
  C4       1.0000 0.75310  0.93550  0.21600  Biso   1.000  C
  H1       1.0000 0.29950  0.48440  0.27830  Biso   1.000  H
  H2       1.0000 0.29950  0.01560  0.77830  Biso   1.000  H
  H3       1.0000 0.70050  0.51560  0.72170  Biso   1.000  H
  H4       1.0000 0.70050  0.98440  0.22170  Biso   1.000  H
  C5       1.0000 0.10980  0.44030  0.31220  Biso   1.000  C
  C6       1.0000 0.10980  0.05970  0.81220  Biso   1.000  C
  C7       1.0000 0.89020  0.55970  0.68780  Biso   1.000  C
  C8       1.0000 0.89020  0.94030  0.18780  Biso   1.000  C
  C9       1.0000 0.03130  0.36750  0.32090  Biso   1.000  C
  C10      1.0000 0.03130  0.13250  0.82090  Biso   1.000  C
  C11      1.0000 0.96870  0.63250  0.67910  Biso   1.000  C
  C12      1.0000 0.96870  0.86750  0.17910  Biso   1.000  C
  H5       1.0000 0.93860  0.36890  0.33990  Biso   1.000  H
  H6       1.0000 0.93860  0.13110  0.83990  Biso   1.000  H
  H7       1.0000 0.06140  0.63110  0.66010  Biso   1.000  H
  H8       1.0000 0.06140  0.86890  0.16010  Biso   1.000  H
  C13      1.0000 0.09290  0.29290  0.30080  Biso   1.000  C
  C14      1.0000 0.09290  0.20710  0.80080  Biso   1.000  C
  C15      1.0000 0.90710  0.70710  0.69920  Biso   1.000  C
  C16      1.0000 0.90710  0.79290  0.19920  Biso   1.000  C
  H9       1.0000 0.04280  0.24310  0.30630  Biso   1.000  H
  H10      1.0000 0.04280  0.25690  0.80630  Biso   1.000  H
  H11      1.0000 0.95720  0.75690  0.69370  Biso   1.000  H
  H12      1.0000 0.95720  0.74310  0.19370  Biso   1.000  H
  C17      1.0000 0.22940  0.29340  0.27270  Biso   1.000  C
  C18      1.0000 0.22940  0.20660  0.77270  Biso   1.000  C
  C19      1.0000 0.77060  0.70660  0.72730  Biso   1.000  C
  C20      1.0000 0.77060  0.79340  0.22730  Biso   1.000  C
  H13      1.0000 0.27010  0.24310  0.25860  Biso   1.000  H
  H14      1.0000 0.27010  0.25690  0.75860  Biso   1.000  H
  H15      1.0000 0.72990  0.75690  0.74140  Biso   1.000  H
  H16      1.0000 0.72990  0.74310  0.24140  Biso   1.000  H
  C21      1.0000 0.05550  0.52030  0.33530  Biso   1.000  C
  C22      1.0000 0.05550  0.97970  0.83530  Biso   1.000  C
  C23      1.0000 0.94450  0.47970  0.66470  Biso   1.000  C
  C24      1.0000 0.94450  0.02030  0.16470  Biso   1.000  C
  C25      1.0000 0.05900  0.65100  0.35480  Biso   1.000  C
  C26      1.0000 0.05900  0.84900  0.85480  Biso   1.000  C
  C27      1.0000 0.94100  0.34900  0.64520  Biso   1.000  C
  C28      1.0000 0.94100  0.15100  0.14520  Biso   1.000  C
  C29      1.0000 0.23590  0.75590  0.31520  Biso   1.000  C
  C30      1.0000 0.23590  0.74410  0.81520  Biso   1.000  C
  C31      1.0000 0.76410  0.24410  0.68480  Biso   1.000  C
  C32      1.0000 0.76410  0.25590  0.18480  Biso   1.000  C
  H17      1.0000 0.28090  0.71460  0.28820  Biso   1.000  H
  H18      1.0000 0.28090  0.78540  0.78820  Biso   1.000  H
  H19      1.0000 0.71910  0.28540  0.71180  Biso   1.000  H
  H20      1.0000 0.71910  0.21460  0.21180  Biso   1.000  H
  C33      1.0000 0.11530  0.73560  0.35430  Biso   1.000  C
  C34      1.0000 0.11530  0.76440  0.85430  Biso   1.000  C
  C35      1.0000 0.88470  0.26440  0.64570  Biso   1.000  C
  C36      1.0000 0.88470  0.23560  0.14570  Biso   1.000  C
  C37      1.0000 0.04660  0.79740  0.39340  Biso   1.000  C
  C38      1.0000 0.04660  0.70260  0.89340  Biso   1.000  C
  C39      1.0000 0.95340  0.20260  0.60660  Biso   1.000  C
  C40      1.0000 0.95340  0.29740  0.10660  Biso   1.000  C
  H21      1.0000 0.96480  0.78540  0.42030  Biso   1.000  H
  H22      1.0000 0.96480  0.71460  0.92030  Biso   1.000  H
  H23      1.0000 0.03520  0.21460  0.57970  Biso   1.000  H
  H24      1.0000 0.03520  0.28540  0.07970  Biso   1.000  H
  C41      1.0000 0.10220  0.87690  0.39160  Biso   1.000  C
  C42      1.0000 0.10220  0.62310  0.89160  Biso   1.000  C
  C43      1.0000 0.89780  0.12310  0.60840  Biso   1.000  C
  C44      1.0000 0.89780  0.37690  0.10840  Biso   1.000  C
  H25      1.0000 0.05820  0.91960  0.41740  Biso   1.000  H
  H26      1.0000 0.05820  0.58040  0.91740  Biso   1.000  H
  H27      1.0000 0.94180  0.08040  0.58260  Biso   1.000  H
  H28      1.0000 0.94180  0.41960  0.08260  Biso   1.000  H
  C45      1.0000 0.22150  0.89220  0.35210  Biso   1.000  C
  C46      1.0000 0.22150  0.60780  0.85210  Biso   1.000  C
  C47      1.0000 0.77850  0.10780  0.64790  Biso   1.000  C
  C48      1.0000 0.77850  0.39220  0.14790  Biso   1.000  C
  H29      1.0000 0.25720  0.94640  0.35080  Biso   1.000  H
  H30      1.0000 0.25720  0.55360  0.85080  Biso   1.000  H
  H31      1.0000 0.74280  0.05360  0.64920  Biso   1.000  H
  H32      1.0000 0.74280  0.44640  0.14920  Biso   1.000  H
  C49      1.0000 0.60560  0.43310  0.36650  Biso   1.000  C
  C50      1.0000 0.60560  0.06690  0.86650  Biso   1.000  C
  C51      1.0000 0.39440  0.56690  0.63350  Biso   1.000  C
  C52      1.0000 0.39440  0.93310  0.13350  Biso   1.000  C
  H33      1.0000 0.58340  0.48240  0.34200  Biso   1.000  H
  H34      1.0000 0.58340  0.01760  0.84200  Biso   1.000  H
  H35      1.0000 0.41660  0.51760  0.65800  Biso   1.000  H
  H36      1.0000 0.41660  0.98240  0.15800  Biso   1.000  H
  C53      1.0000 0.65330  0.43800  0.43720  Biso   1.000  C
  C54      1.0000 0.65330  0.06200  0.93720  Biso   1.000  C
  C55      1.0000 0.34670  0.56200  0.56280  Biso   1.000  C
  C56      1.0000 0.34670  0.93800  0.06280  Biso   1.000  C
  C57      1.0000 0.68500  0.36480  0.47420  Biso   1.000  C
  C58      1.0000 0.68500  0.13520  0.97420  Biso   1.000  C
  C59      1.0000 0.31500  0.63520  0.52580  Biso   1.000  C
  C60      1.0000 0.31500  0.86480  0.02580  Biso   1.000  C
  H37      1.0000 0.71650  0.36600  0.52270  Biso   1.000  H
  H38      1.0000 0.71650  0.13400  0.02270  Biso   1.000  H
  H39      1.0000 0.28350  0.63400  0.47730  Biso   1.000  H
  H40      1.0000 0.28350  0.86600  0.97730  Biso   1.000  H
  C61      1.0000 0.66900  0.29040  0.43780  Biso   1.000  C
  C62      1.0000 0.66900  0.20960  0.93780  Biso   1.000  C
  C63      1.0000 0.33100  0.70960  0.56220  Biso   1.000  C
  C64      1.0000 0.33100  0.79040  0.06220  Biso   1.000  C
  H41      1.0000 0.69030  0.24040  0.46130  Biso   1.000  H
  H42      1.0000 0.69030  0.25960  0.96130  Biso   1.000  H
  H43      1.0000 0.30970  0.75960  0.53870  Biso   1.000  H
  H44      1.0000 0.30970  0.74040  0.03870  Biso   1.000  H
  C65      1.0000 0.62130  0.29060  0.36670  Biso   1.000  C
  C66      1.0000 0.62130  0.20940  0.86670  Biso   1.000  C
  C67      1.0000 0.37870  0.70940  0.63330  Biso   1.000  C
  C68      1.0000 0.37870  0.79060  0.13330  Biso   1.000  C
  H45      1.0000 0.61100  0.23990  0.34260  Biso   1.000  H
  H46      1.0000 0.61100  0.26010  0.84260  Biso   1.000  H
  H47      1.0000 0.38900  0.76010  0.65740  Biso   1.000  H
  H48      1.0000 0.38900  0.73990  0.15740  Biso   1.000  H
  C69      1.0000 0.67120  0.51850  0.47360  Biso   1.000  C
  C70      1.0000 0.67120  0.98150  0.97360  Biso   1.000  C
  C71      1.0000 0.32880  0.48150  0.52640  Biso   1.000  C
  C72      1.0000 0.32880  0.01850  0.02640  Biso   1.000  C
  C73      1.0000 0.67180  0.64960  0.48430  Biso   1.000  C
  C74      1.0000 0.67180  0.85040  0.98430  Biso   1.000  C
  C75      1.0000 0.32820  0.35040  0.51570  Biso   1.000  C
  C76      1.0000 0.32820  0.14960  0.01570  Biso   1.000  C
  C77      1.0000 0.59040  0.75600  0.39590  Biso   1.000  C
  C78      1.0000 0.59040  0.74400  0.89590  Biso   1.000  C
  C79      1.0000 0.40960  0.24400  0.60410  Biso   1.000  C
  C80      1.0000 0.40960  0.25600  0.10410  Biso   1.000  C
  H49      1.0000 0.55560  0.71310  0.36630  Biso   1.000  H
  H50      1.0000 0.55560  0.78690  0.86630  Biso   1.000  H
  H51      1.0000 0.44440  0.28690  0.63370  Biso   1.000  H
  H52      1.0000 0.44440  0.21310  0.13370  Biso   1.000  H
  C81      1.0000 0.65540  0.73590  0.46220  Biso   1.000  C
  C82      1.0000 0.65540  0.76410  0.96220  Biso   1.000  C
  C83      1.0000 0.34460  0.26410  0.53780  Biso   1.000  C
  C84      1.0000 0.34460  0.23590  0.03780  Biso   1.000  C
  C85      1.0000 0.70580  0.80000  0.50680  Biso   1.000  C
  C86      1.0000 0.70580  0.70000  0.00680  Biso   1.000  C
  C87      1.0000 0.29420  0.20000  0.49320  Biso   1.000  C
  C88      1.0000 0.29420  0.30000  0.99320  Biso   1.000  C
  H53      1.0000 0.74750  0.78870  0.55230  Biso   1.000  H
  H54      1.0000 0.74750  0.71130  0.05230  Biso   1.000  H
  H55      1.0000 0.25250  0.21130  0.44770  Biso   1.000  H
  H56      1.0000 0.25250  0.28870  0.94770  Biso   1.000  H
  C89      1.0000 0.69260  0.88080  0.48210  Biso   1.000  C
  C90      1.0000 0.69260  0.61920  0.98210  Biso   1.000  C
  C91      1.0000 0.30740  0.11920  0.51790  Biso   1.000  C
  C92      1.0000 0.30740  0.38080  0.01790  Biso   1.000  C
  H57      1.0000 0.72850  0.92470  0.51020  Biso   1.000  H
  H58      1.0000 0.72850  0.57530  0.01020  Biso   1.000  H
  H59      1.0000 0.27150  0.07530  0.48980  Biso   1.000  H
  H60      1.0000 0.27150  0.42470  0.98980  Biso   1.000  H
  C93      1.0000 0.62640  0.89620  0.41580  Biso   1.000  C
  C94      1.0000 0.62640  0.60380  0.91580  Biso   1.000  C
  C95      1.0000 0.37360  0.10380  0.58420  Biso   1.000  C
  C96      1.0000 0.37360  0.39620  0.08420  Biso   1.000  C
  H61      1.0000 0.61630  0.95110  0.40040  Biso   1.000  H
  H62      1.0000 0.61630  0.54890  0.90040  Biso   1.000  H
  H63      1.0000 0.38370  0.04890  0.59960  Biso   1.000  H
  H64      1.0000 0.38370  0.45110  0.09960  Biso   1.000  H
  N1       1.0000 0.30710  0.36380  0.26455  Biso   1.000  N
  N2       1.0000 0.30710  0.13620  0.76455  Biso   1.000  N
  N3       1.0000 0.69290  0.63620  0.73545  Biso   1.000  N
  N4       1.0000 0.69290  0.86380  0.23545  Biso   1.000  N
  N5       1.0000 0.93830  0.53740  0.36880  Biso   1.000  N
  N6       1.0000 0.93830  0.96260  0.86880  Biso   1.000  N
  N7       1.0000 0.06170  0.46260  0.63120  Biso   1.000  N
  N8       1.0000 0.06170  0.03740  0.13120  Biso   1.000  N
  N9       1.0000 0.93990  0.62410  0.38100  Biso   1.000  N
  N10      1.0000 0.93990  0.87590  0.88100  Biso   1.000  N
  N11      1.0000 0.06010  0.37590  0.61900  Biso   1.000  N
  N12      1.0000 0.06010  0.12410  0.11900  Biso   1.000  N
  N13      1.0000 0.29080  0.83320  0.31469  Biso   1.000  N
  N14      1.0000 0.29080  0.66680  0.81469  Biso   1.000  N
  N15      1.0000 0.70920  0.16680  0.68531  Biso   1.000  N
  N16      1.0000 0.70920  0.33320  0.18531  Biso   1.000  N
  N17      1.0000 0.58900  0.36070  0.33040  Biso   1.000  N
  N18      1.0000 0.58900  0.13930  0.83040  Biso   1.000  N
  N19      1.0000 0.41100  0.63930  0.66960  Biso   1.000  N
  N20      1.0000 0.41100  0.86070  0.16960  Biso   1.000  N
  N21      1.0000 0.71720  0.53370  0.53800  Biso   1.000  N
  N22      1.0000 0.71720  0.96630  0.03800  Biso   1.000  N
  N23      1.0000 0.28280  0.46630  0.46200  Biso   1.000  N
  N24      1.0000 0.28280  0.03370  0.96200  Biso   1.000  N
  N25      1.0000 0.71670  0.62060  0.54560  Biso   1.000  N
  N26      1.0000 0.71670  0.87940  0.04560  Biso   1.000  N
  N27      1.0000 0.28330  0.37940  0.45440  Biso   1.000  N
  N28      1.0000 0.28330  0.12060  0.95440  Biso   1.000  N
  N29      1.0000 0.57560  0.83510  0.37267  Biso   1.000  N
  N30      1.0000 0.57560  0.66490  0.87267  Biso   1.000  N
  N31      1.0000 0.42440  0.16490  0.62733  Biso   1.000  N
  N32      1.0000 0.42440  0.33510  0.12733  Biso   1.000  N
  O1       1.0000 0.13960  0.58886  0.32495  Biso   1.000  O
  O2       1.0000 0.13960  0.91114  0.82495  Biso   1.000  O
  O3       1.0000 0.86040  0.41114  0.67505  Biso   1.000  O
  O4       1.0000 0.86040  0.08886  0.17505  Biso   1.000  O
  O5       1.0000 0.63760  0.58878  0.43521  Biso   1.000  O
  O6       1.0000 0.63760  0.91122  0.93521  Biso   1.000  O
  O7       1.0000 0.36240  0.41122  0.56479  Biso   1.000  O
  O8       1.0000 0.36240  0.08878  0.06479  Biso   1.000  O
  Cl1      1.0000 0.57543  0.58495  0.21016  Biso   1.000  Cl
  Cl2      1.0000 0.57543  0.91505  0.71016  Biso   1.000  Cl
  Cl3      1.0000 0.42457  0.41505  0.78984  Biso   1.000  Cl
  Cl4      1.0000 0.42457  0.08495  0.28984  Biso   1.000  Cl
  O9       1.0000 0.51790  0.50177  0.21016  Biso   1.000  O
  O10      1.0000 0.51790  0.99823  0.71016  Biso   1.000  O
  O11      1.0000 0.48210  0.49823  0.78984  Biso   1.000  O
  O12      1.0000 0.48210  0.00177  0.28984  Biso   1.000  O
  O13      1.0000 0.49200  0.63630  0.25530  Biso   1.000  O
  O14      1.0000 0.49200  0.86370  0.75530  Biso   1.000  O
  O15      1.0000 0.50800  0.36370  0.74470  Biso   1.000  O
  O16      1.0000 0.50800  0.13630  0.24470  Biso   1.000  O
  O17      1.0000 0.57480  0.61550  0.14050  Biso   1.000  O
  O18      1.0000 0.57480  0.88450  0.64050  Biso   1.000  O
  O19      1.0000 0.42520  0.38450  0.85950  Biso   1.000  O
  O20      1.0000 0.42520  0.11550  0.35950  Biso   1.000  O
  O21      1.0000 0.71890  0.58190  0.24010  Biso   1.000  O
  O22      1.0000 0.71890  0.91810  0.74010  Biso   1.000  O
  O23      1.0000 0.28110  0.41810  0.75990  Biso   1.000  O
  O24      1.0000 0.28110  0.08190  0.25990  Biso   1.000  O
  Cl5      1.0000 0.11230  0.59541  0.11075  Biso   1.000  Cl
  Cl6      1.0000 0.11230  0.90459  0.61075  Biso   1.000  Cl
  Cl7      1.0000 0.88770  0.40459  0.88925  Biso   1.000  Cl
  Cl8      1.0000 0.88770  0.09541  0.38925  Biso   1.000  Cl
  O25      1.0000 0.11690  0.51810  0.14780  Biso   1.000  O
  O26      1.0000 0.11690  0.98190  0.64780  Biso   1.000  O
  O27      1.0000 0.88310  0.48190  0.85220  Biso   1.000  O
  O28      1.0000 0.88310  0.01810  0.35220  Biso   1.000  O
  O29      1.0000 0.15380  0.65370  0.16310  Biso   1.000  O
  O30      1.0000 0.15380  0.84630  0.66310  Biso   1.000  O
  O31      1.0000 0.84620  0.34630  0.83690  Biso   1.000  O
  O32      1.0000 0.84620  0.15370  0.33690  Biso   1.000  O
  O33      1.0000 0.99890  0.61590  0.07730  Biso   1.000  O
  O34      1.0000 0.99890  0.88410  0.57730  Biso   1.000  O
  O35      1.0000 0.00110  0.38410  0.92270  Biso   1.000  O
  O36      1.0000 0.00110  0.11590  0.42270  Biso   1.000  O
  O37      1.0000 0.22600  0.58630  0.05970  Biso   1.000  O
  O38      1.0000 0.22600  0.91370  0.55970  Biso   1.000  O
  O39      1.0000 0.77400  0.41370  0.94030  Biso   1.000  O
  O40      1.0000 0.77400  0.08630  0.44030  Biso   1.000  O
