data_image0
_cell_length_a       6.9932
_cell_length_b       11.5777
_cell_length_c       12.5291
_cell_angle_alpha    109.401
_cell_angle_beta     103.922
_cell_angle_gamma    95.316

_symmetry_space_group_name_H-M    "P 1"
_symmetry_int_tables_number       1

loop_
  _symmetry_equiv_pos_as_xyz
  'x, y, z'

loop_
  _atom_site_label
  _atom_site_occupancy
  _atom_site_fract_x
  _atom_site_fract_y
  _atom_site_fract_z
  _atom_site_thermal_displace_type
  _atom_site_B_iso_or_equiv
  _atom_site_type_symbol
  Cu1      1.0000 0.00000  0.00000  0.00000  Biso   1.000  Cu
  Cu2      1.0000 0.00000  0.00000  0.50000  Biso   1.000  Cu
  C1       1.0000 0.21120  0.78750  0.96150  Biso   1.000  C
  C2       1.0000 0.78880  0.21250  0.03850  Biso   1.000  C
  H1       1.0000 0.30410  0.84060  0.03440  Biso   1.000  H
  H2       1.0000 0.69590  0.15940  0.96560  Biso   1.000  H
  C3       1.0000 0.25760  0.67420  0.89980  Biso   1.000  C
  C4       1.0000 0.74240  0.32580  0.10020  Biso   1.000  C
  C5       1.0000 0.11920  0.59560  0.79330  Biso   1.000  C
  C6       1.0000 0.88080  0.40440  0.20670  Biso   1.000  C
  H3       1.0000 0.14750  0.51880  0.74810  Biso   1.000  H
  H4       1.0000 0.85250  0.48120  0.25190  Biso   1.000  H
  C7       1.0000 0.94250  0.63140  0.75530  Biso   1.000  C
  C8       1.0000 0.05750  0.36860  0.24470  Biso   1.000  C
  H5       1.0000 0.84460  0.57850  0.68430  Biso   1.000  H
  H6       1.0000 0.15540  0.42150  0.31570  Biso   1.000  H
  C9       1.0000 0.90760  0.74550  0.82130  Biso   1.000  C
  C10      1.0000 0.09240  0.25450  0.17870  Biso   1.000  C
  H7       1.0000 0.78390  0.76920  0.79420  Biso   1.000  H
  H8       1.0000 0.21610  0.23080  0.20580  Biso   1.000  H
  C11      1.0000 0.44900  0.64190  0.94190  Biso   1.000  C
  C12      1.0000 0.55100  0.35810  0.05810  Biso   1.000  C
  C13      1.0000 0.73300  0.65640  0.06120  Biso   1.000  C
  C14      1.0000 0.26700  0.34360  0.93880  Biso   1.000  C
  C15      1.0000 0.87840  0.79930  0.26750  Biso   1.000  C
  C16      1.0000 0.12160  0.20070  0.73250  Biso   1.000  C
  H9       1.0000 0.75460  0.82780  0.26310  Biso   1.000  H
  H10      1.0000 0.24540  0.17220  0.73690  Biso   1.000  H
  C17      1.0000 0.89810  0.70650  0.17030  Biso   1.000  C
  C18      1.0000 0.10190  0.29350  0.82970  Biso   1.000  C
  C19      1.0000 0.07790  0.66310  0.17640  Biso   1.000  C
  C20      1.0000 0.92210  0.33690  0.82360  Biso   1.000  C
  H11      1.0000 0.09500  0.59960  0.11010  Biso   1.000  H
  H12      1.0000 0.90500  0.40040  0.88990  Biso   1.000  H
  C21      1.0000 0.23030  0.71440  0.28070  Biso   1.000  C
  C22      1.0000 0.76970  0.28560  0.71930  Biso   1.000  C
  H13      1.0000 0.35420  0.68600  0.28800  Biso   1.000  H
  H14      1.0000 0.64580  0.31400  0.71200  Biso   1.000  H
  C23      1.0000 0.20140  0.80720  0.37440  Biso   1.000  C
  C24      1.0000 0.79860  0.19280  0.62560  Biso   1.000  C
  H15      1.0000 0.30740  0.84180  0.44610  Biso   1.000  H
  H16      1.0000 0.69260  0.15820  0.55390  Biso   1.000  H
  N1       1.0000 0.04180  0.82430  0.92220  Biso   1.000  N
  N2       1.0000 0.95820  0.17570  0.07780  Biso   1.000  N
  N3       1.0000 0.02980  0.85120  0.36880  Biso   1.000  N
  N4       1.0000 0.97020  0.14880  0.63120  Biso   1.000  N
  N5       1.0000 0.53410  0.55610  0.88500  Biso   1.000  N
  N6       1.0000 0.46590  0.44390  0.11500  Biso   1.000  N
  N7       1.0000 0.72190  0.56610  0.96470  Biso   1.000  N
  N8       1.0000 0.27810  0.43390  0.03530  Biso   1.000  N
  O1       1.0000 0.56500  0.70883  0.05492  Biso   1.000  O
  O2       1.0000 0.43500  0.29117  0.94508  Biso   1.000  O
  O3       1.0000 0.10580  0.99470  0.19220  Biso   1.000  O
  O4       1.0000 0.89420  0.00530  0.80780  Biso   1.000  O
  H17      1.0000 0.03100  0.02700  0.22900  Biso   1.000  H
  H18      1.0000 0.96900  0.97300  0.77100  Biso   1.000  H
  H19      1.0000 0.22000  0.00400  0.23500  Biso   1.000  H
  H20      1.0000 0.78000  0.99600  0.76500  Biso   1.000  H
  O5       1.0000 0.27630  0.07410  0.01073  Biso   1.000  O
  O6       1.0000 0.72370  0.92590  0.98927  Biso   1.000  O
  H21      1.0000 0.37400  0.07200  0.06600  Biso   1.000  H
  H22      1.0000 0.62600  0.92800  0.93400  Biso   1.000  H
  H23      1.0000 0.31600  0.03400  0.95600  Biso   1.000  H
  H24      1.0000 0.68400  0.96600  0.04400  Biso   1.000  H
  O7       1.0000 0.27060  0.08000  0.51740  Biso   1.000  O
  O8       1.0000 0.72940  0.92000  0.48260  Biso   1.000  O
  H25      1.0000 0.29000  0.15100  0.50600  Biso   1.000  H
  H26      1.0000 0.71000  0.84900  0.49400  Biso   1.000  H
  H27      1.0000 0.35800  0.06600  0.56600  Biso   1.000  H
  H28      1.0000 0.64200  0.93400  0.43400  Biso   1.000  H
  S1       1.0000 0.35690  0.90589  0.70320  Biso   1.000  S
  S2       1.0000 0.64310  0.09411  0.29680  Biso   1.000  S
  O9       1.0000 0.15030  0.92020  0.65566  Biso   1.000  O
  O10      1.0000 0.84970  0.07980  0.34434  Biso   1.000  O
  O11      1.0000 0.49610  0.98730  0.67620  Biso   1.000  O
  O12      1.0000 0.50390  0.01270  0.32380  Biso   1.000  O
  O13      1.0000 0.40720  0.94540  0.83380  Biso   1.000  O
  O14      1.0000 0.59280  0.05460  0.16620  Biso   1.000  O
  O15      1.0000 0.37830  0.77720  0.65290  Biso   1.000  O
  O16      1.0000 0.62170  0.22280  0.34710  Biso   1.000  O
  O17      1.0000 0.01660  0.61600  0.48970  Biso   1.000  O
  O18      1.0000 0.98340  0.38400  0.51030  Biso   1.000  O
  H29      1.0000 0.11820  0.66200  0.54020  Biso   1.000  H
  H30      1.0000 0.88180  0.33800  0.45980  Biso   1.000  H
  H31      1.0000 0.97400  0.62740  0.43080  Biso   1.000  H
  H32      1.0000 0.02600  0.37260  0.56920  Biso   1.000  H
  O19      1.0000 0.36350  0.28640  0.49300  Biso   1.000  O
  O20      1.0000 0.63650  0.71360  0.50700  Biso   1.000  O
  O21      1.0000 0.31860  0.36310  0.58740  Biso   1.000  O
  O22      1.0000 0.68140  0.63690  0.41260  Biso   1.000  O
  O23      1.0000 0.46770  0.52380  0.64200  Biso   1.000  O
  O24      1.0000 0.53230  0.47620  0.35800  Biso   1.000  O
  O25      1.0000 0.48800  0.55870  0.55870  Biso   1.000  O
  O26      1.0000 0.51200  0.44130  0.44130  Biso   1.000  O
