data_image0
_cell_length_a       14.26
_cell_length_b       9.66
_cell_length_c       12.789
_cell_angle_alpha    90
_cell_angle_beta     120.878
_cell_angle_gamma    90

_symmetry_space_group_name_H-M    "P 1"
_symmetry_int_tables_number       1

loop_
  _symmetry_equiv_pos_as_xyz
  'x, y, z'

loop_
  _atom_site_label
  _atom_site_occupancy
  _atom_site_fract_x
  _atom_site_fract_y
  _atom_site_fract_z
  _atom_site_thermal_displace_type
  _atom_site_B_iso_or_equiv
  _atom_site_type_symbol
  Cu1      1.0000 0.37752  0.24939  0.43022  Biso   1.000  Cu
  Cu2      1.0000 0.37752  0.75061  0.93022  Biso   1.000  Cu
  Cu3      1.0000 0.87752  0.74939  0.43022  Biso   1.000  Cu
  Cu4      1.0000 0.87752  0.25061  0.93022  Biso   1.000  Cu
  Cl1      1.0000 0.13815  0.05316  0.18648  Biso   1.000  Cl
  Cl2      1.0000 0.13815  0.94684  0.68648  Biso   1.000  Cl
  Cl3      1.0000 0.63815  0.55316  0.18648  Biso   1.000  Cl
  Cl4      1.0000 0.63815  0.44684  0.68648  Biso   1.000  Cl
  O1       1.0000 0.06513  0.94440  0.17678  Biso   1.000  O
  O2       1.0000 0.06513  0.05560  0.67678  Biso   1.000  O
  O3       1.0000 0.56513  0.44440  0.17678  Biso   1.000  O
  O4       1.0000 0.56513  0.55560  0.67678  Biso   1.000  O
  O5       1.0000 0.20426  0.00830  0.13894  Biso   1.000  O
  O6       1.0000 0.20426  0.99170  0.63894  Biso   1.000  O
  O7       1.0000 0.70426  0.50830  0.13894  Biso   1.000  O
  O8       1.0000 0.70426  0.49170  0.63894  Biso   1.000  O
  O9       1.0000 0.07396  0.17130  0.12134  Biso   1.000  O
  O10      1.0000 0.07396  0.82870  0.62134  Biso   1.000  O
  O11      1.0000 0.57396  0.67130  0.12134  Biso   1.000  O
  O12      1.0000 0.57396  0.32870  0.62134  Biso   1.000  O
  O13      1.0000 0.20552  0.08850  0.30898  Biso   1.000  O
  O14      1.0000 0.20552  0.91150  0.80898  Biso   1.000  O
  O15      1.0000 0.70552  0.58850  0.30898  Biso   1.000  O
  O16      1.0000 0.70552  0.41150  0.80898  Biso   1.000  O
  N1       1.0000 0.44323  0.16794  0.34346  Biso   1.000  N
  N2       1.0000 0.44323  0.83206  0.84346  Biso   1.000  N
  N3       1.0000 0.94323  0.66794  0.34346  Biso   1.000  N
  N4       1.0000 0.94323  0.33206  0.84346  Biso   1.000  N
  N5       1.0000 0.50825  0.05780  0.22143  Biso   1.000  N
  N6       1.0000 0.50825  0.94220  0.72143  Biso   1.000  N
  N7       1.0000 0.00825  0.55780  0.22143  Biso   1.000  N
  N8       1.0000 0.00825  0.44220  0.72143  Biso   1.000  N
  N9       1.0000 0.41739  0.90691  0.04535  Biso   1.000  N
  N10      1.0000 0.41739  0.09309  0.54535  Biso   1.000  N
  N11      1.0000 0.91739  0.40691  0.04535  Biso   1.000  N
  N12      1.0000 0.91739  0.59309  0.54535  Biso   1.000  N
  N13      1.0000 0.38428  0.44487  0.37902  Biso   1.000  N
  N14      1.0000 0.38428  0.55513  0.87902  Biso   1.000  N
  N15      1.0000 0.88428  0.94487  0.37902  Biso   1.000  N
  N16      1.0000 0.88428  0.05513  0.87902  Biso   1.000  N
  N17      1.0000 0.28288  0.33669  0.48467  Biso   1.000  N
  N18      1.0000 0.28288  0.66331  0.98467  Biso   1.000  N
  N19      1.0000 0.78288  0.83669  0.48467  Biso   1.000  N
  N20      1.0000 0.78288  0.16331  0.98467  Biso   1.000  N
  C1       1.0000 0.46648  0.11290  0.28186  Biso   1.000  C
  C2       1.0000 0.46648  0.88710  0.78186  Biso   1.000  C
  C3       1.0000 0.96648  0.61290  0.28186  Biso   1.000  C
  C4       1.0000 0.96648  0.38710  0.78186  Biso   1.000  C
  C5       1.0000 0.45370  0.97560  0.12794  Biso   1.000  C
  C6       1.0000 0.45370  0.02440  0.62794  Biso   1.000  C
  C7       1.0000 0.95370  0.47560  0.12794  Biso   1.000  C
  C8       1.0000 0.95370  0.52440  0.62794  Biso   1.000  C
  C9       1.0000 0.43935  0.49510  0.32990  Biso   1.000  C
  C10      1.0000 0.43935  0.50490  0.82990  Biso   1.000  C
  C11      1.0000 0.93935  0.99510  0.32990  Biso   1.000  C
  C12      1.0000 0.93935  0.00490  0.82990  Biso   1.000  C
  H1       1.0000 0.47380  0.43420  0.30410  Biso   1.000  H
  H2       1.0000 0.47380  0.56580  0.80410  Biso   1.000  H
  H3       1.0000 0.97380  0.93420  0.30410  Biso   1.000  H
  H4       1.0000 0.97380  0.06580  0.80410  Biso   1.000  H
  C13      1.0000 0.44692  0.63670  0.31596  Biso   1.000  C
  C14      1.0000 0.44692  0.36330  0.81596  Biso   1.000  C
  C15      1.0000 0.94692  0.13670  0.31596  Biso   1.000  C
  C16      1.0000 0.94692  0.86330  0.81596  Biso   1.000  C
  H5       1.0000 0.48650  0.66900  0.28150  Biso   1.000  H
  H6       1.0000 0.48650  0.33100  0.78150  Biso   1.000  H
  H7       1.0000 0.98650  0.16900  0.28150  Biso   1.000  H
  H8       1.0000 0.98650  0.83100  0.78150  Biso   1.000  H
  C17      1.0000 0.39659  0.72870  0.35250  Biso   1.000  C
  C18      1.0000 0.39659  0.27130  0.85250  Biso   1.000  C
  C19      1.0000 0.89659  0.22870  0.35250  Biso   1.000  C
  C20      1.0000 0.89659  0.77130  0.85250  Biso   1.000  C
  H9       1.0000 0.40210  0.82330  0.34350  Biso   1.000  H
  H10      1.0000 0.40210  0.17670  0.84350  Biso   1.000  H
  H11      1.0000 0.90210  0.32330  0.34350  Biso   1.000  H
  H12      1.0000 0.90210  0.67670  0.84350  Biso   1.000  H
  C21      1.0000 0.33732  0.67952  0.40307  Biso   1.000  C
  C22      1.0000 0.33732  0.32048  0.90307  Biso   1.000  C
  C23      1.0000 0.83732  0.17952  0.40307  Biso   1.000  C
  C24      1.0000 0.83732  0.82048  0.90307  Biso   1.000  C
  C25      1.0000 0.28131  0.76550  0.44590  Biso   1.000  C
  C26      1.0000 0.28131  0.23450  0.94590  Biso   1.000  C
  C27      1.0000 0.78131  0.26550  0.44590  Biso   1.000  C
  C28      1.0000 0.78131  0.73450  0.94590  Biso   1.000  C
  H13      1.0000 0.28200  0.86110  0.43760  Biso   1.000  H
  H14      1.0000 0.28200  0.13890  0.93760  Biso   1.000  H
  H15      1.0000 0.78200  0.36110  0.43760  Biso   1.000  H
  H16      1.0000 0.78200  0.63890  0.93760  Biso   1.000  H
  C29      1.0000 0.22737  0.71030  0.49823  Biso   1.000  C
  C30      1.0000 0.22737  0.28970  0.99823  Biso   1.000  C
  C31      1.0000 0.72737  0.21030  0.49823  Biso   1.000  C
  C32      1.0000 0.72737  0.78970  0.99823  Biso   1.000  C
  H17      1.0000 0.19160  0.76820  0.52460  Biso   1.000  H
  H18      1.0000 0.19160  0.23180  0.02460  Biso   1.000  H
  H19      1.0000 0.69160  0.26820  0.52460  Biso   1.000  H
  H20      1.0000 0.69160  0.73180  0.02460  Biso   1.000  H
  C33      1.0000 0.22530  0.56320  0.51294  Biso   1.000  C
  C34      1.0000 0.22530  0.43680  0.01294  Biso   1.000  C
  C35      1.0000 0.72530  0.06320  0.51294  Biso   1.000  C
  C36      1.0000 0.72530  0.93680  0.01294  Biso   1.000  C
  C37      1.0000 0.17059  0.49640  0.56608  Biso   1.000  C
  C38      1.0000 0.17059  0.50360  0.06608  Biso   1.000  C
  C39      1.0000 0.67059  0.99640  0.56608  Biso   1.000  C
  C40      1.0000 0.67059  0.00360  0.06608  Biso   1.000  C
  H21      1.0000 0.13460  0.54870  0.59580  Biso   1.000  H
  H22      1.0000 0.13460  0.45130  0.09580  Biso   1.000  H
  H23      1.0000 0.63460  0.04870  0.59580  Biso   1.000  H
  H24      1.0000 0.63460  0.95130  0.09580  Biso   1.000  H
  C41      1.0000 0.17122  0.35650  0.57308  Biso   1.000  C
  C42      1.0000 0.17122  0.64350  0.07308  Biso   1.000  C
  C43      1.0000 0.67122  0.85650  0.57308  Biso   1.000  C
  C44      1.0000 0.67122  0.14350  0.07308  Biso   1.000  C
  H25      1.0000 0.13380  0.31230  0.60540  Biso   1.000  H
  H26      1.0000 0.13380  0.68770  0.10540  Biso   1.000  H
  H27      1.0000 0.63380  0.81230  0.60540  Biso   1.000  H
  H28      1.0000 0.63380  0.18770  0.10540  Biso   1.000  H
  C45      1.0000 0.22851  0.27890  0.53150  Biso   1.000  C
  C46      1.0000 0.22851  0.72110  0.03150  Biso   1.000  C
  C47      1.0000 0.72851  0.77890  0.53150  Biso   1.000  C
  C48      1.0000 0.72851  0.22110  0.03150  Biso   1.000  C
  H29      1.0000 0.22830  0.18290  0.53700  Biso   1.000  H
  H30      1.0000 0.22830  0.81710  0.03700  Biso   1.000  H
  H31      1.0000 0.72830  0.68290  0.53700  Biso   1.000  H
  H32      1.0000 0.72830  0.31710  0.03700  Biso   1.000  H
  C49      1.0000 0.27837  0.47773  0.47230  Biso   1.000  C
  C50      1.0000 0.27837  0.52227  0.97230  Biso   1.000  C
  C51      1.0000 0.77837  0.97773  0.47230  Biso   1.000  C
  C52      1.0000 0.77837  0.02227  0.97230  Biso   1.000  C
  C53      1.0000 0.33392  0.53514  0.41469  Biso   1.000  C
  C54      1.0000 0.33392  0.46486  0.91469  Biso   1.000  C
  C55      1.0000 0.83392  0.03514  0.41469  Biso   1.000  C
  C56      1.0000 0.83392  0.96486  0.91469  Biso   1.000  C
