data_image0
_cell_length_a       9.233
_cell_length_b       13.793
_cell_length_c       12.075
_cell_angle_alpha    90
_cell_angle_beta     98.589
_cell_angle_gamma    90

_symmetry_space_group_name_H-M    "P 1"
_symmetry_int_tables_number       1

loop_
  _symmetry_equiv_pos_as_xyz
  'x, y, z'

loop_
  _atom_site_label
  _atom_site_occupancy
  _atom_site_fract_x
  _atom_site_fract_y
  _atom_site_fract_z
  _atom_site_thermal_displace_type
  _atom_site_B_iso_or_equiv
  _atom_site_type_symbol
  Cd1      1.0000 0.40688  0.08068  0.57721  Biso   1.000  Cd
  Cd2      1.0000 0.90688  0.41932  0.07721  Biso   1.000  Cd
  Cd3      1.0000 0.59312  0.91932  0.42279  Biso   1.000  Cd
  Cd4      1.0000 0.09312  0.58068  0.92279  Biso   1.000  Cd
  Cu1      1.0000 0.35661  0.14566  0.33206  Biso   1.000  Cu
  Cu2      1.0000 0.85661  0.35434  0.83206  Biso   1.000  Cu
  Cu3      1.0000 0.64339  0.85434  0.66794  Biso   1.000  Cu
  Cu4      1.0000 0.14339  0.64566  0.16794  Biso   1.000  Cu
  Cl1      1.0000 0.38143  0.26398  0.53399  Biso   1.000  Cl
  Cl2      1.0000 0.88143  0.23602  0.03399  Biso   1.000  Cl
  Cl3      1.0000 0.61857  0.73602  0.46601  Biso   1.000  Cl
  Cl4      1.0000 0.11857  0.76398  0.96601  Biso   1.000  Cl
  Cl5      1.0000 0.24097  0.07181  0.72256  Biso   1.000  Cl
  Cl6      1.0000 0.74097  0.42819  0.22256  Biso   1.000  Cl
  Cl7      1.0000 0.75903  0.92819  0.27744  Biso   1.000  Cl
  Cl8      1.0000 0.25903  0.57181  0.77744  Biso   1.000  Cl
  N1       1.0000 0.15430  0.19732  0.26710  Biso   1.000  N
  N2       1.0000 0.65430  0.30268  0.76710  Biso   1.000  N
  N3       1.0000 0.84570  0.80268  0.73290  Biso   1.000  N
  N4       1.0000 0.34570  0.69732  0.23290  Biso   1.000  N
  C1       1.0000 0.05810  0.11140  0.27660  Biso   1.000  C
  C2       1.0000 0.55810  0.38860  0.77660  Biso   1.000  C
  C3       1.0000 0.94190  0.88860  0.72340  Biso   1.000  C
  C4       1.0000 0.44190  0.61140  0.22340  Biso   1.000  C
  C5       1.0000 0.09930  0.06670  0.39150  Biso   1.000  C
  C6       1.0000 0.59930  0.43330  0.89150  Biso   1.000  C
  C7       1.0000 0.90070  0.93330  0.60850  Biso   1.000  C
  C8       1.0000 0.40070  0.56670  0.10850  Biso   1.000  C
  O1       1.0000 0.25290  0.04873  0.40881  Biso   1.000  O
  O2       1.0000 0.75290  0.45127  0.90881  Biso   1.000  O
  O3       1.0000 0.74710  0.95127  0.59119  Biso   1.000  O
  O4       1.0000 0.24710  0.54873  0.09119  Biso   1.000  O
  C9       1.0000 0.09690  0.28520  0.31760  Biso   1.000  C
  C10      1.0000 0.59690  0.21480  0.81760  Biso   1.000  C
  C11      1.0000 0.90310  0.71480  0.68240  Biso   1.000  C
  C12      1.0000 0.40310  0.78520  0.18240  Biso   1.000  C
  C13      1.0000 0.17080  0.37780  0.28840  Biso   1.000  C
  C14      1.0000 0.67080  0.12220  0.78840  Biso   1.000  C
  C15      1.0000 0.82920  0.62220  0.71160  Biso   1.000  C
  C16      1.0000 0.32920  0.87780  0.21160  Biso   1.000  C
  O5       1.0000 0.14470  0.39078  0.16942  Biso   1.000  O
  O6       1.0000 0.64470  0.10922  0.66942  Biso   1.000  O
  O7       1.0000 0.85530  0.60922  0.83058  Biso   1.000  O
  O8       1.0000 0.35530  0.89078  0.33058  Biso   1.000  O
  N5       1.0000 0.49710  0.22845  0.26060  Biso   1.000  N
  N6       1.0000 0.99710  0.27155  0.76060  Biso   1.000  N
  N7       1.0000 0.50290  0.77155  0.73940  Biso   1.000  N
  N8       1.0000 0.00290  0.72845  0.23940  Biso   1.000  N
  C17      1.0000 0.64360  0.18160  0.29000  Biso   1.000  C
  C18      1.0000 0.14360  0.31840  0.79000  Biso   1.000  C
  C19      1.0000 0.35640  0.81840  0.71000  Biso   1.000  C
  C20      1.0000 0.85640  0.68160  0.21000  Biso   1.000  C
  C21      1.0000 0.65550  0.14450  0.40890  Biso   1.000  C
  C22      1.0000 0.15550  0.35550  0.90890  Biso   1.000  C
  C23      1.0000 0.34450  0.85550  0.59110  Biso   1.000  C
  C24      1.0000 0.84450  0.64450  0.09110  Biso   1.000  C
  O9       1.0000 0.53300  0.08200  0.41627  Biso   1.000  O
  O10      1.0000 0.03300  0.41800  0.91627  Biso   1.000  O
  O11      1.0000 0.46700  0.91800  0.58373  Biso   1.000  O
  O12      1.0000 0.96700  0.58200  0.08373  Biso   1.000  O
  C25      1.0000 0.46060  0.24930  0.13770  Biso   1.000  C
  C26      1.0000 0.96060  0.25070  0.63770  Biso   1.000  C
  C27      1.0000 0.53940  0.75070  0.86230  Biso   1.000  C
  C28      1.0000 0.03940  0.74930  0.36230  Biso   1.000  C
  C29      1.0000 0.42320  0.15880  0.06880  Biso   1.000  C
  C30      1.0000 0.92320  0.34120  0.56880  Biso   1.000  C
  C31      1.0000 0.57680  0.84120  0.93120  Biso   1.000  C
  C32      1.0000 0.07680  0.65880  0.43120  Biso   1.000  C
  O13      1.0000 0.31190  0.10740  0.11280  Biso   1.000  O
  O14      1.0000 0.81190  0.39260  0.61280  Biso   1.000  O
  O15      1.0000 0.68810  0.89260  0.88720  Biso   1.000  O
  O16      1.0000 0.18810  0.60740  0.38720  Biso   1.000  O
  O17      1.0000 0.25370  0.47430  0.54530  Biso   1.000  O
  O18      1.0000 0.75370  0.02570  0.04530  Biso   1.000  O
  O19      1.0000 0.74630  0.52570  0.45470  Biso   1.000  O
  O20      1.0000 0.24630  0.97430  0.95470  Biso   1.000  O
  O21      1.0000 0.33610  0.49410  0.54360  Biso   1.000  O
  O22      1.0000 0.83610  0.00590  0.04360  Biso   1.000  O
  O23      1.0000 0.66390  0.50590  0.45640  Biso   1.000  O
  O24      1.0000 0.16390  0.99410  0.95640  Biso   1.000  O
  H1       1.0000 0.15087  0.21608  0.19426  Biso   1.000  H
  H2       1.0000 0.65087  0.28392  0.69426  Biso   1.000  H
  H3       1.0000 0.84913  0.78392  0.80574  Biso   1.000  H
  H4       1.0000 0.34913  0.71608  0.30574  Biso   1.000  H
  H5       1.0000 0.49966  0.29107  0.28945  Biso   1.000  H
  H6       1.0000 0.99966  0.20893  0.78945  Biso   1.000  H
  H7       1.0000 0.50034  0.70893  0.71055  Biso   1.000  H
  H8       1.0000 0.00034  0.79107  0.21055  Biso   1.000  H
  H9       1.0000 0.06956  0.06581  0.22015  Biso   1.000  H
  H10      1.0000 0.56956  0.43419  0.72015  Biso   1.000  H
  H11      1.0000 0.93044  0.93419  0.77985  Biso   1.000  H
  H12      1.0000 0.43044  0.56581  0.27985  Biso   1.000  H
  H13      1.0000 0.95760  0.13222  0.26740  Biso   1.000  H
  H14      1.0000 0.45760  0.36778  0.76740  Biso   1.000  H
  H15      1.0000 0.04240  0.86778  0.73260  Biso   1.000  H
  H16      1.0000 0.54240  0.63222  0.23260  Biso   1.000  H
  H17      1.0000 0.04764  0.00732  0.39496  Biso   1.000  H
  H18      1.0000 0.54764  0.49268  0.89496  Biso   1.000  H
  H19      1.0000 0.95236  0.99268  0.60504  Biso   1.000  H
  H20      1.0000 0.45236  0.50732  0.10504  Biso   1.000  H
  H21      1.0000 0.07498  0.10976  0.44708  Biso   1.000  H
  H22      1.0000 0.57498  0.39024  0.94708  Biso   1.000  H
  H23      1.0000 0.92502  0.89024  0.55292  Biso   1.000  H
  H24      1.0000 0.42502  0.60976  0.05292  Biso   1.000  H
  H25      1.0000 0.18256  0.44565  0.14918  Biso   1.000  H
  H26      1.0000 0.68256  0.05435  0.64918  Biso   1.000  H
  H27      1.0000 0.81744  0.55435  0.85082  Biso   1.000  H
  H28      1.0000 0.31744  0.94565  0.35082  Biso   1.000  H
  H29      1.0000 0.11072  0.27781  0.39704  Biso   1.000  H
  H30      1.0000 0.61072  0.22219  0.89704  Biso   1.000  H
  H31      1.0000 0.88928  0.72219  0.60296  Biso   1.000  H
  H32      1.0000 0.38928  0.77781  0.10296  Biso   1.000  H
  H33      1.0000 0.99409  0.29003  0.29124  Biso   1.000  H
  H34      1.0000 0.49409  0.20997  0.79124  Biso   1.000  H
  H35      1.0000 0.00591  0.70997  0.70876  Biso   1.000  H
  H36      1.0000 0.50591  0.79003  0.20876  Biso   1.000  H
  H37      1.0000 0.27378  0.37389  0.31308  Biso   1.000  H
  H38      1.0000 0.77378  0.12611  0.81308  Biso   1.000  H
  H39      1.0000 0.72622  0.62611  0.68692  Biso   1.000  H
  H40      1.0000 0.22622  0.87389  0.18692  Biso   1.000  H
  H41      1.0000 0.13265  0.43205  0.32396  Biso   1.000  H
  H42      1.0000 0.63265  0.06795  0.82396  Biso   1.000  H
  H43      1.0000 0.86735  0.56795  0.67604  Biso   1.000  H
  H44      1.0000 0.36735  0.93205  0.17604  Biso   1.000  H
  H45      1.0000 0.28011  0.07143  0.05886  Biso   1.000  H
  H46      1.0000 0.78011  0.42857  0.55886  Biso   1.000  H
  H47      1.0000 0.71989  0.92857  0.94114  Biso   1.000  H
  H48      1.0000 0.21989  0.57143  0.44114  Biso   1.000  H
  H49      1.0000 0.71995  0.22707  0.28420  Biso   1.000  H
  H50      1.0000 0.21995  0.27293  0.78420  Biso   1.000  H
  H51      1.0000 0.28005  0.77293  0.71580  Biso   1.000  H
  H52      1.0000 0.78005  0.72707  0.21580  Biso   1.000  H
  H53      1.0000 0.65232  0.12877  0.24044  Biso   1.000  H
  H54      1.0000 0.15232  0.37123  0.74044  Biso   1.000  H
  H55      1.0000 0.34768  0.87123  0.75956  Biso   1.000  H
  H56      1.0000 0.84768  0.62877  0.25956  Biso   1.000  H
  H57      1.0000 0.65319  0.19813  0.45886  Biso   1.000  H
  H58      1.0000 0.15319  0.30187  0.95886  Biso   1.000  H
  H59      1.0000 0.34681  0.80187  0.54114  Biso   1.000  H
  H60      1.0000 0.84681  0.69813  0.04114  Biso   1.000  H
  H61      1.0000 0.74445  0.11007  0.42875  Biso   1.000  H
  H62      1.0000 0.24445  0.38993  0.92875  Biso   1.000  H
  H63      1.0000 0.25555  0.88993  0.57125  Biso   1.000  H
  H64      1.0000 0.75555  0.61007  0.07125  Biso   1.000  H
  H65      1.0000 0.54189  0.28057  0.11270  Biso   1.000  H
  H66      1.0000 0.04189  0.21943  0.61270  Biso   1.000  H
  H67      1.0000 0.45811  0.71943  0.88730  Biso   1.000  H
  H68      1.0000 0.95811  0.78057  0.38730  Biso   1.000  H
  H69      1.0000 0.37799  0.29204  0.12565  Biso   1.000  H
  H70      1.0000 0.87799  0.20796  0.62565  Biso   1.000  H
  H71      1.0000 0.62201  0.70796  0.87435  Biso   1.000  H
  H72      1.0000 0.12201  0.79204  0.37435  Biso   1.000  H
  H73      1.0000 0.50925  0.11988  0.07302  Biso   1.000  H
  H74      1.0000 0.00925  0.38012  0.57302  Biso   1.000  H
  H75      1.0000 0.49075  0.88012  0.92698  Biso   1.000  H
  H76      1.0000 0.99075  0.61988  0.42698  Biso   1.000  H
  H77      1.0000 0.39092  0.17630  0.99343  Biso   1.000  H
  H78      1.0000 0.89092  0.32370  0.49343  Biso   1.000  H
  H79      1.0000 0.60908  0.82370  0.00657  Biso   1.000  H
  H80      1.0000 0.10908  0.67630  0.50657  Biso   1.000  H
