data_image0
_cell_length_a       45.278
_cell_length_b       20.394
_cell_length_c       8.264
_cell_angle_alpha    90
_cell_angle_beta     90
_cell_angle_gamma    90

_symmetry_space_group_name_H-M    "P 1"
_symmetry_int_tables_number       1

loop_
  _symmetry_equiv_pos_as_xyz
  'x, y, z'

loop_
  _atom_site_label
  _atom_site_occupancy
  _atom_site_fract_x
  _atom_site_fract_y
  _atom_site_fract_z
  _atom_site_thermal_displace_type
  _atom_site_B_iso_or_equiv
  _atom_site_type_symbol
  Cu1      1.0000 0.62133  0.53190  0.89640  Biso   1.000  Cu
  Cu2      1.0000 0.37867  0.46810  0.89640  Biso   1.000  Cu
  Cu3      1.0000 0.12133  0.96810  0.89640  Biso   1.000  Cu
  Cu4      1.0000 0.87867  0.03190  0.89640  Biso   1.000  Cu
  Cu5      1.0000 0.62133  0.03190  0.39640  Biso   1.000  Cu
  Cu6      1.0000 0.37867  0.96810  0.39640  Biso   1.000  Cu
  Cu7      1.0000 0.12133  0.46810  0.39640  Biso   1.000  Cu
  Cu8      1.0000 0.87867  0.53190  0.39640  Biso   1.000  Cu
  N1       1.0000 0.62219  0.44040  0.81600  Biso   1.000  N
  N2       1.0000 0.37781  0.55960  0.81600  Biso   1.000  N
  N3       1.0000 0.12219  0.05960  0.81600  Biso   1.000  N
  N4       1.0000 0.87781  0.94040  0.81600  Biso   1.000  N
  N5       1.0000 0.62219  0.94040  0.31600  Biso   1.000  N
  N6       1.0000 0.37781  0.05960  0.31600  Biso   1.000  N
  N7       1.0000 0.12219  0.55960  0.31600  Biso   1.000  N
  N8       1.0000 0.87781  0.44040  0.31600  Biso   1.000  N
  N9       1.0000 0.61875  0.12010  0.50300  Biso   1.000  N
  N10      1.0000 0.38125  0.87990  0.50300  Biso   1.000  N
  N11      1.0000 0.11875  0.37990  0.50300  Biso   1.000  N
  N12      1.0000 0.88125  0.62010  0.50300  Biso   1.000  N
  N13      1.0000 0.61875  0.62010  0.00300  Biso   1.000  N
  N14      1.0000 0.38125  0.37990  0.00300  Biso   1.000  N
  N15      1.0000 0.11875  0.87990  0.00300  Biso   1.000  N
  N16      1.0000 0.88125  0.12010  0.00300  Biso   1.000  N
  N17      1.0000 0.66568  0.53830  0.90100  Biso   1.000  N
  N18      1.0000 0.33432  0.46170  0.90100  Biso   1.000  N
  N19      1.0000 0.16568  0.96170  0.90100  Biso   1.000  N
  N20      1.0000 0.83432  0.03830  0.90100  Biso   1.000  N
  N21      1.0000 0.66568  0.03830  0.40100  Biso   1.000  N
  N22      1.0000 0.33432  0.96170  0.40100  Biso   1.000  N
  N23      1.0000 0.16568  0.46170  0.40100  Biso   1.000  N
  N24      1.0000 0.83432  0.53830  0.40100  Biso   1.000  N
  N25      1.0000 0.82155  0.56670  0.94200  Biso   1.000  N
  N26      1.0000 0.17845  0.43330  0.94200  Biso   1.000  N
  N27      1.0000 0.32155  0.93330  0.94200  Biso   1.000  N
  N28      1.0000 0.67845  0.06670  0.94200  Biso   1.000  N
  N29      1.0000 0.82155  0.06670  0.44200  Biso   1.000  N
  N30      1.0000 0.17845  0.93330  0.44200  Biso   1.000  N
  N31      1.0000 0.32155  0.43330  0.44200  Biso   1.000  N
  N32      1.0000 0.67845  0.56670  0.44200  Biso   1.000  N
  N33      1.0000 0.57686  0.52580  0.89200  Biso   1.000  N
  N34      1.0000 0.42314  0.47420  0.89200  Biso   1.000  N
  N35      1.0000 0.07686  0.97420  0.89200  Biso   1.000  N
  N36      1.0000 0.92314  0.02580  0.89200  Biso   1.000  N
  N37      1.0000 0.57686  0.02580  0.39200  Biso   1.000  N
  N38      1.0000 0.42314  0.97420  0.39200  Biso   1.000  N
  N39      1.0000 0.07686  0.47420  0.39200  Biso   1.000  N
  N40      1.0000 0.92314  0.52580  0.39200  Biso   1.000  N
  C1       1.0000 0.63340  0.42580  0.67000  Biso   1.000  C
  C2       1.0000 0.36660  0.57420  0.67000  Biso   1.000  C
  C3       1.0000 0.13340  0.07420  0.67000  Biso   1.000  C
  C4       1.0000 0.86660  0.92580  0.67000  Biso   1.000  C
  C5       1.0000 0.63340  0.92580  0.17000  Biso   1.000  C
  C6       1.0000 0.36660  0.07420  0.17000  Biso   1.000  C
  C7       1.0000 0.13340  0.57420  0.17000  Biso   1.000  C
  C8       1.0000 0.86660  0.42580  0.17000  Biso   1.000  C
  H1       1.0000 0.64130  0.45930  0.60770  Biso   1.000  H
  H2       1.0000 0.35870  0.54070  0.60770  Biso   1.000  H
  H3       1.0000 0.14130  0.04070  0.60770  Biso   1.000  H
  H4       1.0000 0.85870  0.95930  0.60770  Biso   1.000  H
  H5       1.0000 0.64130  0.95930  0.10770  Biso   1.000  H
  H6       1.0000 0.35870  0.04070  0.10770  Biso   1.000  H
  H7       1.0000 0.14130  0.54070  0.10770  Biso   1.000  H
  H8       1.0000 0.85870  0.45930  0.10770  Biso   1.000  H
  C9       1.0000 0.63370  0.35860  0.60700  Biso   1.000  C
  C10      1.0000 0.36630  0.64140  0.60700  Biso   1.000  C
  C11      1.0000 0.13370  0.14140  0.60700  Biso   1.000  C
  C12      1.0000 0.86630  0.85860  0.60700  Biso   1.000  C
  C13      1.0000 0.63370  0.85860  0.10700  Biso   1.000  C
  C14      1.0000 0.36630  0.14140  0.10700  Biso   1.000  C
  C15      1.0000 0.13370  0.64140  0.10700  Biso   1.000  C
  C16      1.0000 0.86630  0.35860  0.10700  Biso   1.000  C
  H9       1.0000 0.64300  0.34850  0.51010  Biso   1.000  H
  H10      1.0000 0.35700  0.65150  0.51010  Biso   1.000  H
  H11      1.0000 0.14300  0.15150  0.51010  Biso   1.000  H
  H12      1.0000 0.85700  0.84850  0.51010  Biso   1.000  H
  H13      1.0000 0.64300  0.84850  0.01010  Biso   1.000  H
  H14      1.0000 0.35700  0.15150  0.01010  Biso   1.000  H
  H15      1.0000 0.14300  0.65150  0.01010  Biso   1.000  H
  H16      1.0000 0.85700  0.34850  0.01010  Biso   1.000  H
  C17      1.0000 0.62000  0.31260  0.69400  Biso   1.000  C
  C18      1.0000 0.38000  0.68740  0.69400  Biso   1.000  C
  C19      1.0000 0.12000  0.18740  0.69400  Biso   1.000  C
  C20      1.0000 0.88000  0.81260  0.69400  Biso   1.000  C
  C21      1.0000 0.62000  0.81260  0.19400  Biso   1.000  C
  C22      1.0000 0.38000  0.18740  0.19400  Biso   1.000  C
  C23      1.0000 0.12000  0.68740  0.19400  Biso   1.000  C
  C24      1.0000 0.88000  0.31260  0.19400  Biso   1.000  C
  C25      1.0000 0.60830  0.32670  0.84200  Biso   1.000  C
  C26      1.0000 0.39170  0.67330  0.84200  Biso   1.000  C
  C27      1.0000 0.10830  0.17330  0.84200  Biso   1.000  C
  C28      1.0000 0.89170  0.82670  0.84200  Biso   1.000  C
  C29      1.0000 0.60830  0.82670  0.34200  Biso   1.000  C
  C30      1.0000 0.39170  0.17330  0.34200  Biso   1.000  C
  C31      1.0000 0.10830  0.67330  0.34200  Biso   1.000  C
  C32      1.0000 0.89170  0.32670  0.34200  Biso   1.000  C
  H17      1.0000 0.59980  0.29300  0.90210  Biso   1.000  H
  H18      1.0000 0.40020  0.70700  0.90210  Biso   1.000  H
  H19      1.0000 0.09980  0.20700  0.90210  Biso   1.000  H
  H20      1.0000 0.90020  0.79300  0.90210  Biso   1.000  H
  H21      1.0000 0.59980  0.79300  0.40210  Biso   1.000  H
  H22      1.0000 0.40020  0.20700  0.40210  Biso   1.000  H
  H23      1.0000 0.09980  0.70700  0.40210  Biso   1.000  H
  H24      1.0000 0.90020  0.29300  0.40210  Biso   1.000  H
  C33      1.0000 0.60861  0.38950  0.90600  Biso   1.000  C
  C34      1.0000 0.39139  0.61050  0.90600  Biso   1.000  C
  C35      1.0000 0.10861  0.11050  0.90600  Biso   1.000  C
  C36      1.0000 0.89139  0.88950  0.90600  Biso   1.000  C
  C37      1.0000 0.60861  0.88950  0.40600  Biso   1.000  C
  C38      1.0000 0.39139  0.11050  0.40600  Biso   1.000  C
  C39      1.0000 0.10861  0.61050  0.40600  Biso   1.000  C
  C40      1.0000 0.89139  0.38950  0.40600  Biso   1.000  C
  H25      1.0000 0.60000  0.39800  0.00590  Biso   1.000  H
  H26      1.0000 0.40000  0.60200  0.00590  Biso   1.000  H
  H27      1.0000 0.10000  0.10200  0.00590  Biso   1.000  H
  H28      1.0000 0.90000  0.89800  0.00590  Biso   1.000  H
  H29      1.0000 0.60000  0.89800  0.50590  Biso   1.000  H
  H30      1.0000 0.40000  0.10200  0.50590  Biso   1.000  H
  H31      1.0000 0.10000  0.60200  0.50590  Biso   1.000  H
  H32      1.0000 0.90000  0.39800  0.50590  Biso   1.000  H
  C41      1.0000 0.61981  0.24500  0.62900  Biso   1.000  C
  C42      1.0000 0.38019  0.75500  0.62900  Biso   1.000  C
  C43      1.0000 0.11981  0.25500  0.62900  Biso   1.000  C
  C44      1.0000 0.88019  0.74500  0.62900  Biso   1.000  C
  C45      1.0000 0.61981  0.74500  0.12900  Biso   1.000  C
  C46      1.0000 0.38019  0.25500  0.12900  Biso   1.000  C
  C47      1.0000 0.11981  0.75500  0.12900  Biso   1.000  C
  C48      1.0000 0.88019  0.24500  0.12900  Biso   1.000  C
  C49      1.0000 0.60920  0.23300  0.48000  Biso   1.000  C
  C50      1.0000 0.39080  0.76700  0.48000  Biso   1.000  C
  C51      1.0000 0.10920  0.26700  0.48000  Biso   1.000  C
  C52      1.0000 0.89080  0.73300  0.48000  Biso   1.000  C
  C53      1.0000 0.60920  0.73300  0.98000  Biso   1.000  C
  C54      1.0000 0.39080  0.26700  0.98000  Biso   1.000  C
  C55      1.0000 0.10920  0.76700  0.98000  Biso   1.000  C
  C56      1.0000 0.89080  0.23300  0.98000  Biso   1.000  C
  H33      1.0000 0.60210  0.26760  0.41790  Biso   1.000  H
  H34      1.0000 0.39790  0.73240  0.41790  Biso   1.000  H
  H35      1.0000 0.10210  0.23240  0.41790  Biso   1.000  H
  H36      1.0000 0.89790  0.76760  0.41790  Biso   1.000  H
  H37      1.0000 0.60210  0.76760  0.91790  Biso   1.000  H
  H38      1.0000 0.39790  0.23240  0.91790  Biso   1.000  H
  H39      1.0000 0.10210  0.73240  0.91790  Biso   1.000  H
  H40      1.0000 0.89790  0.26760  0.91790  Biso   1.000  H
  C57      1.0000 0.60870  0.17130  0.41800  Biso   1.000  C
  C58      1.0000 0.39130  0.82870  0.41800  Biso   1.000  C
  C59      1.0000 0.10870  0.32870  0.41800  Biso   1.000  C
  C60      1.0000 0.89130  0.67130  0.41800  Biso   1.000  C
  C61      1.0000 0.60870  0.67130  0.91800  Biso   1.000  C
  C62      1.0000 0.39130  0.32870  0.91800  Biso   1.000  C
  C63      1.0000 0.10870  0.82870  0.91800  Biso   1.000  C
  C64      1.0000 0.89130  0.17130  0.91800  Biso   1.000  C
  H41      1.0000 0.60130  0.16460  0.31450  Biso   1.000  H
  H42      1.0000 0.39870  0.83540  0.31450  Biso   1.000  H
  H43      1.0000 0.10130  0.33540  0.31450  Biso   1.000  H
  H44      1.0000 0.89870  0.66460  0.31450  Biso   1.000  H
  H45      1.0000 0.60130  0.66460  0.81450  Biso   1.000  H
  H46      1.0000 0.39870  0.33540  0.81450  Biso   1.000  H
  H47      1.0000 0.10130  0.83540  0.81450  Biso   1.000  H
  H48      1.0000 0.89870  0.16460  0.81450  Biso   1.000  H
  C65      1.0000 0.62910  0.13010  0.65300  Biso   1.000  C
  C66      1.0000 0.37090  0.86990  0.65300  Biso   1.000  C
  C67      1.0000 0.12910  0.36990  0.65300  Biso   1.000  C
  C68      1.0000 0.87090  0.63010  0.65300  Biso   1.000  C
  C69      1.0000 0.62910  0.63010  0.15300  Biso   1.000  C
  C70      1.0000 0.37090  0.36990  0.15300  Biso   1.000  C
  C71      1.0000 0.12910  0.86990  0.15300  Biso   1.000  C
  C72      1.0000 0.87090  0.13010  0.15300  Biso   1.000  C
  H49      1.0000 0.63600  0.09480  0.71350  Biso   1.000  H
  H50      1.0000 0.36400  0.90520  0.71350  Biso   1.000  H
  H51      1.0000 0.13600  0.40520  0.71350  Biso   1.000  H
  H52      1.0000 0.86400  0.59480  0.71350  Biso   1.000  H
  H53      1.0000 0.63600  0.59480  0.21350  Biso   1.000  H
  H54      1.0000 0.36400  0.40520  0.21350  Biso   1.000  H
  H55      1.0000 0.13600  0.90520  0.21350  Biso   1.000  H
  H56      1.0000 0.86400  0.09480  0.21350  Biso   1.000  H
  C73      1.0000 0.62958  0.19240  0.71800  Biso   1.000  C
  C74      1.0000 0.37042  0.80760  0.71800  Biso   1.000  C
  C75      1.0000 0.12958  0.30760  0.71800  Biso   1.000  C
  C76      1.0000 0.87042  0.69240  0.71800  Biso   1.000  C
  C77      1.0000 0.62958  0.69240  0.21800  Biso   1.000  C
  C78      1.0000 0.37042  0.30760  0.21800  Biso   1.000  C
  C79      1.0000 0.12958  0.80760  0.21800  Biso   1.000  C
  C80      1.0000 0.87042  0.19240  0.21800  Biso   1.000  C
  H57      1.0000 0.63660  0.19870  0.82290  Biso   1.000  H
  H58      1.0000 0.36340  0.80130  0.82290  Biso   1.000  H
  H59      1.0000 0.13660  0.30130  0.82290  Biso   1.000  H
  H60      1.0000 0.86340  0.69870  0.82290  Biso   1.000  H
  H61      1.0000 0.63660  0.69870  0.32290  Biso   1.000  H
  H62      1.0000 0.36340  0.30130  0.32290  Biso   1.000  H
  H63      1.0000 0.13660  0.80130  0.32290  Biso   1.000  H
  H64      1.0000 0.86340  0.19870  0.32290  Biso   1.000  H
  C81      1.0000 0.68331  0.48820  0.95500  Biso   1.000  C
  C82      1.0000 0.31669  0.51180  0.95500  Biso   1.000  C
  C83      1.0000 0.18331  0.01180  0.95500  Biso   1.000  C
  C84      1.0000 0.81669  0.98820  0.95500  Biso   1.000  C
  C85      1.0000 0.68331  0.98820  0.45500  Biso   1.000  C
  C86      1.0000 0.31669  0.01180  0.45500  Biso   1.000  C
  C87      1.0000 0.18331  0.51180  0.45500  Biso   1.000  C
  C88      1.0000 0.81669  0.48820  0.45500  Biso   1.000  C
  H65      1.0000 0.67440  0.44970  0.99100  Biso   1.000  H
  H66      1.0000 0.32560  0.55030  0.99100  Biso   1.000  H
  H67      1.0000 0.17440  0.05030  0.99100  Biso   1.000  H
  H68      1.0000 0.82560  0.94970  0.99100  Biso   1.000  H
  H69      1.0000 0.67440  0.94970  0.49100  Biso   1.000  H
  H70      1.0000 0.32560  0.05030  0.49100  Biso   1.000  H
  H71      1.0000 0.17440  0.55030  0.49100  Biso   1.000  H
  H72      1.0000 0.82560  0.44970  0.49100  Biso   1.000  H
  C89      1.0000 0.71329  0.49270  0.95900  Biso   1.000  C
  C90      1.0000 0.28671  0.50730  0.95900  Biso   1.000  C
  C91      1.0000 0.21329  0.00730  0.95900  Biso   1.000  C
  C92      1.0000 0.78671  0.99270  0.95900  Biso   1.000  C
  C93      1.0000 0.71329  0.99270  0.45900  Biso   1.000  C
  C94      1.0000 0.28671  0.00730  0.45900  Biso   1.000  C
  C95      1.0000 0.21329  0.50730  0.45900  Biso   1.000  C
  C96      1.0000 0.78671  0.49270  0.45900  Biso   1.000  C
  H73      1.0000 0.72440  0.45710  0.99480  Biso   1.000  H
  H74      1.0000 0.27560  0.54290  0.99480  Biso   1.000  H
  H75      1.0000 0.22440  0.04290  0.99480  Biso   1.000  H
  H76      1.0000 0.77560  0.95710  0.99480  Biso   1.000  H
  H77      1.0000 0.72440  0.95710  0.49480  Biso   1.000  H
  H78      1.0000 0.27560  0.04290  0.49480  Biso   1.000  H
  H79      1.0000 0.22440  0.54290  0.49480  Biso   1.000  H
  H80      1.0000 0.77560  0.45710  0.49480  Biso   1.000  H
  C97      1.0000 0.72775  0.55080  0.91100  Biso   1.000  C
  C98      1.0000 0.27225  0.44920  0.91100  Biso   1.000  C
  C99      1.0000 0.22775  0.94920  0.91100  Biso   1.000  C
  C100     1.0000 0.77225  0.05080  0.91100  Biso   1.000  C
  C101     1.0000 0.72775  0.05080  0.41100  Biso   1.000  C
  C102     1.0000 0.27225  0.94920  0.41100  Biso   1.000  C
  C103     1.0000 0.22775  0.44920  0.41100  Biso   1.000  C
  C104     1.0000 0.77225  0.55080  0.41100  Biso   1.000  C
  C105     1.0000 0.71011  0.60380  0.86200  Biso   1.000  C
  C106     1.0000 0.28989  0.39620  0.86200  Biso   1.000  C
  C107     1.0000 0.21011  0.89620  0.86200  Biso   1.000  C
  C108     1.0000 0.78989  0.10380  0.86200  Biso   1.000  C
  C109     1.0000 0.71011  0.10380  0.36200  Biso   1.000  C
  C110     1.0000 0.28989  0.89620  0.36200  Biso   1.000  C
  C111     1.0000 0.21011  0.39620  0.36200  Biso   1.000  C
  C112     1.0000 0.78989  0.60380  0.36200  Biso   1.000  C
  H81      1.0000 0.71830  0.64360  0.83040  Biso   1.000  H
  H82      1.0000 0.28170  0.35640  0.83040  Biso   1.000  H
  H83      1.0000 0.21830  0.85640  0.83040  Biso   1.000  H
  H84      1.0000 0.78170  0.14360  0.83040  Biso   1.000  H
  H85      1.0000 0.71830  0.14360  0.33040  Biso   1.000  H
  H86      1.0000 0.28170  0.85640  0.33040  Biso   1.000  H
  H87      1.0000 0.21830  0.35640  0.33040  Biso   1.000  H
  H88      1.0000 0.78170  0.64360  0.33040  Biso   1.000  H
  C113     1.0000 0.67960  0.59380  0.86200  Biso   1.000  C
  C114     1.0000 0.32040  0.40620  0.86200  Biso   1.000  C
  C115     1.0000 0.17960  0.90620  0.86200  Biso   1.000  C
  C116     1.0000 0.82040  0.09380  0.86200  Biso   1.000  C
  C117     1.0000 0.67960  0.09380  0.36200  Biso   1.000  C
  C118     1.0000 0.32040  0.90620  0.36200  Biso   1.000  C
  C119     1.0000 0.17960  0.40620  0.36200  Biso   1.000  C
  C120     1.0000 0.82040  0.59380  0.36200  Biso   1.000  C
  H89      1.0000 0.66790  0.62920  0.83230  Biso   1.000  H
  H90      1.0000 0.33210  0.37080  0.83230  Biso   1.000  H
  H91      1.0000 0.16790  0.87080  0.83230  Biso   1.000  H
  H92      1.0000 0.83210  0.12920  0.83230  Biso   1.000  H
  H93      1.0000 0.66790  0.12920  0.33230  Biso   1.000  H
  H94      1.0000 0.33210  0.87080  0.33230  Biso   1.000  H
  H95      1.0000 0.16790  0.37080  0.33230  Biso   1.000  H
  H96      1.0000 0.83210  0.62920  0.33230  Biso   1.000  H
  C121     1.0000 0.76008  0.55580  0.91900  Biso   1.000  C
  C122     1.0000 0.23992  0.44420  0.91900  Biso   1.000  C
  C123     1.0000 0.26008  0.94420  0.91900  Biso   1.000  C
  C124     1.0000 0.73992  0.05580  0.91900  Biso   1.000  C
  C125     1.0000 0.76008  0.05580  0.41900  Biso   1.000  C
  C126     1.0000 0.23992  0.94420  0.41900  Biso   1.000  C
  C127     1.0000 0.26008  0.44420  0.41900  Biso   1.000  C
  C128     1.0000 0.73992  0.55580  0.41900  Biso   1.000  C
  C129     1.0000 0.77370  0.61610  0.94500  Biso   1.000  C
  C130     1.0000 0.22630  0.38390  0.94500  Biso   1.000  C
  C131     1.0000 0.27370  0.88390  0.94500  Biso   1.000  C
  C132     1.0000 0.72630  0.11610  0.94500  Biso   1.000  C
  C133     1.0000 0.77370  0.11610  0.44500  Biso   1.000  C
  C134     1.0000 0.22630  0.88390  0.44500  Biso   1.000  C
  C135     1.0000 0.27370  0.38390  0.44500  Biso   1.000  C
  C136     1.0000 0.72630  0.61610  0.44500  Biso   1.000  C
  H97      1.0000 0.76250  0.65420  0.95410  Biso   1.000  H
  H98      1.0000 0.23750  0.34580  0.95410  Biso   1.000  H
  H99      1.0000 0.26250  0.84580  0.95410  Biso   1.000  H
  H100     1.0000 0.73750  0.15420  0.95410  Biso   1.000  H
  H101     1.0000 0.76250  0.15420  0.45410  Biso   1.000  H
  H102     1.0000 0.23750  0.84580  0.45410  Biso   1.000  H
  H103     1.0000 0.26250  0.34580  0.45410  Biso   1.000  H
  H104     1.0000 0.73750  0.65420  0.45410  Biso   1.000  H
  C137     1.0000 0.80400  0.61820  0.95700  Biso   1.000  C
  C138     1.0000 0.19600  0.38180  0.95700  Biso   1.000  C
  C139     1.0000 0.30400  0.88180  0.95700  Biso   1.000  C
  C140     1.0000 0.69600  0.11820  0.95700  Biso   1.000  C
  C141     1.0000 0.80400  0.11820  0.45700  Biso   1.000  C
  C142     1.0000 0.19600  0.88180  0.45700  Biso   1.000  C
  C143     1.0000 0.30400  0.38180  0.45700  Biso   1.000  C
  C144     1.0000 0.69600  0.61820  0.45700  Biso   1.000  C
  H105     1.0000 0.81280  0.65860  0.97670  Biso   1.000  H
  H106     1.0000 0.18720  0.34140  0.97670  Biso   1.000  H
  H107     1.0000 0.31280  0.84140  0.97670  Biso   1.000  H
  H108     1.0000 0.68720  0.15860  0.97670  Biso   1.000  H
  H109     1.0000 0.81280  0.15860  0.47670  Biso   1.000  H
  H110     1.0000 0.18720  0.84140  0.47670  Biso   1.000  H
  H111     1.0000 0.31280  0.34140  0.47670  Biso   1.000  H
  H112     1.0000 0.68720  0.65860  0.47670  Biso   1.000  H
  C145     1.0000 0.80800  0.51330  0.91300  Biso   1.000  C
  C146     1.0000 0.19200  0.48670  0.91300  Biso   1.000  C
  C147     1.0000 0.30800  0.98670  0.91300  Biso   1.000  C
  C148     1.0000 0.69200  0.01330  0.91300  Biso   1.000  C
  C149     1.0000 0.80800  0.01330  0.41300  Biso   1.000  C
  C150     1.0000 0.19200  0.98670  0.41300  Biso   1.000  C
  C151     1.0000 0.30800  0.48670  0.41300  Biso   1.000  C
  C152     1.0000 0.69200  0.51330  0.41300  Biso   1.000  C
  H113     1.0000 0.82010  0.47690  0.89800  Biso   1.000  H
  H114     1.0000 0.17990  0.52310  0.89800  Biso   1.000  H
  H115     1.0000 0.32010  0.02310  0.89800  Biso   1.000  H
  H116     1.0000 0.67990  0.97690  0.89800  Biso   1.000  H
  H117     1.0000 0.82010  0.97690  0.39800  Biso   1.000  H
  H118     1.0000 0.17990  0.02310  0.39800  Biso   1.000  H
  H119     1.0000 0.32010  0.52310  0.39800  Biso   1.000  H
  H120     1.0000 0.67990  0.47690  0.39800  Biso   1.000  H
  C153     1.0000 0.77870  0.50130  0.89900  Biso   1.000  C
  C154     1.0000 0.22130  0.49870  0.89900  Biso   1.000  C
  C155     1.0000 0.27870  0.99870  0.89900  Biso   1.000  C
  C156     1.0000 0.72130  0.00130  0.89900  Biso   1.000  C
  C157     1.0000 0.77870  0.00130  0.39900  Biso   1.000  C
  C158     1.0000 0.22130  0.99870  0.39900  Biso   1.000  C
  C159     1.0000 0.27870  0.49870  0.39900  Biso   1.000  C
  C160     1.0000 0.72130  0.50130  0.39900  Biso   1.000  C
  H121     1.0000 0.77130  0.45960  0.87860  Biso   1.000  H
  H122     1.0000 0.22870  0.54040  0.87860  Biso   1.000  H
  H123     1.0000 0.27130  0.04040  0.87860  Biso   1.000  H
  H124     1.0000 0.72870  0.95960  0.87860  Biso   1.000  H
  H125     1.0000 0.77130  0.95960  0.37860  Biso   1.000  H
  H126     1.0000 0.22870  0.04040  0.37860  Biso   1.000  H
  H127     1.0000 0.27130  0.54040  0.37860  Biso   1.000  H
  H128     1.0000 0.72870  0.45960  0.37860  Biso   1.000  H
  C161     1.0000 0.56340  0.50570  0.76000  Biso   1.000  C
  C162     1.0000 0.43660  0.49430  0.76000  Biso   1.000  C
  C163     1.0000 0.06340  0.99430  0.76000  Biso   1.000  C
  C164     1.0000 0.93660  0.00570  0.76000  Biso   1.000  C
  C165     1.0000 0.56340  0.00570  0.26000  Biso   1.000  C
  C166     1.0000 0.43660  0.99430  0.26000  Biso   1.000  C
  C167     1.0000 0.06340  0.49430  0.26000  Biso   1.000  C
  C168     1.0000 0.93660  0.50570  0.26000  Biso   1.000  C
  H129     1.0000 0.57430  0.49980  0.66620  Biso   1.000  H
  H130     1.0000 0.42570  0.50020  0.66620  Biso   1.000  H
  H131     1.0000 0.07430  0.00020  0.66620  Biso   1.000  H
  H132     1.0000 0.92570  0.99980  0.66620  Biso   1.000  H
  H133     1.0000 0.57430  0.99980  0.16620  Biso   1.000  H
  H134     1.0000 0.42570  0.00020  0.16620  Biso   1.000  H
  H135     1.0000 0.07430  0.50020  0.16620  Biso   1.000  H
  H136     1.0000 0.92570  0.49980  0.16620  Biso   1.000  H
  C169     1.0000 0.53340  0.49320  0.75800  Biso   1.000  C
  C170     1.0000 0.46660  0.50680  0.75800  Biso   1.000  C
  C171     1.0000 0.03340  0.00680  0.75800  Biso   1.000  C
  C172     1.0000 0.96660  0.99320  0.75800  Biso   1.000  C
  C173     1.0000 0.53340  0.99320  0.25800  Biso   1.000  C
  C174     1.0000 0.46660  0.00680  0.25800  Biso   1.000  C
  C175     1.0000 0.03340  0.50680  0.25800  Biso   1.000  C
  C176     1.0000 0.96660  0.49320  0.25800  Biso   1.000  C
  H137     1.0000 0.52460  0.47640  0.66500  Biso   1.000  H
  H138     1.0000 0.47540  0.52360  0.66500  Biso   1.000  H
  H139     1.0000 0.02460  0.02360  0.66500  Biso   1.000  H
  H140     1.0000 0.97540  0.97640  0.66500  Biso   1.000  H
  H141     1.0000 0.52460  0.97640  0.16500  Biso   1.000  H
  H142     1.0000 0.47540  0.02360  0.16500  Biso   1.000  H
  H143     1.0000 0.02460  0.52360  0.16500  Biso   1.000  H
  H144     1.0000 0.97540  0.47640  0.16500  Biso   1.000  H
  C177     1.0000 0.51633  0.50560  0.89300  Biso   1.000  C
  C178     1.0000 0.48367  0.49440  0.89300  Biso   1.000  C
  C179     1.0000 0.01633  0.99440  0.89300  Biso   1.000  C
  C180     1.0000 0.98367  0.00560  0.89300  Biso   1.000  C
  C181     1.0000 0.51633  0.00560  0.39300  Biso   1.000  C
  C182     1.0000 0.48367  0.99440  0.39300  Biso   1.000  C
  C183     1.0000 0.01633  0.49440  0.39300  Biso   1.000  C
  C184     1.0000 0.98367  0.50560  0.39300  Biso   1.000  C
  C185     1.0000 0.52970  0.53160  0.02600  Biso   1.000  C
  C186     1.0000 0.47030  0.46840  0.02600  Biso   1.000  C
  C187     1.0000 0.02970  0.96840  0.02600  Biso   1.000  C
  C188     1.0000 0.97030  0.03160  0.02600  Biso   1.000  C
  C189     1.0000 0.52970  0.03160  0.52600  Biso   1.000  C
  C190     1.0000 0.47030  0.96840  0.52600  Biso   1.000  C
  C191     1.0000 0.02970  0.46840  0.52600  Biso   1.000  C
  C192     1.0000 0.97030  0.53160  0.52600  Biso   1.000  C
  H145     1.0000 0.51870  0.54190  0.11740  Biso   1.000  H
  H146     1.0000 0.48130  0.45810  0.11740  Biso   1.000  H
  H147     1.0000 0.01870  0.95810  0.11740  Biso   1.000  H
  H148     1.0000 0.98130  0.04190  0.11740  Biso   1.000  H
  H149     1.0000 0.51870  0.04190  0.61740  Biso   1.000  H
  H150     1.0000 0.48130  0.95810  0.61740  Biso   1.000  H
  H151     1.0000 0.01870  0.45810  0.61740  Biso   1.000  H
  H152     1.0000 0.98130  0.54190  0.61740  Biso   1.000  H
  C193     1.0000 0.56030  0.54250  0.02300  Biso   1.000  C
  C194     1.0000 0.43970  0.45750  0.02300  Biso   1.000  C
  C195     1.0000 0.06030  0.95750  0.02300  Biso   1.000  C
  C196     1.0000 0.93970  0.04250  0.02300  Biso   1.000  C
  C197     1.0000 0.56030  0.04250  0.52300  Biso   1.000  C
  C198     1.0000 0.43970  0.95750  0.52300  Biso   1.000  C
  C199     1.0000 0.06030  0.45750  0.52300  Biso   1.000  C
  C200     1.0000 0.93970  0.54250  0.52300  Biso   1.000  C
  H153     1.0000 0.56940  0.56150  0.11220  Biso   1.000  H
  H154     1.0000 0.43060  0.43850  0.11220  Biso   1.000  H
  H155     1.0000 0.06940  0.93850  0.11220  Biso   1.000  H
  H156     1.0000 0.93060  0.06150  0.11220  Biso   1.000  H
  H157     1.0000 0.56940  0.06150  0.61220  Biso   1.000  H
  H158     1.0000 0.43060  0.93850  0.61220  Biso   1.000  H
  H159     1.0000 0.06940  0.43850  0.61220  Biso   1.000  H
  H160     1.0000 0.93060  0.56150  0.61220  Biso   1.000  H
  Cl1      1.0000 0.82888  0.79973  0.16600  Biso   1.000  Cl
  Cl2      1.0000 0.17112  0.20027  0.16600  Biso   1.000  Cl
  Cl3      1.0000 0.32888  0.70027  0.16600  Biso   1.000  Cl
  Cl4      1.0000 0.67112  0.29973  0.16600  Biso   1.000  Cl
  Cl5      1.0000 0.82888  0.29973  0.66600  Biso   1.000  Cl
  Cl6      1.0000 0.17112  0.70027  0.66600  Biso   1.000  Cl
  Cl7      1.0000 0.32888  0.20027  0.66600  Biso   1.000  Cl
  Cl8      1.0000 0.67112  0.79973  0.66600  Biso   1.000  Cl
  Cl9      1.0000 0.94656  0.40230  0.84920  Biso   1.000  Cl
  Cl10     1.0000 0.05344  0.59770  0.84920  Biso   1.000  Cl
  Cl11     1.0000 0.44656  0.09770  0.84920  Biso   1.000  Cl
  Cl12     1.0000 0.55344  0.90230  0.84920  Biso   1.000  Cl
  Cl13     1.0000 0.94656  0.90230  0.34920  Biso   1.000  Cl
  Cl14     1.0000 0.05344  0.09770  0.34920  Biso   1.000  Cl
  Cl15     1.0000 0.44656  0.59770  0.34920  Biso   1.000  Cl
  Cl16     1.0000 0.55344  0.40230  0.34920  Biso   1.000  Cl
  O1       1.0000 0.81600  0.81400  0.01200  Biso   1.000  O
  O2       1.0000 0.18400  0.18600  0.01200  Biso   1.000  O
  O3       1.0000 0.31600  0.68600  0.01200  Biso   1.000  O
  O4       1.0000 0.68400  0.31400  0.01200  Biso   1.000  O
  O5       1.0000 0.81600  0.31400  0.51200  Biso   1.000  O
  O6       1.0000 0.18400  0.68600  0.51200  Biso   1.000  O
  O7       1.0000 0.31600  0.18600  0.51200  Biso   1.000  O
  O8       1.0000 0.68400  0.81400  0.51200  Biso   1.000  O
  O9       1.0000 0.81860  0.76380  0.30300  Biso   1.000  O
  O10      1.0000 0.18140  0.23620  0.30300  Biso   1.000  O
  O11      1.0000 0.31860  0.73620  0.30300  Biso   1.000  O
  O12      1.0000 0.68140  0.26380  0.30300  Biso   1.000  O
  O13      1.0000 0.81860  0.26380  0.80300  Biso   1.000  O
  O14      1.0000 0.18140  0.73620  0.80300  Biso   1.000  O
  O15      1.0000 0.31860  0.23620  0.80300  Biso   1.000  O
  O16      1.0000 0.68140  0.76380  0.80300  Biso   1.000  O
  O17      1.0000 0.84690  0.85340  0.21600  Biso   1.000  O
  O18      1.0000 0.15310  0.14660  0.21600  Biso   1.000  O
  O19      1.0000 0.34690  0.64660  0.21600  Biso   1.000  O
  O20      1.0000 0.65310  0.35340  0.21600  Biso   1.000  O
  O21      1.0000 0.84690  0.35340  0.71600  Biso   1.000  O
  O22      1.0000 0.15310  0.64660  0.71600  Biso   1.000  O
  O23      1.0000 0.34690  0.14660  0.71600  Biso   1.000  O
  O24      1.0000 0.65310  0.85340  0.71600  Biso   1.000  O
  O25      1.0000 0.85030  0.74860  0.12400  Biso   1.000  O
  O26      1.0000 0.14970  0.25140  0.12400  Biso   1.000  O
  O27      1.0000 0.35030  0.75140  0.12400  Biso   1.000  O
  O28      1.0000 0.64970  0.24860  0.12400  Biso   1.000  O
  O29      1.0000 0.85030  0.24860  0.62400  Biso   1.000  O
  O30      1.0000 0.14970  0.75140  0.62400  Biso   1.000  O
  O31      1.0000 0.35030  0.25140  0.62400  Biso   1.000  O
  O32      1.0000 0.64970  0.74860  0.62400  Biso   1.000  O
  O33      1.0000 0.93560  0.37370  0.70500  Biso   1.000  O
  O34      1.0000 0.06440  0.62630  0.70500  Biso   1.000  O
  O35      1.0000 0.43560  0.12630  0.70500  Biso   1.000  O
  O36      1.0000 0.56440  0.87370  0.70500  Biso   1.000  O
  O37      1.0000 0.93560  0.87370  0.20500  Biso   1.000  O
  O38      1.0000 0.06440  0.12630  0.20500  Biso   1.000  O
  O39      1.0000 0.43560  0.62630  0.20500  Biso   1.000  O
  O40      1.0000 0.56440  0.37370  0.20500  Biso   1.000  O
  O41      1.0000 0.92930  0.46070  0.87300  Biso   1.000  O
  O42      1.0000 0.07070  0.53930  0.87300  Biso   1.000  O
  O43      1.0000 0.42930  0.03930  0.87300  Biso   1.000  O
  O44      1.0000 0.57070  0.96070  0.87300  Biso   1.000  O
  O45      1.0000 0.92930  0.96070  0.37300  Biso   1.000  O
  O46      1.0000 0.07070  0.03930  0.37300  Biso   1.000  O
  O47      1.0000 0.42930  0.53930  0.37300  Biso   1.000  O
  O48      1.0000 0.57070  0.46070  0.37300  Biso   1.000  O
  O49      1.0000 0.97680  0.42270  0.85200  Biso   1.000  O
  O50      1.0000 0.02320  0.57730  0.85200  Biso   1.000  O
  O51      1.0000 0.47680  0.07730  0.85200  Biso   1.000  O
  O52      1.0000 0.52320  0.92270  0.85200  Biso   1.000  O
  O53      1.0000 0.97680  0.92270  0.35200  Biso   1.000  O
  O54      1.0000 0.02320  0.07730  0.35200  Biso   1.000  O
  O55      1.0000 0.47680  0.57730  0.35200  Biso   1.000  O
  O56      1.0000 0.52320  0.42270  0.35200  Biso   1.000  O
  O57      1.0000 0.94330  0.36690  0.99800  Biso   1.000  O
  O58      1.0000 0.05670  0.63310  0.99800  Biso   1.000  O
  O59      1.0000 0.44330  0.13310  0.99800  Biso   1.000  O
  O60      1.0000 0.55670  0.86690  0.99800  Biso   1.000  O
  O61      1.0000 0.94330  0.86690  0.49800  Biso   1.000  O
  O62      1.0000 0.05670  0.13310  0.49800  Biso   1.000  O
  O63      1.0000 0.44330  0.63310  0.49800  Biso   1.000  O
  O64      1.0000 0.55670  0.36690  0.49800  Biso   1.000  O
  O65      1.0000 0.62281  0.57530  0.62100  Biso   1.000  O
  O66      1.0000 0.37719  0.42470  0.62100  Biso   1.000  O
  O67      1.0000 0.12281  0.92470  0.62100  Biso   1.000  O
  O68      1.0000 0.87719  0.07530  0.62100  Biso   1.000  O
  O69      1.0000 0.62281  0.07530  0.12100  Biso   1.000  O
  O70      1.0000 0.37719  0.92470  0.12100  Biso   1.000  O
  O71      1.0000 0.12281  0.42470  0.12100  Biso   1.000  O
  O72      1.0000 0.87719  0.57530  0.12100  Biso   1.000  O
  O73      1.0000 0.62462  0.47710  0.20500  Biso   1.000  O
  O74      1.0000 0.37538  0.52290  0.20500  Biso   1.000  O
  O75      1.0000 0.12462  0.02290  0.20500  Biso   1.000  O
  O76      1.0000 0.87538  0.97710  0.20500  Biso   1.000  O
  O77      1.0000 0.62462  0.97710  0.70500  Biso   1.000  O
  O78      1.0000 0.37538  0.02290  0.70500  Biso   1.000  O
  O79      1.0000 0.12462  0.52290  0.70500  Biso   1.000  O
  O80      1.0000 0.87538  0.47710  0.70500  Biso   1.000  O
  O81      1.0000 0.57430  0.59750  0.41500  Biso   1.000  O
  O82      1.0000 0.42570  0.40250  0.41500  Biso   1.000  O
  O83      1.0000 0.07430  0.90250  0.41500  Biso   1.000  O
  O84      1.0000 0.92570  0.09750  0.41500  Biso   1.000  O
  O85      1.0000 0.57430  0.09750  0.91500  Biso   1.000  O
  O86      1.0000 0.42570  0.90250  0.91500  Biso   1.000  O
  O87      1.0000 0.07430  0.40250  0.91500  Biso   1.000  O
  O88      1.0000 0.92570  0.59750  0.91500  Biso   1.000  O
  C201     1.0000 0.57390  0.65310  0.51320  Biso   1.000  C
  C202     1.0000 0.42610  0.34690  0.51320  Biso   1.000  C
  C203     1.0000 0.07390  0.84690  0.51320  Biso   1.000  C
  C204     1.0000 0.92610  0.15310  0.51320  Biso   1.000  C
  C205     1.0000 0.57390  0.15310  0.01320  Biso   1.000  C
  C206     1.0000 0.42610  0.84690  0.01320  Biso   1.000  C
  C207     1.0000 0.07390  0.34690  0.01320  Biso   1.000  C
  C208     1.0000 0.92610  0.65310  0.01320  Biso   1.000  C
  O89      1.0000 0.77500  0.27200  0.17280  Biso   1.000  O
  O90      1.0000 0.22500  0.72800  0.17280  Biso   1.000  O
  O91      1.0000 0.27500  0.22800  0.17280  Biso   1.000  O
  O92      1.0000 0.72500  0.77200  0.17280  Biso   1.000  O
  O93      1.0000 0.77500  0.77200  0.67280  Biso   1.000  O
  O94      1.0000 0.22500  0.22800  0.67280  Biso   1.000  O
  O95      1.0000 0.27500  0.72800  0.67280  Biso   1.000  O
  O96      1.0000 0.72500  0.27200  0.67280  Biso   1.000  O
  C209     1.0000 0.77910  0.33980  0.14820  Biso   1.000  C
  C210     1.0000 0.22090  0.66020  0.14820  Biso   1.000  C
  C211     1.0000 0.27910  0.16020  0.14820  Biso   1.000  C
  C212     1.0000 0.72090  0.83980  0.14820  Biso   1.000  C
  C213     1.0000 0.77910  0.83980  0.64820  Biso   1.000  C
  C214     1.0000 0.22090  0.16020  0.64820  Biso   1.000  C
  C215     1.0000 0.27910  0.66020  0.64820  Biso   1.000  C
  C216     1.0000 0.72090  0.33980  0.64820  Biso   1.000  C
  C217     1.0000 0.74910  0.37220  0.18490  Biso   1.000  C
  C218     1.0000 0.25090  0.62780  0.18490  Biso   1.000  C
  C219     1.0000 0.24910  0.12780  0.18490  Biso   1.000  C
  C220     1.0000 0.75090  0.87220  0.18490  Biso   1.000  C
  C221     1.0000 0.74910  0.87220  0.68490  Biso   1.000  C
  C222     1.0000 0.25090  0.12780  0.68490  Biso   1.000  C
  C223     1.0000 0.24910  0.62780  0.68490  Biso   1.000  C
  C224     1.0000 0.75090  0.37220  0.68490  Biso   1.000  C
