data_image0
_cell_length_a       6.7279
_cell_length_b       7.8542
_cell_length_c       9.6382
_cell_angle_alpha    83.12
_cell_angle_beta     83.79
_cell_angle_gamma    77.95

_symmetry_space_group_name_H-M    "P 1"
_symmetry_int_tables_number       1

loop_
  _symmetry_equiv_pos_as_xyz
  'x, y, z'

loop_
  _atom_site_label
  _atom_site_occupancy
  _atom_site_fract_x
  _atom_site_fract_y
  _atom_site_fract_z
  _atom_site_thermal_displace_type
  _atom_site_B_iso_or_equiv
  _atom_site_type_symbol
  Cu1      1.0000 0.50000  0.50000  0.50000  Biso   1.000  Cu
  N1       1.0000 0.24260  0.61060  0.60447  Biso   1.000  N
  N2       1.0000 0.75740  0.38940  0.39553  Biso   1.000  N
  N3       1.0000 0.86240  0.78990  0.70320  Biso   1.000  N
  N4       1.0000 0.13760  0.21010  0.29680  Biso   1.000  N
  O1       1.0000 0.34220  0.56890  0.33658  Biso   1.000  O
  O2       1.0000 0.65780  0.43110  0.66342  Biso   1.000  O
  O3       1.0000 0.02300  0.68770  0.28141  Biso   1.000  O
  O4       1.0000 0.97700  0.31230  0.71859  Biso   1.000  O
  O5       1.0000 0.77490  0.99143  0.39659  Biso   1.000  O
  O6       1.0000 0.22510  0.00857  0.60341  Biso   1.000  O
  H1       1.0000 0.69860  0.01710  0.33320  Biso   1.000  H
  H2       1.0000 0.30140  0.98290  0.66680  Biso   1.000  H
  O7       1.0000 0.59590  0.78040  0.46579  Biso   1.000  O
  O8       1.0000 0.40410  0.21960  0.53421  Biso   1.000  O
  O9       1.0000 0.79830  0.84150  0.98178  Biso   1.000  O
  O10      1.0000 0.20170  0.15850  0.01822  Biso   1.000  O
  O11      1.0000 0.10160  0.66270  0.01852  Biso   1.000  O
  O12      1.0000 0.89840  0.33730  0.98148  Biso   1.000  O
  H3       1.0000 0.06950  0.67990  0.10090  Biso   1.000  H
  H4       1.0000 0.93050  0.32010  0.89910  Biso   1.000  H
  C1       1.0000 0.09810  0.67920  0.51590  Biso   1.000  C
  C2       1.0000 0.90190  0.32080  0.48410  Biso   1.000  C
  C3       1.0000 0.90820  0.76930  0.56640  Biso   1.000  C
  C4       1.0000 0.09180  0.23070  0.43360  Biso   1.000  C
  C5       1.0000 0.00870  0.72040  0.78870  Biso   1.000  C
  C6       1.0000 0.99130  0.27960  0.21130  Biso   1.000  C
  C7       1.0000 0.20100  0.62950  0.74020  Biso   1.000  C
  C8       1.0000 0.79900  0.37050  0.25980  Biso   1.000  C
  H5       1.0000 0.29900  0.58270  0.80270  Biso   1.000  H
  H6       1.0000 0.70100  0.41730  0.19730  Biso   1.000  H
  C9       1.0000 0.15880  0.64410  0.36440  Biso   1.000  C
  C10      1.0000 0.84120  0.35590  0.63560  Biso   1.000  C
  C11      1.0000 0.74210  0.84710  0.46950  Biso   1.000  C
  C12      1.0000 0.25790  0.15290  0.53050  Biso   1.000  C
  C13      1.0000 0.95730  0.74870  0.94190  Biso   1.000  C
  C14      1.0000 0.04270  0.25130  0.05810  Biso   1.000  C
  O13      1.0000 0.57950  0.07740  0.18069  Biso   1.000  O
  O14      1.0000 0.42050  0.92260  0.81931  Biso   1.000  O
  H7       1.0000 0.45080  0.10550  0.18840  Biso   1.000  H
  H8       1.0000 0.54920  0.89450  0.81160  Biso   1.000  H
  H9       1.0000 0.63000  0.99980  0.12480  Biso   1.000  H
  H10      1.0000 0.37000  0.00020  0.87520  Biso   1.000  H
