data_image0
_cell_length_a       6.5939
_cell_length_b       12.493
_cell_length_c       14.112
_cell_angle_alpha    90
_cell_angle_beta     107.3
_cell_angle_gamma    90

_symmetry_space_group_name_H-M    "P 1"
_symmetry_int_tables_number       1

loop_
  _symmetry_equiv_pos_as_xyz
  'x, y, z'

loop_
  _atom_site_label
  _atom_site_occupancy
  _atom_site_fract_x
  _atom_site_fract_y
  _atom_site_fract_z
  _atom_site_thermal_displace_type
  _atom_site_B_iso_or_equiv
  _atom_site_type_symbol
  Cu1      1.0000 0.25019  0.83604  0.98292  Biso   1.000  Cu
  Cu2      1.0000 0.74981  0.33604  0.51708  Biso   1.000  Cu
  Cu3      1.0000 0.74981  0.16396  0.01708  Biso   1.000  Cu
  Cu4      1.0000 0.25019  0.66396  0.48292  Biso   1.000  Cu
  N1       1.0000 0.25800  0.78031  0.83316  Biso   1.000  N
  N2       1.0000 0.74200  0.28031  0.66684  Biso   1.000  N
  N3       1.0000 0.74200  0.21969  0.16684  Biso   1.000  N
  N4       1.0000 0.25800  0.71969  0.33316  Biso   1.000  N
  N5       1.0000 0.24420  0.72542  0.64294  Biso   1.000  N
  N6       1.0000 0.75580  0.22542  0.85706  Biso   1.000  N
  N7       1.0000 0.75580  0.27458  0.35706  Biso   1.000  N
  N8       1.0000 0.24420  0.77458  0.14294  Biso   1.000  N
  O1       1.0000 0.22960  0.97925  0.88768  Biso   1.000  O
  O2       1.0000 0.77040  0.47925  0.61232  Biso   1.000  O
  O3       1.0000 0.77040  0.02075  0.11232  Biso   1.000  O
  O4       1.0000 0.22960  0.52075  0.38768  Biso   1.000  O
  O5       1.0000 0.20060  0.04130  0.73512  Biso   1.000  O
  O6       1.0000 0.79940  0.54130  0.76488  Biso   1.000  O
  O7       1.0000 0.79940  0.95870  0.26488  Biso   1.000  O
  O8       1.0000 0.20060  0.45870  0.23512  Biso   1.000  O
  O9       1.0000 0.25250  0.52820  0.58186  Biso   1.000  O
  O10      1.0000 0.74750  0.02820  0.91814  Biso   1.000  O
  O11      1.0000 0.74750  0.47180  0.41814  Biso   1.000  O
  O12      1.0000 0.25250  0.97180  0.08186  Biso   1.000  O
  O13      1.0000 0.30460  0.45808  0.73066  Biso   1.000  O
  O14      1.0000 0.69540  0.95808  0.76934  Biso   1.000  O
  O15      1.0000 0.69540  0.54192  0.26934  Biso   1.000  O
  O16      1.0000 0.30460  0.04192  0.23066  Biso   1.000  O
  O17      1.0000 0.30010  0.50501  0.89466  Biso   1.000  O
  O18      1.0000 0.69990  0.00501  0.60534  Biso   1.000  O
  O19      1.0000 0.69990  0.49499  0.10534  Biso   1.000  O
  O20      1.0000 0.30010  0.99499  0.39466  Biso   1.000  O
  H1       1.0000 0.29400  0.48000  0.81500  Biso   1.000  H
  H2       1.0000 0.70600  0.98000  0.68500  Biso   1.000  H
  H3       1.0000 0.70600  0.52000  0.18500  Biso   1.000  H
  H4       1.0000 0.29400  0.02000  0.31500  Biso   1.000  H
  O21      1.0000 0.27630  0.65265  0.97621  Biso   1.000  O
  O22      1.0000 0.72370  0.15265  0.52379  Biso   1.000  O
  O23      1.0000 0.72370  0.34735  0.02379  Biso   1.000  O
  O24      1.0000 0.27630  0.84735  0.47621  Biso   1.000  O
  O25      1.0000 0.93040  0.81688  0.93843  Biso   1.000  O
  O26      1.0000 0.06960  0.31688  0.56157  Biso   1.000  O
  O27      1.0000 0.06960  0.18312  0.06157  Biso   1.000  O
  O28      1.0000 0.93040  0.68312  0.43843  Biso   1.000  O
  H5       1.0000 0.92410  0.74920  0.94270  Biso   1.000  H
  H6       1.0000 0.07590  0.24920  0.55730  Biso   1.000  H
  H7       1.0000 0.07590  0.25080  0.05730  Biso   1.000  H
  H8       1.0000 0.92410  0.75080  0.44270  Biso   1.000  H
  H9       1.0000 0.82980  0.85330  0.94820  Biso   1.000  H
  H10      1.0000 0.17020  0.35330  0.55180  Biso   1.000  H
  H11      1.0000 0.17020  0.14670  0.05180  Biso   1.000  H
  H12      1.0000 0.82980  0.64670  0.44820  Biso   1.000  H
  O29      1.0000 0.57310  0.83644  0.02997  Biso   1.000  O
  O30      1.0000 0.42690  0.33644  0.47003  Biso   1.000  O
  O31      1.0000 0.42690  0.16356  0.97003  Biso   1.000  O
  O32      1.0000 0.57310  0.66356  0.52997  Biso   1.000  O
  H13      1.0000 0.62030  0.90000  0.04470  Biso   1.000  H
  H14      1.0000 0.37970  0.40000  0.45530  Biso   1.000  H
  H15      1.0000 0.37970  0.10000  0.95530  Biso   1.000  H
  H16      1.0000 0.62030  0.60000  0.54470  Biso   1.000  H
  H17      1.0000 0.63190  0.78840  0.07190  Biso   1.000  H
  H18      1.0000 0.36810  0.28840  0.42810  Biso   1.000  H
  H19      1.0000 0.36810  0.21160  0.92810  Biso   1.000  H
  H20      1.0000 0.63190  0.71160  0.57190  Biso   1.000  H
  C1       1.0000 0.22080  0.96892  0.79803  Biso   1.000  C
  C2       1.0000 0.77920  0.46892  0.70197  Biso   1.000  C
  C3       1.0000 0.77920  0.03108  0.20197  Biso   1.000  C
  C4       1.0000 0.22080  0.53108  0.29803  Biso   1.000  C
  C5       1.0000 0.23610  0.85485  0.76417  Biso   1.000  C
  C6       1.0000 0.76390  0.35485  0.73583  Biso   1.000  C
  C7       1.0000 0.76390  0.14515  0.23583  Biso   1.000  C
  C8       1.0000 0.23610  0.64515  0.26417  Biso   1.000  C
  C9       1.0000 0.26970  0.67738  0.80963  Biso   1.000  C
  C10      1.0000 0.73030  0.17738  0.69037  Biso   1.000  C
  C11      1.0000 0.73030  0.32262  0.19037  Biso   1.000  C
  C12      1.0000 0.26970  0.82262  0.30963  Biso   1.000  C
  C13      1.0000 0.28370  0.60748  0.90020  Biso   1.000  C
  C14      1.0000 0.71630  0.10748  0.59980  Biso   1.000  C
  C15      1.0000 0.71630  0.39252  0.09980  Biso   1.000  C
  C16      1.0000 0.28370  0.89252  0.40020  Biso   1.000  C
  C17      1.0000 0.27330  0.53716  0.67158  Biso   1.000  C
  C18      1.0000 0.72670  0.03716  0.82842  Biso   1.000  C
  C19      1.0000 0.72670  0.46284  0.32842  Biso   1.000  C
  C20      1.0000 0.27330  0.96284  0.17158  Biso   1.000  C
  C21      1.0000 0.26350  0.64937  0.71257  Biso   1.000  C
  C22      1.0000 0.73650  0.14937  0.78743  Biso   1.000  C
  C23      1.0000 0.73650  0.35063  0.28743  Biso   1.000  C
  C24      1.0000 0.26350  0.85063  0.21257  Biso   1.000  C
  C25      1.0000 0.22900  0.82691  0.66792  Biso   1.000  C
  C26      1.0000 0.77100  0.32691  0.83208  Biso   1.000  C
  C27      1.0000 0.77100  0.17309  0.33208  Biso   1.000  C
  C28      1.0000 0.22900  0.67309  0.16792  Biso   1.000  C
  H21      1.0000 0.21350  0.88020  0.62020  Biso   1.000  H
  H22      1.0000 0.78650  0.38020  0.87980  Biso   1.000  H
  H23      1.0000 0.78650  0.11980  0.37980  Biso   1.000  H
  H24      1.0000 0.21350  0.61980  0.12020  Biso   1.000  H
  O33      1.0000 0.77630  0.75247  0.70566  Biso   1.000  O
  O34      1.0000 0.22370  0.25247  0.79434  Biso   1.000  O
  O35      1.0000 0.22370  0.24753  0.29434  Biso   1.000  O
  O36      1.0000 0.77630  0.74753  0.20566  Biso   1.000  O
  H25      1.0000 0.78160  0.68990  0.73130  Biso   1.000  H
  H26      1.0000 0.21840  0.18990  0.76870  Biso   1.000  H
  H27      1.0000 0.21840  0.31010  0.26870  Biso   1.000  H
  H28      1.0000 0.78160  0.81010  0.23130  Biso   1.000  H
  H29      1.0000 0.75150  0.80360  0.74080  Biso   1.000  H
  H30      1.0000 0.24850  0.30360  0.75920  Biso   1.000  H
  H31      1.0000 0.24850  0.19640  0.25920  Biso   1.000  H
  H32      1.0000 0.75150  0.69640  0.24080  Biso   1.000  H
  O37      1.0000 0.75750  0.62326  0.94403  Biso   1.000  O
  O38      1.0000 0.24250  0.12326  0.55597  Biso   1.000  O
  O39      1.0000 0.24250  0.37674  0.05597  Biso   1.000  O
  O40      1.0000 0.75750  0.87674  0.44403  Biso   1.000  O
  H33      1.0000 0.77140  0.58070  0.89860  Biso   1.000  H
  H34      1.0000 0.22860  0.08070  0.60140  Biso   1.000  H
  H35      1.0000 0.22860  0.41930  0.10140  Biso   1.000  H
  H36      1.0000 0.77140  0.91930  0.39860  Biso   1.000  H
  H37      1.0000 0.75170  0.59300  0.99730  Biso   1.000  H
  H38      1.0000 0.24830  0.09300  0.50270  Biso   1.000  H
  H39      1.0000 0.24830  0.40700  0.00270  Biso   1.000  H
  H40      1.0000 0.75170  0.90700  0.49730  Biso   1.000  H
