data_image0
_cell_length_a       24.729
_cell_length_b       10.767
_cell_length_c       16.196
_cell_angle_alpha    90
_cell_angle_beta     125.779
_cell_angle_gamma    90

_symmetry_space_group_name_H-M    "P 1"
_symmetry_int_tables_number       1

loop_
  _symmetry_equiv_pos_as_xyz
  'x, y, z'

loop_
  _atom_site_label
  _atom_site_occupancy
  _atom_site_fract_x
  _atom_site_fract_y
  _atom_site_fract_z
  _atom_site_thermal_displace_type
  _atom_site_B_iso_or_equiv
  _atom_site_type_symbol
  Cu1      1.0000 0.50000  0.46582  0.75000  Biso   1.000  Cu
  Cu2      1.0000 0.00000  0.96582  0.75000  Biso   1.000  Cu
  Cu3      1.0000 0.50000  0.53418  0.25000  Biso   1.000  Cu
  Cu4      1.0000 0.00000  0.03418  0.25000  Biso   1.000  Cu
  S1       1.0000 0.72415  0.02185  0.93270  Biso   1.000  S
  S2       1.0000 0.27585  0.02185  0.56730  Biso   1.000  S
  S3       1.0000 0.22415  0.52185  0.93270  Biso   1.000  S
  S4       1.0000 0.77585  0.52185  0.56730  Biso   1.000  S
  S5       1.0000 0.27585  0.97815  0.06730  Biso   1.000  S
  S6       1.0000 0.72415  0.97815  0.43270  Biso   1.000  S
  S7       1.0000 0.77585  0.47815  0.06730  Biso   1.000  S
  S8       1.0000 0.22415  0.47815  0.43270  Biso   1.000  S
  S9       1.0000 0.71459  0.91118  0.02442  Biso   1.000  S
  S10      1.0000 0.28541  0.91118  0.47558  Biso   1.000  S
  S11      1.0000 0.21459  0.41118  0.02442  Biso   1.000  S
  S12      1.0000 0.78541  0.41118  0.47558  Biso   1.000  S
  S13      1.0000 0.28541  0.08882  0.97558  Biso   1.000  S
  S14      1.0000 0.71459  0.08882  0.52442  Biso   1.000  S
  S15      1.0000 0.78541  0.58882  0.97558  Biso   1.000  S
  S16      1.0000 0.21459  0.58882  0.52442  Biso   1.000  S
  N1       1.0000 0.57260  0.33350  0.82240  Biso   1.000  N
  N2       1.0000 0.42740  0.33350  0.67760  Biso   1.000  N
  N3       1.0000 0.07260  0.83350  0.82240  Biso   1.000  N
  N4       1.0000 0.92740  0.83350  0.67760  Biso   1.000  N
  N5       1.0000 0.42740  0.66650  0.17760  Biso   1.000  N
  N6       1.0000 0.57260  0.66650  0.32240  Biso   1.000  N
  N7       1.0000 0.92740  0.16650  0.17760  Biso   1.000  N
  N8       1.0000 0.07260  0.16650  0.32240  Biso   1.000  N
  N9       1.0000 0.56940  0.60260  0.83310  Biso   1.000  N
  N10      1.0000 0.43060  0.60260  0.66690  Biso   1.000  N
  N11      1.0000 0.06940  0.10260  0.83310  Biso   1.000  N
  N12      1.0000 0.93060  0.10260  0.66690  Biso   1.000  N
  N13      1.0000 0.43060  0.39740  0.16690  Biso   1.000  N
  N14      1.0000 0.56940  0.39740  0.33310  Biso   1.000  N
  N15      1.0000 0.93060  0.89740  0.16690  Biso   1.000  N
  N16      1.0000 0.06940  0.89740  0.33310  Biso   1.000  N
  C1       1.0000 0.62610  0.34170  0.82180  Biso   1.000  C
  C2       1.0000 0.37390  0.34170  0.67820  Biso   1.000  C
  C3       1.0000 0.12610  0.84170  0.82180  Biso   1.000  C
  C4       1.0000 0.87390  0.84170  0.67820  Biso   1.000  C
  C5       1.0000 0.37390  0.65830  0.17820  Biso   1.000  C
  C6       1.0000 0.62610  0.65830  0.32180  Biso   1.000  C
  C7       1.0000 0.87390  0.15830  0.17820  Biso   1.000  C
  C8       1.0000 0.12610  0.15830  0.32180  Biso   1.000  C
  H1       1.0000 0.63240  0.41420  0.79710  Biso   1.000  H
  H2       1.0000 0.36760  0.41420  0.70290  Biso   1.000  H
  H3       1.0000 0.13240  0.91420  0.79710  Biso   1.000  H
  H4       1.0000 0.86760  0.91420  0.70290  Biso   1.000  H
  H5       1.0000 0.36760  0.58580  0.20290  Biso   1.000  H
  H6       1.0000 0.63240  0.58580  0.29710  Biso   1.000  H
  H7       1.0000 0.86760  0.08580  0.20290  Biso   1.000  H
  H8       1.0000 0.13240  0.08580  0.29710  Biso   1.000  H
  C9       1.0000 0.67240  0.24920  0.85560  Biso   1.000  C
  C10      1.0000 0.32760  0.24920  0.64440  Biso   1.000  C
  C11      1.0000 0.17240  0.74920  0.85560  Biso   1.000  C
  C12      1.0000 0.82760  0.74920  0.64440  Biso   1.000  C
  C13      1.0000 0.32760  0.75080  0.14440  Biso   1.000  C
  C14      1.0000 0.67240  0.75080  0.35560  Biso   1.000  C
  C15      1.0000 0.82760  0.25080  0.14440  Biso   1.000  C
  C16      1.0000 0.17240  0.25080  0.35560  Biso   1.000  C
  H9       1.0000 0.70870  0.25810  0.85270  Biso   1.000  H
  H10      1.0000 0.29130  0.25810  0.64730  Biso   1.000  H
  H11      1.0000 0.20870  0.75810  0.85270  Biso   1.000  H
  H12      1.0000 0.79130  0.75810  0.64730  Biso   1.000  H
  H13      1.0000 0.29130  0.74190  0.14730  Biso   1.000  H
  H14      1.0000 0.70870  0.74190  0.35270  Biso   1.000  H
  H15      1.0000 0.79130  0.24190  0.14730  Biso   1.000  H
  H16      1.0000 0.20870  0.24190  0.35270  Biso   1.000  H
  C17      1.0000 0.66410  0.14120  0.89460  Biso   1.000  C
  C18      1.0000 0.33590  0.14120  0.60540  Biso   1.000  C
  C19      1.0000 0.16410  0.64120  0.89460  Biso   1.000  C
  C20      1.0000 0.83590  0.64120  0.60540  Biso   1.000  C
  C21      1.0000 0.33590  0.85880  0.10540  Biso   1.000  C
  C22      1.0000 0.66410  0.85880  0.39460  Biso   1.000  C
  C23      1.0000 0.83590  0.35880  0.10540  Biso   1.000  C
  C24      1.0000 0.16410  0.35880  0.39460  Biso   1.000  C
  C25      1.0000 0.60930  0.13080  0.89730  Biso   1.000  C
  C26      1.0000 0.39070  0.13080  0.60270  Biso   1.000  C
  C27      1.0000 0.10930  0.63080  0.89730  Biso   1.000  C
  C28      1.0000 0.89070  0.63080  0.60270  Biso   1.000  C
  C29      1.0000 0.39070  0.86920  0.10270  Biso   1.000  C
  C30      1.0000 0.60930  0.86920  0.39730  Biso   1.000  C
  C31      1.0000 0.89070  0.36920  0.10270  Biso   1.000  C
  C32      1.0000 0.10930  0.36920  0.39730  Biso   1.000  C
  H17      1.0000 0.60220  0.06000  0.92260  Biso   1.000  H
  H18      1.0000 0.39780  0.06000  0.57740  Biso   1.000  H
  H19      1.0000 0.10220  0.56000  0.92260  Biso   1.000  H
  H20      1.0000 0.89780  0.56000  0.57740  Biso   1.000  H
  H21      1.0000 0.39780  0.94000  0.07740  Biso   1.000  H
  H22      1.0000 0.60220  0.94000  0.42260  Biso   1.000  H
  H23      1.0000 0.89780  0.44000  0.07740  Biso   1.000  H
  H24      1.0000 0.10220  0.44000  0.42260  Biso   1.000  H
  C33      1.0000 0.56580  0.22990  0.86100  Biso   1.000  C
  C34      1.0000 0.43420  0.22990  0.63900  Biso   1.000  C
  C35      1.0000 0.06580  0.72990  0.86100  Biso   1.000  C
  C36      1.0000 0.93420  0.72990  0.63900  Biso   1.000  C
  C37      1.0000 0.43420  0.77010  0.13900  Biso   1.000  C
  C38      1.0000 0.56580  0.77010  0.36100  Biso   1.000  C
  C39      1.0000 0.93420  0.27010  0.13900  Biso   1.000  C
  C40      1.0000 0.06580  0.27010  0.36100  Biso   1.000  C
  H25      1.0000 0.52930  0.22430  0.86360  Biso   1.000  H
  H26      1.0000 0.47070  0.22430  0.63640  Biso   1.000  H
  H27      1.0000 0.02930  0.72430  0.86360  Biso   1.000  H
  H28      1.0000 0.97070  0.72430  0.63640  Biso   1.000  H
  H29      1.0000 0.47070  0.77570  0.13640  Biso   1.000  H
  H30      1.0000 0.52930  0.77570  0.36360  Biso   1.000  H
  H31      1.0000 0.97070  0.27570  0.13640  Biso   1.000  H
  H32      1.0000 0.02930  0.27570  0.36360  Biso   1.000  H
  C41      1.0000 0.65660  0.79460  0.94450  Biso   1.000  C
  C42      1.0000 0.34340  0.79460  0.55550  Biso   1.000  C
  C43      1.0000 0.15660  0.29460  0.94450  Biso   1.000  C
  C44      1.0000 0.84340  0.29460  0.55550  Biso   1.000  C
  C45      1.0000 0.34340  0.20540  0.05550  Biso   1.000  C
  C46      1.0000 0.65660  0.20540  0.44450  Biso   1.000  C
  C47      1.0000 0.84340  0.70540  0.05550  Biso   1.000  C
  C48      1.0000 0.15660  0.70540  0.44450  Biso   1.000  C
  C49      1.0000 0.61940  0.79380  0.84060  Biso   1.000  C
  C50      1.0000 0.38060  0.79380  0.65940  Biso   1.000  C
  C51      1.0000 0.11940  0.29380  0.84060  Biso   1.000  C
  C52      1.0000 0.88060  0.29380  0.65940  Biso   1.000  C
  C53      1.0000 0.38060  0.20620  0.15940  Biso   1.000  C
  C54      1.0000 0.61940  0.20620  0.34060  Biso   1.000  C
  C55      1.0000 0.88060  0.70620  0.15940  Biso   1.000  C
  C56      1.0000 0.11940  0.70620  0.34060  Biso   1.000  C
  H33      1.0000 0.62290  0.85880  0.80630  Biso   1.000  H
  H34      1.0000 0.37710  0.85880  0.69370  Biso   1.000  H
  H35      1.0000 0.12290  0.35880  0.80630  Biso   1.000  H
  H36      1.0000 0.87710  0.35880  0.69370  Biso   1.000  H
  H37      1.0000 0.37710  0.14120  0.19370  Biso   1.000  H
  H38      1.0000 0.62290  0.14120  0.30630  Biso   1.000  H
  H39      1.0000 0.87710  0.64120  0.19370  Biso   1.000  H
  H40      1.0000 0.12290  0.64120  0.30630  Biso   1.000  H
  C57      1.0000 0.57680  0.69710  0.78710  Biso   1.000  C
  C58      1.0000 0.42320  0.69710  0.71290  Biso   1.000  C
  C59      1.0000 0.07680  0.19710  0.78710  Biso   1.000  C
  C60      1.0000 0.92320  0.19710  0.71290  Biso   1.000  C
  C61      1.0000 0.42320  0.30290  0.21290  Biso   1.000  C
  C62      1.0000 0.57680  0.30290  0.28710  Biso   1.000  C
  C63      1.0000 0.92320  0.80290  0.21290  Biso   1.000  C
  C64      1.0000 0.07680  0.80290  0.28710  Biso   1.000  C
  H41      1.0000 0.55230  0.69720  0.71650  Biso   1.000  H
  H42      1.0000 0.44770  0.69720  0.78350  Biso   1.000  H
  H43      1.0000 0.05230  0.19720  0.71650  Biso   1.000  H
  H44      1.0000 0.94770  0.19720  0.78350  Biso   1.000  H
  H45      1.0000 0.44770  0.30280  0.28350  Biso   1.000  H
  H46      1.0000 0.55230  0.30280  0.21650  Biso   1.000  H
  H47      1.0000 0.94770  0.80280  0.28350  Biso   1.000  H
  H48      1.0000 0.05230  0.80280  0.21650  Biso   1.000  H
  C65      1.0000 0.60480  0.60430  0.93540  Biso   1.000  C
  C66      1.0000 0.39520  0.60430  0.56460  Biso   1.000  C
  C67      1.0000 0.10480  0.10430  0.93540  Biso   1.000  C
  C68      1.0000 0.89520  0.10430  0.56460  Biso   1.000  C
  C69      1.0000 0.39520  0.39570  0.06460  Biso   1.000  C
  C70      1.0000 0.60480  0.39570  0.43540  Biso   1.000  C
  C71      1.0000 0.89520  0.89570  0.06460  Biso   1.000  C
  C72      1.0000 0.10480  0.89570  0.43540  Biso   1.000  C
  H49      1.0000 0.59970  0.53950  0.96830  Biso   1.000  H
  H50      1.0000 0.40030  0.53950  0.53170  Biso   1.000  H
  H51      1.0000 0.09970  0.03950  0.96830  Biso   1.000  H
  H52      1.0000 0.90030  0.03950  0.53170  Biso   1.000  H
  H53      1.0000 0.40030  0.46050  0.03170  Biso   1.000  H
  H54      1.0000 0.59970  0.46050  0.46830  Biso   1.000  H
  H55      1.0000 0.90030  0.96050  0.03170  Biso   1.000  H
  H56      1.0000 0.09970  0.96050  0.46830  Biso   1.000  H
  C73      1.0000 0.64770  0.69790  0.99180  Biso   1.000  C
  C74      1.0000 0.35230  0.69790  0.50820  Biso   1.000  C
  C75      1.0000 0.14770  0.19790  0.99180  Biso   1.000  C
  C76      1.0000 0.85230  0.19790  0.50820  Biso   1.000  C
  C77      1.0000 0.35230  0.30210  0.00820  Biso   1.000  C
  C78      1.0000 0.64770  0.30210  0.49180  Biso   1.000  C
  C79      1.0000 0.85230  0.80210  0.00820  Biso   1.000  C
  C80      1.0000 0.14770  0.80210  0.49180  Biso   1.000  C
  H57      1.0000 0.67110  0.69710  0.06230  Biso   1.000  H
  H58      1.0000 0.32890  0.69710  0.43770  Biso   1.000  H
  H59      1.0000 0.17110  0.19710  0.06230  Biso   1.000  H
  H60      1.0000 0.82890  0.19710  0.43770  Biso   1.000  H
  H61      1.0000 0.32890  0.30290  0.93770  Biso   1.000  H
  H62      1.0000 0.67110  0.30290  0.56230  Biso   1.000  H
  H63      1.0000 0.82890  0.80290  0.93770  Biso   1.000  H
  H64      1.0000 0.17110  0.80290  0.56230  Biso   1.000  H
  O1       1.0000 0.48230  0.45210  0.88330  Biso   1.000  O
  O2       1.0000 0.51770  0.45210  0.61670  Biso   1.000  O
  O3       1.0000 0.98230  0.95210  0.88330  Biso   1.000  O
  O4       1.0000 0.01770  0.95210  0.61670  Biso   1.000  O
  O5       1.0000 0.51770  0.54790  0.11670  Biso   1.000  O
  O6       1.0000 0.48230  0.54790  0.38330  Biso   1.000  O
  O7       1.0000 0.01770  0.04790  0.11670  Biso   1.000  O
  O8       1.0000 0.98230  0.04790  0.38330  Biso   1.000  O
  H65      1.0000 0.49300  0.40900  0.92600  Biso   1.000  H
  H66      1.0000 0.50700  0.40900  0.57400  Biso   1.000  H
  H67      1.0000 0.99300  0.90900  0.92600  Biso   1.000  H
  H68      1.0000 0.00700  0.90900  0.57400  Biso   1.000  H
  H69      1.0000 0.50700  0.59100  0.07400  Biso   1.000  H
  H70      1.0000 0.49300  0.59100  0.42600  Biso   1.000  H
  H71      1.0000 0.00700  0.09100  0.07400  Biso   1.000  H
  H72      1.0000 0.99300  0.09100  0.42600  Biso   1.000  H
  H73      1.0000 0.45200  0.48000  0.87700  Biso   1.000  H
  H74      1.0000 0.54800  0.48000  0.62300  Biso   1.000  H
  H75      1.0000 0.95200  0.98000  0.87700  Biso   1.000  H
  H76      1.0000 0.04800  0.98000  0.62300  Biso   1.000  H
  H77      1.0000 0.54800  0.52000  0.12300  Biso   1.000  H
  H78      1.0000 0.45200  0.52000  0.37700  Biso   1.000  H
  H79      1.0000 0.04800  0.02000  0.12300  Biso   1.000  H
  H80      1.0000 0.95200  0.02000  0.37700  Biso   1.000  H
  O9       1.0000 0.69850  0.09420  0.71240  Biso   1.000  O
  O10      1.0000 0.30150  0.09420  0.78760  Biso   1.000  O
  O11      1.0000 0.19850  0.59420  0.71240  Biso   1.000  O
  O12      1.0000 0.80150  0.59420  0.78760  Biso   1.000  O
  O13      1.0000 0.30150  0.90580  0.28760  Biso   1.000  O
  O14      1.0000 0.69850  0.90580  0.21240  Biso   1.000  O
  O15      1.0000 0.80150  0.40580  0.28760  Biso   1.000  O
  O16      1.0000 0.19850  0.40580  0.21240  Biso   1.000  O
  O17      1.0000 0.77020  0.94020  0.75690  Biso   1.000  O
  O18      1.0000 0.22980  0.94020  0.74310  Biso   1.000  O
  O19      1.0000 0.27020  0.44020  0.75690  Biso   1.000  O
  O20      1.0000 0.72980  0.44020  0.74310  Biso   1.000  O
  O21      1.0000 0.22980  0.05980  0.24310  Biso   1.000  O
  O22      1.0000 0.77020  0.05980  0.25690  Biso   1.000  O
  O23      1.0000 0.72980  0.55980  0.24310  Biso   1.000  O
  O24      1.0000 0.27020  0.55980  0.25690  Biso   1.000  O
  O25      1.0000 0.55260  0.71710  0.54540  Biso   1.000  O
  O26      1.0000 0.44740  0.71710  0.95460  Biso   1.000  O
  O27      1.0000 0.05260  0.21710  0.54540  Biso   1.000  O
  O28      1.0000 0.94740  0.21710  0.95460  Biso   1.000  O
  O29      1.0000 0.44740  0.28290  0.45460  Biso   1.000  O
  O30      1.0000 0.55260  0.28290  0.04540  Biso   1.000  O
  O31      1.0000 0.94740  0.78290  0.45460  Biso   1.000  O
  O32      1.0000 0.05260  0.78290  0.04540  Biso   1.000  O
  O33      1.0000 0.62548  0.56820  0.63310  Biso   1.000  O
  O34      1.0000 0.37452  0.56820  0.86690  Biso   1.000  O
  O35      1.0000 0.12548  0.06820  0.63310  Biso   1.000  O
  O36      1.0000 0.87452  0.06820  0.86690  Biso   1.000  O
  O37      1.0000 0.37452  0.43180  0.36690  Biso   1.000  O
  O38      1.0000 0.62548  0.43180  0.13310  Biso   1.000  O
  O39      1.0000 0.87452  0.93180  0.36690  Biso   1.000  O
  O40      1.0000 0.12548  0.93180  0.13310  Biso   1.000  O
  C81      1.0000 0.71020  0.98650  0.70990  Biso   1.000  C
  C82      1.0000 0.28980  0.98650  0.79010  Biso   1.000  C
  C83      1.0000 0.21020  0.48650  0.70990  Biso   1.000  C
  C84      1.0000 0.78980  0.48650  0.79010  Biso   1.000  C
  C85      1.0000 0.28980  0.01350  0.29010  Biso   1.000  C
  C86      1.0000 0.71020  0.01350  0.20990  Biso   1.000  C
  C87      1.0000 0.78980  0.51350  0.29010  Biso   1.000  C
  C88      1.0000 0.21020  0.51350  0.20990  Biso   1.000  C
  C89      1.0000 0.66550  0.77270  0.66270  Biso   1.000  C
  C90      1.0000 0.33450  0.77270  0.83730  Biso   1.000  C
  C91      1.0000 0.16550  0.27270  0.66270  Biso   1.000  C
  C92      1.0000 0.83450  0.27270  0.83730  Biso   1.000  C
  C93      1.0000 0.33450  0.22730  0.33730  Biso   1.000  C
  C94      1.0000 0.66550  0.22730  0.16270  Biso   1.000  C
  C95      1.0000 0.83450  0.72730  0.33730  Biso   1.000  C
  C96      1.0000 0.16550  0.72730  0.16270  Biso   1.000  C
  H81      1.0000 0.70880  0.74280  0.70590  Biso   1.000  H
  H82      1.0000 0.29120  0.74280  0.79410  Biso   1.000  H
  H83      1.0000 0.20880  0.24280  0.70590  Biso   1.000  H
  H84      1.0000 0.79120  0.24280  0.79410  Biso   1.000  H
  H85      1.0000 0.29120  0.25720  0.29410  Biso   1.000  H
  H86      1.0000 0.70880  0.25720  0.20590  Biso   1.000  H
  H87      1.0000 0.79120  0.75720  0.29410  Biso   1.000  H
  H88      1.0000 0.20880  0.75720  0.20590  Biso   1.000  H
  C97      1.0000 0.65720  0.89170  0.65370  Biso   1.000  C
  C98      1.0000 0.34280  0.89170  0.84630  Biso   1.000  C
  C99      1.0000 0.15720  0.39170  0.65370  Biso   1.000  C
  C100     1.0000 0.84280  0.39170  0.84630  Biso   1.000  C
  C101     1.0000 0.34280  0.10830  0.34630  Biso   1.000  C
  C102     1.0000 0.65720  0.10830  0.15370  Biso   1.000  C
  C103     1.0000 0.84280  0.60830  0.34630  Biso   1.000  C
  C104     1.0000 0.15720  0.60830  0.15370  Biso   1.000  C
  H89      1.0000 0.61390  0.92050  0.60760  Biso   1.000  H
  H90      1.0000 0.38610  0.92050  0.89240  Biso   1.000  H
  H91      1.0000 0.11390  0.42050  0.60760  Biso   1.000  H
  H92      1.0000 0.88610  0.42050  0.89240  Biso   1.000  H
  H93      1.0000 0.38610  0.07950  0.39240  Biso   1.000  H
  H94      1.0000 0.61390  0.07950  0.10760  Biso   1.000  H
  H95      1.0000 0.88610  0.57950  0.39240  Biso   1.000  H
  H96      1.0000 0.11390  0.57950  0.10760  Biso   1.000  H
  C105     1.0000 0.61050  0.68020  0.60870  Biso   1.000  C
  C106     1.0000 0.38950  0.68020  0.89130  Biso   1.000  C
  C107     1.0000 0.11050  0.18020  0.60870  Biso   1.000  C
  C108     1.0000 0.88950  0.18020  0.89130  Biso   1.000  C
  C109     1.0000 0.38950  0.31980  0.39130  Biso   1.000  C
  C110     1.0000 0.61050  0.31980  0.10870  Biso   1.000  C
  C111     1.0000 0.88950  0.81980  0.39130  Biso   1.000  C
  C112     1.0000 0.11050  0.81980  0.10870  Biso   1.000  C
  H97      1.0000 0.80500  0.99300  0.78900  Biso   1.000  H
  H98      1.0000 0.19500  0.99300  0.71100  Biso   1.000  H
  H99      1.0000 0.30500  0.49300  0.78900  Biso   1.000  H
  H100     1.0000 0.69500  0.49300  0.71100  Biso   1.000  H
  H101     1.0000 0.19500  0.00700  0.21100  Biso   1.000  H
  H102     1.0000 0.80500  0.00700  0.28900  Biso   1.000  H
  H103     1.0000 0.69500  0.50700  0.21100  Biso   1.000  H
  H104     1.0000 0.30500  0.50700  0.28900  Biso   1.000  H
  O41      1.0000 0.55600  0.13370  0.60330  Biso   1.000  O
  O42      1.0000 0.44400  0.13370  0.89670  Biso   1.000  O
  O43      1.0000 0.05600  0.63370  0.60330  Biso   1.000  O
  O44      1.0000 0.94400  0.63370  0.89670  Biso   1.000  O
  O45      1.0000 0.44400  0.86630  0.39670  Biso   1.000  O
  O46      1.0000 0.55600  0.86630  0.10330  Biso   1.000  O
  O47      1.0000 0.94400  0.36630  0.39670  Biso   1.000  O
  O48      1.0000 0.05600  0.36630  0.10330  Biso   1.000  O
  O49      1.0000 0.48620  0.92270  0.58450  Biso   1.000  O
  O50      1.0000 0.51380  0.92270  0.91550  Biso   1.000  O
  O51      1.0000 0.98620  0.42270  0.58450  Biso   1.000  O
  O52      1.0000 0.01380  0.42270  0.91550  Biso   1.000  O
  O53      1.0000 0.51380  0.07730  0.41550  Biso   1.000  O
  O54      1.0000 0.48620  0.07730  0.08450  Biso   1.000  O
  O55      1.0000 0.01380  0.57730  0.41550  Biso   1.000  O
  O56      1.0000 0.98620  0.57730  0.08450  Biso   1.000  O
