data_image0
_cell_length_a       22.744
_cell_length_b       10.7218
_cell_length_c       17.5243
_cell_angle_alpha    90
_cell_angle_beta     122.457
_cell_angle_gamma    90

_symmetry_space_group_name_H-M    "P 1"
_symmetry_int_tables_number       1

loop_
  _symmetry_equiv_pos_as_xyz
  'x, y, z'

loop_
  _atom_site_label
  _atom_site_occupancy
  _atom_site_fract_x
  _atom_site_fract_y
  _atom_site_fract_z
  _atom_site_thermal_displace_type
  _atom_site_B_iso_or_equiv
  _atom_site_type_symbol
  Cu1      1.0000 0.00000  0.92865  0.25000  Biso   1.000  Cu
  Cu2      1.0000 0.50000  0.42865  0.25000  Biso   1.000  Cu
  Cu3      1.0000 0.00000  0.07135  0.75000  Biso   1.000  Cu
  Cu4      1.0000 0.50000  0.57135  0.75000  Biso   1.000  Cu
  S1       1.0000 0.19001  0.37290  0.53709  Biso   1.000  S
  S2       1.0000 0.80999  0.37290  0.96291  Biso   1.000  S
  S3       1.0000 0.69001  0.87290  0.53709  Biso   1.000  S
  S4       1.0000 0.30999  0.87290  0.96291  Biso   1.000  S
  S5       1.0000 0.80999  0.62710  0.46291  Biso   1.000  S
  S6       1.0000 0.19001  0.62710  0.03709  Biso   1.000  S
  S7       1.0000 0.30999  0.12710  0.46291  Biso   1.000  S
  S8       1.0000 0.69001  0.12710  0.03709  Biso   1.000  S
  S9       1.0000 0.22847  0.48842  0.48212  Biso   1.000  S
  S10      1.0000 0.77153  0.48842  0.01788  Biso   1.000  S
  S11      1.0000 0.72847  0.98842  0.48212  Biso   1.000  S
  S12      1.0000 0.27153  0.98842  0.01788  Biso   1.000  S
  S13      1.0000 0.77153  0.51158  0.51788  Biso   1.000  S
  S14      1.0000 0.22847  0.51158  0.98212  Biso   1.000  S
  S15      1.0000 0.27153  0.01158  0.51788  Biso   1.000  S
  S16      1.0000 0.72847  0.01158  0.98212  Biso   1.000  S
  N1       1.0000 0.06337  0.06530  0.33570  Biso   1.000  N
  N2       1.0000 0.93663  0.06530  0.16430  Biso   1.000  N
  N3       1.0000 0.56337  0.56530  0.33570  Biso   1.000  N
  N4       1.0000 0.43663  0.56530  0.16430  Biso   1.000  N
  N5       1.0000 0.93663  0.93470  0.66430  Biso   1.000  N
  N6       1.0000 0.06337  0.93470  0.83570  Biso   1.000  N
  N7       1.0000 0.43663  0.43470  0.66430  Biso   1.000  N
  N8       1.0000 0.56337  0.43470  0.83570  Biso   1.000  N
  N9       1.0000 0.06864  0.79610  0.33050  Biso   1.000  N
  N10      1.0000 0.93136  0.79610  0.16950  Biso   1.000  N
  N11      1.0000 0.56864  0.29610  0.33050  Biso   1.000  N
  N12      1.0000 0.43136  0.29610  0.16950  Biso   1.000  N
  N13      1.0000 0.93136  0.20390  0.66950  Biso   1.000  N
  N14      1.0000 0.06864  0.20390  0.83050  Biso   1.000  N
  N15      1.0000 0.43136  0.70390  0.66950  Biso   1.000  N
  N16      1.0000 0.56864  0.70390  0.83050  Biso   1.000  N
  C1       1.0000 0.07870  0.06700  0.42070  Biso   1.000  C
  C2       1.0000 0.92130  0.06700  0.07930  Biso   1.000  C
  C3       1.0000 0.57870  0.56700  0.42070  Biso   1.000  C
  C4       1.0000 0.42130  0.56700  0.07930  Biso   1.000  C
  C5       1.0000 0.92130  0.93300  0.57930  Biso   1.000  C
  C6       1.0000 0.07870  0.93300  0.92070  Biso   1.000  C
  C7       1.0000 0.42130  0.43300  0.57930  Biso   1.000  C
  C8       1.0000 0.57870  0.43300  0.92070  Biso   1.000  C
  H1       1.0000 0.06290  0.00180  0.44000  Biso   1.000  H
  H2       1.0000 0.93710  0.00180  0.06000  Biso   1.000  H
  H3       1.0000 0.56290  0.50180  0.44000  Biso   1.000  H
  H4       1.0000 0.43710  0.50180  0.06000  Biso   1.000  H
  H5       1.0000 0.93710  0.99820  0.56000  Biso   1.000  H
  H6       1.0000 0.06290  0.99820  0.94000  Biso   1.000  H
  H7       1.0000 0.43710  0.49820  0.56000  Biso   1.000  H
  H8       1.0000 0.56290  0.49820  0.94000  Biso   1.000  H
  C9       1.0000 0.11690  0.16070  0.48110  Biso   1.000  C
  C10      1.0000 0.88310  0.16070  0.01890  Biso   1.000  C
  C11      1.0000 0.61690  0.66070  0.48110  Biso   1.000  C
  C12      1.0000 0.38310  0.66070  0.01890  Biso   1.000  C
  C13      1.0000 0.88310  0.83930  0.51890  Biso   1.000  C
  C14      1.0000 0.11690  0.83930  0.98110  Biso   1.000  C
  C15      1.0000 0.38310  0.33930  0.51890  Biso   1.000  C
  C16      1.0000 0.61690  0.33930  0.98110  Biso   1.000  C
  H9       1.0000 0.12630  0.15820  0.53970  Biso   1.000  H
  H10      1.0000 0.87370  0.15820  0.96030  Biso   1.000  H
  H11      1.0000 0.62630  0.65820  0.53970  Biso   1.000  H
  H12      1.0000 0.37370  0.65820  0.96030  Biso   1.000  H
  H13      1.0000 0.87370  0.84180  0.46030  Biso   1.000  H
  H14      1.0000 0.12630  0.84180  0.03970  Biso   1.000  H
  H15      1.0000 0.37370  0.34180  0.46030  Biso   1.000  H
  H16      1.0000 0.62630  0.34180  0.03970  Biso   1.000  H
  C17      1.0000 0.14132  0.25870  0.45400  Biso   1.000  C
  C18      1.0000 0.85868  0.25870  0.04600  Biso   1.000  C
  C19      1.0000 0.64132  0.75870  0.45400  Biso   1.000  C
  C20      1.0000 0.35868  0.75870  0.04600  Biso   1.000  C
  C21      1.0000 0.85868  0.74130  0.54600  Biso   1.000  C
  C22      1.0000 0.14132  0.74130  0.95400  Biso   1.000  C
  C23      1.0000 0.35868  0.24130  0.54600  Biso   1.000  C
  C24      1.0000 0.64132  0.24130  0.95400  Biso   1.000  C
  C25      1.0000 0.12560  0.25760  0.36640  Biso   1.000  C
  C26      1.0000 0.87440  0.25760  0.13360  Biso   1.000  C
  C27      1.0000 0.62560  0.75760  0.36640  Biso   1.000  C
  C28      1.0000 0.37440  0.75760  0.13360  Biso   1.000  C
  C29      1.0000 0.87440  0.74240  0.63360  Biso   1.000  C
  C30      1.0000 0.12560  0.74240  0.86640  Biso   1.000  C
  C31      1.0000 0.37440  0.24240  0.63360  Biso   1.000  C
  C32      1.0000 0.62560  0.24240  0.86640  Biso   1.000  C
  H17      1.0000 0.14120  0.32150  0.34560  Biso   1.000  H
  H18      1.0000 0.85880  0.32150  0.15440  Biso   1.000  H
  H19      1.0000 0.64120  0.82150  0.34560  Biso   1.000  H
  H20      1.0000 0.35880  0.82150  0.15440  Biso   1.000  H
  H21      1.0000 0.85880  0.67850  0.65440  Biso   1.000  H
  H22      1.0000 0.14120  0.67850  0.84560  Biso   1.000  H
  H23      1.0000 0.35880  0.17850  0.65440  Biso   1.000  H
  H24      1.0000 0.64120  0.17850  0.84560  Biso   1.000  H
  C33      1.0000 0.08660  0.16050  0.30980  Biso   1.000  C
  C34      1.0000 0.91340  0.16050  0.19020  Biso   1.000  C
  C35      1.0000 0.58660  0.66050  0.30980  Biso   1.000  C
  C36      1.0000 0.41340  0.66050  0.19020  Biso   1.000  C
  C37      1.0000 0.91340  0.83950  0.69020  Biso   1.000  C
  C38      1.0000 0.08660  0.83950  0.80980  Biso   1.000  C
  C39      1.0000 0.41340  0.33950  0.69020  Biso   1.000  C
  C40      1.0000 0.58660  0.33950  0.80980  Biso   1.000  C
  H25      1.0000 0.07580  0.16160  0.25060  Biso   1.000  H
  H26      1.0000 0.92420  0.16160  0.24940  Biso   1.000  H
  H27      1.0000 0.57580  0.66160  0.25060  Biso   1.000  H
  H28      1.0000 0.42420  0.66160  0.24940  Biso   1.000  H
  H29      1.0000 0.92420  0.83840  0.74940  Biso   1.000  H
  H30      1.0000 0.07580  0.83840  0.75060  Biso   1.000  H
  H31      1.0000 0.42420  0.33840  0.74940  Biso   1.000  H
  H32      1.0000 0.57580  0.33840  0.75060  Biso   1.000  H
  C41      1.0000 0.16357  0.60500  0.42490  Biso   1.000  C
  C42      1.0000 0.83643  0.60500  0.07510  Biso   1.000  C
  C43      1.0000 0.66357  0.10500  0.42490  Biso   1.000  C
  C44      1.0000 0.33643  0.10500  0.07510  Biso   1.000  C
  C45      1.0000 0.83643  0.39500  0.57510  Biso   1.000  C
  C46      1.0000 0.16357  0.39500  0.92490  Biso   1.000  C
  C47      1.0000 0.33643  0.89500  0.57510  Biso   1.000  C
  C48      1.0000 0.66357  0.89500  0.92490  Biso   1.000  C
  C49      1.0000 0.18341  0.70860  0.39750  Biso   1.000  C
  C50      1.0000 0.81659  0.70860  0.10250  Biso   1.000  C
  C51      1.0000 0.68341  0.20860  0.39750  Biso   1.000  C
  C52      1.0000 0.31659  0.20860  0.10250  Biso   1.000  C
  C53      1.0000 0.81659  0.29140  0.60250  Biso   1.000  C
  C54      1.0000 0.18341  0.29140  0.89750  Biso   1.000  C
  C55      1.0000 0.31659  0.79140  0.60250  Biso   1.000  C
  C56      1.0000 0.68341  0.79140  0.89750  Biso   1.000  C
  H33      1.0000 0.22850  0.71560  0.40990  Biso   1.000  H
  H34      1.0000 0.77150  0.71560  0.09010  Biso   1.000  H
  H35      1.0000 0.72850  0.21560  0.40990  Biso   1.000  H
  H36      1.0000 0.27150  0.21560  0.09010  Biso   1.000  H
  H37      1.0000 0.77150  0.28440  0.59010  Biso   1.000  H
  H38      1.0000 0.22850  0.28440  0.90990  Biso   1.000  H
  H39      1.0000 0.27150  0.78440  0.59010  Biso   1.000  H
  H40      1.0000 0.72850  0.78440  0.90990  Biso   1.000  H
  C57      1.0000 0.13526  0.80130  0.35160  Biso   1.000  C
  C58      1.0000 0.86474  0.80130  0.14840  Biso   1.000  C
  C59      1.0000 0.63526  0.30130  0.35160  Biso   1.000  C
  C60      1.0000 0.36474  0.30130  0.14840  Biso   1.000  C
  C61      1.0000 0.86474  0.19870  0.64840  Biso   1.000  C
  C62      1.0000 0.13526  0.19870  0.85160  Biso   1.000  C
  C63      1.0000 0.36474  0.69870  0.64840  Biso   1.000  C
  C64      1.0000 0.63526  0.69870  0.85160  Biso   1.000  C
  H41      1.0000 0.14920  0.87140  0.33410  Biso   1.000  H
  H42      1.0000 0.85080  0.87140  0.16590  Biso   1.000  H
  H43      1.0000 0.64920  0.37140  0.33410  Biso   1.000  H
  H44      1.0000 0.35080  0.37140  0.16590  Biso   1.000  H
  H45      1.0000 0.85080  0.12860  0.66590  Biso   1.000  H
  H46      1.0000 0.14920  0.12860  0.83410  Biso   1.000  H
  H47      1.0000 0.35080  0.62860  0.66590  Biso   1.000  H
  H48      1.0000 0.64920  0.62860  0.83410  Biso   1.000  H
  C65      1.0000 0.05135  0.69490  0.35920  Biso   1.000  C
  C66      1.0000 0.94865  0.69490  0.14080  Biso   1.000  C
  C67      1.0000 0.55135  0.19490  0.35920  Biso   1.000  C
  C68      1.0000 0.44865  0.19490  0.14080  Biso   1.000  C
  C69      1.0000 0.94865  0.30510  0.64080  Biso   1.000  C
  C70      1.0000 0.05135  0.30510  0.85920  Biso   1.000  C
  C71      1.0000 0.44865  0.80510  0.64080  Biso   1.000  C
  C72      1.0000 0.55135  0.80510  0.85920  Biso   1.000  C
  H49      1.0000 0.00610  0.68990  0.34660  Biso   1.000  H
  H50      1.0000 0.99390  0.68990  0.15340  Biso   1.000  H
  H51      1.0000 0.50610  0.18990  0.34660  Biso   1.000  H
  H52      1.0000 0.49390  0.18990  0.15340  Biso   1.000  H
  H53      1.0000 0.99390  0.31010  0.65340  Biso   1.000  H
  H54      1.0000 0.00610  0.31010  0.84660  Biso   1.000  H
  H55      1.0000 0.49390  0.81010  0.65340  Biso   1.000  H
  H56      1.0000 0.50610  0.81010  0.84660  Biso   1.000  H
  C73      1.0000 0.09607  0.59820  0.40620  Biso   1.000  C
  C74      1.0000 0.90393  0.59820  0.09380  Biso   1.000  C
  C75      1.0000 0.59607  0.09820  0.40620  Biso   1.000  C
  C76      1.0000 0.40393  0.09820  0.09380  Biso   1.000  C
  C77      1.0000 0.90393  0.40180  0.59380  Biso   1.000  C
  C78      1.0000 0.09607  0.40180  0.90620  Biso   1.000  C
  C79      1.0000 0.40393  0.90180  0.59380  Biso   1.000  C
  C80      1.0000 0.59607  0.90180  0.90620  Biso   1.000  C
  H57      1.0000 0.08150  0.53020  0.42490  Biso   1.000  H
  H58      1.0000 0.91850  0.53020  0.07510  Biso   1.000  H
  H59      1.0000 0.58150  0.03020  0.42490  Biso   1.000  H
  H60      1.0000 0.41850  0.03020  0.07510  Biso   1.000  H
  H61      1.0000 0.91850  0.46980  0.57510  Biso   1.000  H
  H62      1.0000 0.08150  0.46980  0.92490  Biso   1.000  H
  H63      1.0000 0.41850  0.96980  0.57510  Biso   1.000  H
  H64      1.0000 0.58150  0.96980  0.92490  Biso   1.000  H
  O1       1.0000 0.05720  0.89380  0.15810  Biso   1.000  O
  O2       1.0000 0.94280  0.89380  0.34190  Biso   1.000  O
  O3       1.0000 0.55720  0.39380  0.15810  Biso   1.000  O
  O4       1.0000 0.44280  0.39380  0.34190  Biso   1.000  O
  O5       1.0000 0.94280  0.10620  0.84190  Biso   1.000  O
  O6       1.0000 0.05720  0.10620  0.65810  Biso   1.000  O
  O7       1.0000 0.44280  0.60620  0.84190  Biso   1.000  O
  O8       1.0000 0.55720  0.60620  0.65810  Biso   1.000  O
  H65      1.0000 0.03000  0.87700  0.09800  Biso   1.000  H
  H66      1.0000 0.97000  0.87700  0.40200  Biso   1.000  H
  H67      1.0000 0.53000  0.37700  0.09800  Biso   1.000  H
  H68      1.0000 0.47000  0.37700  0.40200  Biso   1.000  H
  H69      1.0000 0.97000  0.12300  0.90200  Biso   1.000  H
  H70      1.0000 0.03000  0.12300  0.59800  Biso   1.000  H
  H71      1.0000 0.47000  0.62300  0.90200  Biso   1.000  H
  H72      1.0000 0.53000  0.62300  0.59800  Biso   1.000  H
  H73      1.0000 0.08100  0.94000  0.15600  Biso   1.000  H
  H74      1.0000 0.91900  0.94000  0.34400  Biso   1.000  H
  H75      1.0000 0.58100  0.44000  0.15600  Biso   1.000  H
  H76      1.0000 0.41900  0.44000  0.34400  Biso   1.000  H
  H77      1.0000 0.91900  0.06000  0.84400  Biso   1.000  H
  H78      1.0000 0.08100  0.06000  0.65600  Biso   1.000  H
  H79      1.0000 0.41900  0.56000  0.84400  Biso   1.000  H
  H80      1.0000 0.58100  0.56000  0.65600  Biso   1.000  H
  S17      1.0000 0.11736  0.82814  0.59734  Biso   1.000  S
  S18      1.0000 0.88264  0.82814  0.90266  Biso   1.000  S
  S19      1.0000 0.61736  0.32814  0.59734  Biso   1.000  S
  S20      1.0000 0.38264  0.32814  0.90266  Biso   1.000  S
  S21      1.0000 0.88264  0.17186  0.40266  Biso   1.000  S
  S22      1.0000 0.11736  0.17186  0.09734  Biso   1.000  S
  S23      1.0000 0.38264  0.67186  0.40266  Biso   1.000  S
  S24      1.0000 0.61736  0.67186  0.09734  Biso   1.000  S
  O9       1.0000 0.13976  0.90640  0.67640  Biso   1.000  O
  O10      1.0000 0.86024  0.90640  0.82360  Biso   1.000  O
  O11      1.0000 0.63976  0.40640  0.67640  Biso   1.000  O
  O12      1.0000 0.36024  0.40640  0.82360  Biso   1.000  O
  O13      1.0000 0.86024  0.09360  0.32360  Biso   1.000  O
  O14      1.0000 0.13976  0.09360  0.17640  Biso   1.000  O
  O15      1.0000 0.36024  0.59360  0.32360  Biso   1.000  O
  O16      1.0000 0.63976  0.59360  0.17640  Biso   1.000  O
  O17      1.0000 0.04489  0.84540  0.52760  Biso   1.000  O
  O18      1.0000 0.95511  0.84540  0.97240  Biso   1.000  O
  O19      1.0000 0.54489  0.34540  0.52760  Biso   1.000  O
  O20      1.0000 0.45511  0.34540  0.97240  Biso   1.000  O
  O21      1.0000 0.95511  0.15460  0.47240  Biso   1.000  O
  O22      1.0000 0.04489  0.15460  0.02760  Biso   1.000  O
  O23      1.0000 0.45511  0.65460  0.47240  Biso   1.000  O
  O24      1.0000 0.54489  0.65460  0.02760  Biso   1.000  O
  O25      1.0000 0.16375  0.83600  0.56540  Biso   1.000  O
  O26      1.0000 0.83625  0.83600  0.93460  Biso   1.000  O
  O27      1.0000 0.66375  0.33600  0.56540  Biso   1.000  O
  O28      1.0000 0.33625  0.33600  0.93460  Biso   1.000  O
  O29      1.0000 0.83625  0.16400  0.43460  Biso   1.000  O
  O30      1.0000 0.16375  0.16400  0.06540  Biso   1.000  O
  O31      1.0000 0.33625  0.66400  0.43460  Biso   1.000  O
  O32      1.0000 0.66375  0.66400  0.06540  Biso   1.000  O
  N17      1.0000 0.06890  0.47690  0.62560  Biso   1.000  N
  N18      1.0000 0.93110  0.47690  0.87440  Biso   1.000  N
  N19      1.0000 0.56890  0.97690  0.62560  Biso   1.000  N
  N20      1.0000 0.43110  0.97690  0.87440  Biso   1.000  N
  N21      1.0000 0.93110  0.52310  0.37440  Biso   1.000  N
  N22      1.0000 0.06890  0.52310  0.12560  Biso   1.000  N
  N23      1.0000 0.43110  0.02310  0.37440  Biso   1.000  N
  N24      1.0000 0.56890  0.02310  0.12560  Biso   1.000  N
  C81      1.0000 0.12380  0.67320  0.63630  Biso   1.000  C
  C82      1.0000 0.87620  0.67320  0.86370  Biso   1.000  C
  C83      1.0000 0.62380  0.17320  0.63630  Biso   1.000  C
  C84      1.0000 0.37620  0.17320  0.86370  Biso   1.000  C
  C85      1.0000 0.87620  0.32680  0.36370  Biso   1.000  C
  C86      1.0000 0.12380  0.32680  0.13630  Biso   1.000  C
  C87      1.0000 0.37620  0.82680  0.36370  Biso   1.000  C
  C88      1.0000 0.62380  0.82680  0.13630  Biso   1.000  C
  C89      1.0000 0.06670  0.59490  0.59920  Biso   1.000  C
  C90      1.0000 0.93330  0.59490  0.90080  Biso   1.000  C
  C91      1.0000 0.56670  0.09490  0.59920  Biso   1.000  C
  C92      1.0000 0.43330  0.09490  0.90080  Biso   1.000  C
  C93      1.0000 0.93330  0.40510  0.40080  Biso   1.000  C
  C94      1.0000 0.06670  0.40510  0.09920  Biso   1.000  C
  C95      1.0000 0.43330  0.90510  0.40080  Biso   1.000  C
  C96      1.0000 0.56670  0.90510  0.09920  Biso   1.000  C
  H81      1.0000 0.02410  0.62610  0.55300  Biso   1.000  H
  H82      1.0000 0.97590  0.62610  0.94700  Biso   1.000  H
  H83      1.0000 0.52410  0.12610  0.55300  Biso   1.000  H
  H84      1.0000 0.47590  0.12610  0.94700  Biso   1.000  H
  H85      1.0000 0.97590  0.37390  0.44700  Biso   1.000  H
  H86      1.0000 0.02410  0.37390  0.05300  Biso   1.000  H
  H87      1.0000 0.47590  0.87390  0.44700  Biso   1.000  H
  H88      1.0000 0.52410  0.87390  0.05300  Biso   1.000  H
  C97      1.0000 0.13060  0.43550  0.69030  Biso   1.000  C
  C98      1.0000 0.86940  0.43550  0.80970  Biso   1.000  C
  C99      1.0000 0.63060  0.93550  0.69030  Biso   1.000  C
  C100     1.0000 0.36940  0.93550  0.80970  Biso   1.000  C
  C101     1.0000 0.86940  0.56450  0.30970  Biso   1.000  C
  C102     1.0000 0.13060  0.56450  0.19030  Biso   1.000  C
  C103     1.0000 0.36940  0.06450  0.30970  Biso   1.000  C
  C104     1.0000 0.63060  0.06450  0.19030  Biso   1.000  C
  H89      1.0000 0.13350  0.35320  0.70880  Biso   1.000  H
  H90      1.0000 0.86650  0.35320  0.79120  Biso   1.000  H
  H91      1.0000 0.63350  0.85320  0.70880  Biso   1.000  H
  H92      1.0000 0.36650  0.85320  0.79120  Biso   1.000  H
  H93      1.0000 0.86650  0.64680  0.29120  Biso   1.000  H
  H94      1.0000 0.13350  0.64680  0.20880  Biso   1.000  H
  H95      1.0000 0.36650  0.14680  0.29120  Biso   1.000  H
  H96      1.0000 0.63350  0.14680  0.20880  Biso   1.000  H
  C105     1.0000 0.18980  0.50390  0.73160  Biso   1.000  C
  C106     1.0000 0.81020  0.50390  0.76840  Biso   1.000  C
  C107     1.0000 0.68980  0.00390  0.73160  Biso   1.000  C
  C108     1.0000 0.31020  0.00390  0.76840  Biso   1.000  C
  C109     1.0000 0.81020  0.49610  0.26840  Biso   1.000  C
  C110     1.0000 0.18980  0.49610  0.23160  Biso   1.000  C
  C111     1.0000 0.31020  0.99610  0.26840  Biso   1.000  C
  C112     1.0000 0.68980  0.99610  0.23160  Biso   1.000  C
  H97      1.0000 0.23160  0.46960  0.77740  Biso   1.000  H
  H98      1.0000 0.76840  0.46960  0.72260  Biso   1.000  H
  H99      1.0000 0.73160  0.96960  0.77740  Biso   1.000  H
  H100     1.0000 0.26840  0.96960  0.72260  Biso   1.000  H
  H101     1.0000 0.76840  0.53040  0.22260  Biso   1.000  H
  H102     1.0000 0.23160  0.53040  0.27740  Biso   1.000  H
  H103     1.0000 0.26840  0.03040  0.22260  Biso   1.000  H
  H104     1.0000 0.73160  0.03040  0.27740  Biso   1.000  H
  C113     1.0000 0.18680  0.62540  0.70410  Biso   1.000  C
  C114     1.0000 0.81320  0.62540  0.79590  Biso   1.000  C
  C115     1.0000 0.68680  0.12540  0.70410  Biso   1.000  C
  C116     1.0000 0.31320  0.12540  0.79590  Biso   1.000  C
  C117     1.0000 0.81320  0.37460  0.29590  Biso   1.000  C
  C118     1.0000 0.18680  0.37460  0.20410  Biso   1.000  C
  C119     1.0000 0.31320  0.87460  0.29590  Biso   1.000  C
  C120     1.0000 0.68680  0.87460  0.20410  Biso   1.000  C
  H105     1.0000 0.22670  0.67450  0.73100  Biso   1.000  H
  H106     1.0000 0.77330  0.67450  0.76900  Biso   1.000  H
  H107     1.0000 0.72670  0.17450  0.73100  Biso   1.000  H
  H108     1.0000 0.27330  0.17450  0.76900  Biso   1.000  H
  H109     1.0000 0.77330  0.32550  0.26900  Biso   1.000  H
  H110     1.0000 0.22670  0.32550  0.23100  Biso   1.000  H
  H111     1.0000 0.27330  0.82550  0.26900  Biso   1.000  H
  H112     1.0000 0.72670  0.82550  0.23100  Biso   1.000  H
