data_image0
_cell_length_a       14.3519
_cell_length_b       28.906
_cell_length_c       7.3225
_cell_angle_alpha    90
_cell_angle_beta     100.289
_cell_angle_gamma    90

_symmetry_space_group_name_H-M    "P 1"
_symmetry_int_tables_number       1

loop_
  _symmetry_equiv_pos_as_xyz
  'x, y, z'

loop_
  _atom_site_label
  _atom_site_occupancy
  _atom_site_fract_x
  _atom_site_fract_y
  _atom_site_fract_z
  _atom_site_thermal_displace_type
  _atom_site_B_iso_or_equiv
  _atom_site_type_symbol
  Cu1      1.0000 0.00000  0.00000  0.50000  Biso   1.000  Cu
  Cu2      1.0000 0.00000  0.50000  0.00000  Biso   1.000  Cu
  Cu3      1.0000 0.56863  0.12963  0.25742  Biso   1.000  Cu
  Cu4      1.0000 0.43137  0.62963  0.24258  Biso   1.000  Cu
  Cu5      1.0000 0.43137  0.87037  0.74258  Biso   1.000  Cu
  Cu6      1.0000 0.56863  0.37037  0.75742  Biso   1.000  Cu
  V1       1.0000 0.56929  0.27782  0.36759  Biso   1.000  V
  V2       1.0000 0.43071  0.77782  0.13241  Biso   1.000  V
  V3       1.0000 0.43071  0.72218  0.63241  Biso   1.000  V
  V4       1.0000 0.56929  0.22218  0.86759  Biso   1.000  V
  P1       1.0000 0.69711  0.19142  0.54922  Biso   1.000  P
  P2       1.0000 0.30289  0.69142  0.95078  Biso   1.000  P
  P3       1.0000 0.30289  0.80858  0.45078  Biso   1.000  P
  P4       1.0000 0.69711  0.30858  0.04922  Biso   1.000  P
  P5       1.0000 0.44576  0.18787  0.48853  Biso   1.000  P
  P6       1.0000 0.55424  0.68787  0.01147  Biso   1.000  P
  P7       1.0000 0.55424  0.81213  0.51147  Biso   1.000  P
  P8       1.0000 0.44576  0.31213  0.98853  Biso   1.000  P
  O1       1.0000 0.48289  0.14132  0.43320  Biso   1.000  O
  O2       1.0000 0.51711  0.64132  0.06680  Biso   1.000  O
  O3       1.0000 0.51711  0.85868  0.56680  Biso   1.000  O
  O4       1.0000 0.48289  0.35868  0.93320  Biso   1.000  O
  O5       1.0000 0.67782  0.14783  0.43220  Biso   1.000  O
  O6       1.0000 0.32218  0.64783  0.06780  Biso   1.000  O
  O7       1.0000 0.32218  0.85217  0.56780  Biso   1.000  O
  O8       1.0000 0.67782  0.35217  0.93220  Biso   1.000  O
  O9       1.0000 0.67643  0.23545  0.43460  Biso   1.000  O
  O10      1.0000 0.32357  0.73545  0.06540  Biso   1.000  O
  O11      1.0000 0.32357  0.76455  0.56540  Biso   1.000  O
  O12      1.0000 0.67643  0.26455  0.93460  Biso   1.000  O
  O13      1.0000 0.48530  0.22662  0.38600  Biso   1.000  O
  O14      1.0000 0.51470  0.72662  0.11400  Biso   1.000  O
  O15      1.0000 0.51470  0.77338  0.61400  Biso   1.000  O
  O16      1.0000 0.48530  0.27338  0.88600  Biso   1.000  O
  O17      1.0000 0.45932  0.19466  0.69640  Biso   1.000  O
  O18      1.0000 0.54068  0.69466  0.80360  Biso   1.000  O
  O19      1.0000 0.54068  0.80534  0.30360  Biso   1.000  O
  O20      1.0000 0.45932  0.30534  0.19640  Biso   1.000  O
  O21      1.0000 0.64723  0.19074  0.71570  Biso   1.000  O
  O22      1.0000 0.35277  0.69074  0.78430  Biso   1.000  O
  O23      1.0000 0.35277  0.80926  0.28430  Biso   1.000  O
  O24      1.0000 0.64723  0.30926  0.21570  Biso   1.000  O
  O25      1.0000 0.57051  0.19149  0.05240  Biso   1.000  O
  O26      1.0000 0.42949  0.69149  0.44760  Biso   1.000  O
  O27      1.0000 0.42949  0.80851  0.94760  Biso   1.000  O
  O28      1.0000 0.57051  0.30851  0.55240  Biso   1.000  O
  N1       1.0000 0.45230  0.10579  0.08270  Biso   1.000  N
  N2       1.0000 0.54770  0.60579  0.41730  Biso   1.000  N
  N3       1.0000 0.54770  0.89421  0.91730  Biso   1.000  N
  N4       1.0000 0.45230  0.39421  0.58270  Biso   1.000  N
  N5       1.0000 0.65980  0.09669  0.11390  Biso   1.000  N
  N6       1.0000 0.34020  0.59669  0.38610  Biso   1.000  N
  N7       1.0000 0.34020  0.90331  0.88610  Biso   1.000  N
  N8       1.0000 0.65980  0.40331  0.61390  Biso   1.000  N
  N9       1.0000 0.13550  0.00631  0.47910  Biso   1.000  N
  N10      1.0000 0.86450  0.50631  0.02090  Biso   1.000  N
  N11      1.0000 0.86450  0.99369  0.52090  Biso   1.000  N
  N12      1.0000 0.13550  0.49369  0.97910  Biso   1.000  N
  N13      1.0000 0.02350  0.03764  0.73530  Biso   1.000  N
  N14      1.0000 0.97650  0.53764  0.76470  Biso   1.000  N
  N15      1.0000 0.97650  0.96236  0.26470  Biso   1.000  N
  N16      1.0000 0.02350  0.46236  0.23530  Biso   1.000  N
  C1       1.0000 0.32010  0.18824  0.40230  Biso   1.000  C
  C2       1.0000 0.67990  0.68824  0.09770  Biso   1.000  C
  C3       1.0000 0.67990  0.81176  0.59770  Biso   1.000  C
  C4       1.0000 0.32010  0.31176  0.90230  Biso   1.000  C
  C5       1.0000 0.26330  0.15211  0.44360  Biso   1.000  C
  C6       1.0000 0.73670  0.65211  0.05640  Biso   1.000  C
  C7       1.0000 0.73670  0.84789  0.55640  Biso   1.000  C
  C8       1.0000 0.26330  0.34789  0.94360  Biso   1.000  C
  H1       1.0000 0.29150  0.12730  0.51900  Biso   1.000  H
  H2       1.0000 0.70850  0.62730  0.98100  Biso   1.000  H
  H3       1.0000 0.70850  0.87270  0.48100  Biso   1.000  H
  H4       1.0000 0.29150  0.37270  0.01900  Biso   1.000  H
  C9       1.0000 0.16690  0.15136  0.37770  Biso   1.000  C
  C10      1.0000 0.83310  0.65136  0.12230  Biso   1.000  C
  C11      1.0000 0.83310  0.84864  0.62230  Biso   1.000  C
  C12      1.0000 0.16690  0.34864  0.87770  Biso   1.000  C
  H5       1.0000 0.12940  0.12650  0.40860  Biso   1.000  H
  H6       1.0000 0.87060  0.62650  0.09140  Biso   1.000  H
  H7       1.0000 0.87060  0.87350  0.59140  Biso   1.000  H
  H8       1.0000 0.12940  0.37350  0.90860  Biso   1.000  H
  C13      1.0000 0.12530  0.18742  0.26550  Biso   1.000  C
  C14      1.0000 0.87470  0.68742  0.23450  Biso   1.000  C
  C15      1.0000 0.87470  0.81258  0.73450  Biso   1.000  C
  C16      1.0000 0.12530  0.31258  0.76550  Biso   1.000  C
  H9       1.0000 0.05910  0.18740  0.22020  Biso   1.000  H
  H10      1.0000 0.94090  0.68740  0.27980  Biso   1.000  H
  H11      1.0000 0.94090  0.81260  0.77980  Biso   1.000  H
  H12      1.0000 0.05910  0.31260  0.72020  Biso   1.000  H
  C17      1.0000 0.18100  0.22331  0.22050  Biso   1.000  C
  C18      1.0000 0.81900  0.72331  0.27950  Biso   1.000  C
  C19      1.0000 0.81900  0.77669  0.77950  Biso   1.000  C
  C20      1.0000 0.18100  0.27669  0.72050  Biso   1.000  C
  H13      1.0000 0.15270  0.24750  0.14200  Biso   1.000  H
  H14      1.0000 0.84730  0.74750  0.35800  Biso   1.000  H
  H15      1.0000 0.84730  0.75250  0.85800  Biso   1.000  H
  H16      1.0000 0.15270  0.25250  0.64200  Biso   1.000  H
  C21      1.0000 0.27830  0.22434  0.28890  Biso   1.000  C
  C22      1.0000 0.72170  0.72434  0.21110  Biso   1.000  C
  C23      1.0000 0.72170  0.77566  0.71110  Biso   1.000  C
  C24      1.0000 0.27830  0.27566  0.78890  Biso   1.000  C
  H17      1.0000 0.31580  0.24930  0.25880  Biso   1.000  H
  H18      1.0000 0.68420  0.74930  0.24120  Biso   1.000  H
  H19      1.0000 0.68420  0.75070  0.74120  Biso   1.000  H
  H20      1.0000 0.31580  0.25070  0.75880  Biso   1.000  H
  C25      1.0000 0.82250  0.19070  0.63770  Biso   1.000  C
  C26      1.0000 0.17750  0.69070  0.86230  Biso   1.000  C
  C27      1.0000 0.17750  0.80930  0.36230  Biso   1.000  C
  C28      1.0000 0.82250  0.30930  0.13770  Biso   1.000  C
  C29      1.0000 0.86020  0.22238  0.77380  Biso   1.000  C
  C30      1.0000 0.13980  0.72238  0.72620  Biso   1.000  C
  C31      1.0000 0.13980  0.77762  0.22620  Biso   1.000  C
  C32      1.0000 0.86020  0.27762  0.27380  Biso   1.000  C
  H21      1.0000 0.81980  0.24420  0.81760  Biso   1.000  H
  H22      1.0000 0.18020  0.74420  0.68240  Biso   1.000  H
  H23      1.0000 0.18020  0.75580  0.18240  Biso   1.000  H
  H24      1.0000 0.81980  0.25580  0.31760  Biso   1.000  H
  C33      1.0000 0.95640  0.22235  0.84590  Biso   1.000  C
  C34      1.0000 0.04360  0.72235  0.65410  Biso   1.000  C
  C35      1.0000 0.04360  0.77765  0.15410  Biso   1.000  C
  C36      1.0000 0.95640  0.27765  0.34590  Biso   1.000  C
  H25      1.0000 0.98190  0.24430  0.93820  Biso   1.000  H
  H26      1.0000 0.01810  0.74430  0.56180  Biso   1.000  H
  H27      1.0000 0.01810  0.75570  0.06180  Biso   1.000  H
  H28      1.0000 0.98190  0.25570  0.43820  Biso   1.000  H
  C37      1.0000 0.01510  0.19050  0.78360  Biso   1.000  C
  C38      1.0000 0.98490  0.69050  0.71640  Biso   1.000  C
  C39      1.0000 0.98490  0.80950  0.21640  Biso   1.000  C
  C40      1.0000 0.01510  0.30950  0.28360  Biso   1.000  C
  H29      1.0000 0.08090  0.19030  0.83420  Biso   1.000  H
  H30      1.0000 0.91910  0.69030  0.66580  Biso   1.000  H
  H31      1.0000 0.91910  0.80970  0.16580  Biso   1.000  H
  H32      1.0000 0.08090  0.30970  0.33420  Biso   1.000  H
  C41      1.0000 0.97890  0.15885  0.64810  Biso   1.000  C
  C42      1.0000 0.02110  0.65885  0.85190  Biso   1.000  C
  C43      1.0000 0.02110  0.84115  0.35190  Biso   1.000  C
  C44      1.0000 0.97890  0.34115  0.14810  Biso   1.000  C
  H33      1.0000 0.01970  0.13710  0.60540  Biso   1.000  H
  H34      1.0000 0.98030  0.63710  0.89460  Biso   1.000  H
  H35      1.0000 0.98030  0.86290  0.39460  Biso   1.000  H
  H36      1.0000 0.01970  0.36290  0.10540  Biso   1.000  H
  C45      1.0000 0.88280  0.15890  0.57430  Biso   1.000  C
  C46      1.0000 0.11720  0.65890  0.92570  Biso   1.000  C
  C47      1.0000 0.11720  0.84110  0.42570  Biso   1.000  C
  C48      1.0000 0.88280  0.34110  0.07430  Biso   1.000  C
  H37      1.0000 0.85790  0.13730  0.48050  Biso   1.000  H
  H38      1.0000 0.14210  0.63730  0.01950  Biso   1.000  H
  H39      1.0000 0.14210  0.86270  0.51950  Biso   1.000  H
  H40      1.0000 0.85790  0.36270  0.98050  Biso   1.000  H
  C49      1.0000 0.43940  0.06047  0.05020  Biso   1.000  C
  C50      1.0000 0.56060  0.56047  0.44980  Biso   1.000  C
  C51      1.0000 0.56060  0.93953  0.94980  Biso   1.000  C
  C52      1.0000 0.43940  0.43953  0.55020  Biso   1.000  C
  H41      1.0000 0.48910  0.03980  0.09890  Biso   1.000  H
  H42      1.0000 0.51090  0.53980  0.40110  Biso   1.000  H
  H43      1.0000 0.51090  0.96020  0.90110  Biso   1.000  H
  H44      1.0000 0.48910  0.46020  0.59890  Biso   1.000  H
  C53      1.0000 0.35670  0.04247  0.94870  Biso   1.000  C
  C54      1.0000 0.64330  0.54247  0.55130  Biso   1.000  C
  C55      1.0000 0.64330  0.95753  0.05130  Biso   1.000  C
  C56      1.0000 0.35670  0.45753  0.44870  Biso   1.000  C
  H45      1.0000 0.35050  0.01010  0.92860  Biso   1.000  H
  H46      1.0000 0.64950  0.51010  0.57140  Biso   1.000  H
  H47      1.0000 0.64950  0.98990  0.07140  Biso   1.000  H
  H48      1.0000 0.35050  0.48990  0.42860  Biso   1.000  H
  C57      1.0000 0.28240  0.07207  0.87610  Biso   1.000  C
  C58      1.0000 0.71760  0.57207  0.62390  Biso   1.000  C
  C59      1.0000 0.71760  0.92793  0.12390  Biso   1.000  C
  C60      1.0000 0.28240  0.42793  0.37610  Biso   1.000  C
  C61      1.0000 0.29650  0.11923  0.91190  Biso   1.000  C
  C62      1.0000 0.70350  0.61923  0.58810  Biso   1.000  C
  C63      1.0000 0.70350  0.88077  0.08810  Biso   1.000  C
  C64      1.0000 0.29650  0.38077  0.41190  Biso   1.000  C
  H49      1.0000 0.24770  0.14070  0.86700  Biso   1.000  H
  H50      1.0000 0.75230  0.64070  0.63300  Biso   1.000  H
  H51      1.0000 0.75230  0.85930  0.13300  Biso   1.000  H
  H52      1.0000 0.24770  0.35930  0.36700  Biso   1.000  H
  C65      1.0000 0.38160  0.13457  0.01290  Biso   1.000  C
  C66      1.0000 0.61840  0.63457  0.48710  Biso   1.000  C
  C67      1.0000 0.61840  0.86543  0.98710  Biso   1.000  C
  C68      1.0000 0.38160  0.36543  0.51290  Biso   1.000  C
  H53      1.0000 0.39030  0.16680  0.03360  Biso   1.000  H
  H54      1.0000 0.60970  0.66680  0.46640  Biso   1.000  H
  H55      1.0000 0.60970  0.83320  0.96640  Biso   1.000  H
  H56      1.0000 0.39030  0.33320  0.53360  Biso   1.000  H
  C69      1.0000 0.95820  0.05113  0.84200  Biso   1.000  C
  C70      1.0000 0.04180  0.55113  0.65800  Biso   1.000  C
  C71      1.0000 0.04180  0.94887  0.15800  Biso   1.000  C
  C72      1.0000 0.95820  0.44887  0.34200  Biso   1.000  C
  C73      1.0000 0.00350  0.07820  0.99810  Biso   1.000  C
  C74      1.0000 0.99650  0.57820  0.50190  Biso   1.000  C
  C75      1.0000 0.99650  0.92180  0.00190  Biso   1.000  C
  C76      1.0000 0.00350  0.42180  0.49810  Biso   1.000  C
  H57      1.0000 0.97340  0.09230  0.08930  Biso   1.000  H
  H58      1.0000 0.02660  0.59230  0.41070  Biso   1.000  H
  H59      1.0000 0.02660  0.90770  0.91070  Biso   1.000  H
  H60      1.0000 0.97340  0.40770  0.58930  Biso   1.000  H
  C77      1.0000 0.09640  0.07970  0.99040  Biso   1.000  C
  C78      1.0000 0.90360  0.57970  0.50960  Biso   1.000  C
  C79      1.0000 0.90360  0.92030  0.00960  Biso   1.000  C
  C80      1.0000 0.09640  0.42030  0.49040  Biso   1.000  C
  H61      1.0000 0.14470  0.09390  0.07810  Biso   1.000  H
  H62      1.0000 0.85530  0.59390  0.42190  Biso   1.000  H
  H63      1.0000 0.85530  0.90610  0.92190  Biso   1.000  H
  H64      1.0000 0.14470  0.40610  0.57810  Biso   1.000  H
  C81      1.0000 0.10890  0.05572  0.82410  Biso   1.000  C
  C82      1.0000 0.89110  0.55572  0.67590  Biso   1.000  C
  C83      1.0000 0.89110  0.94428  0.17590  Biso   1.000  C
  C84      1.0000 0.10890  0.44428  0.32410  Biso   1.000  C
  C85      1.0000 0.20490  0.03080  0.59430  Biso   1.000  C
  C86      1.0000 0.79510  0.53080  0.90570  Biso   1.000  C
  C87      1.0000 0.79510  0.96920  0.40570  Biso   1.000  C
  C88      1.0000 0.20490  0.46920  0.09430  Biso   1.000  C
  C89      1.0000 0.29140  0.03027  0.52270  Biso   1.000  C
  C90      1.0000 0.70860  0.53027  0.97730  Biso   1.000  C
  C91      1.0000 0.70860  0.96973  0.47730  Biso   1.000  C
  C92      1.0000 0.29140  0.46973  0.02270  Biso   1.000  C
  H65      1.0000 0.34890  0.04520  0.57510  Biso   1.000  H
  H66      1.0000 0.65110  0.54520  0.92490  Biso   1.000  H
  H67      1.0000 0.65110  0.95480  0.42490  Biso   1.000  H
  H68      1.0000 0.34890  0.45480  0.07510  Biso   1.000  H
  C93      1.0000 0.27560  0.00458  0.36720  Biso   1.000  C
  C94      1.0000 0.72440  0.50458  0.13280  Biso   1.000  C
  C95      1.0000 0.72440  0.99542  0.63280  Biso   1.000  C
  C96      1.0000 0.27560  0.49542  0.86720  Biso   1.000  C
  H69      1.0000 0.32000  0.99810  0.28870  Biso   1.000  H
  H70      1.0000 0.68000  0.49810  0.21130  Biso   1.000  H
  H71      1.0000 0.68000  0.00190  0.71130  Biso   1.000  H
  H72      1.0000 0.32000  0.50190  0.78870  Biso   1.000  H
  C97      1.0000 0.17930  0.98864  0.34110  Biso   1.000  C
  C98      1.0000 0.82070  0.48864  0.15890  Biso   1.000  C
  C99      1.0000 0.82070  0.01136  0.65890  Biso   1.000  C
  C100     1.0000 0.17930  0.51136  0.84110  Biso   1.000  C
  C101     1.0000 0.79570  0.06120  0.91730  Biso   1.000  C
  C102     1.0000 0.20430  0.56120  0.58270  Biso   1.000  C
  C103     1.0000 0.20430  0.93880  0.08270  Biso   1.000  C
  C104     1.0000 0.79570  0.43880  0.41730  Biso   1.000  C
  C105     1.0000 0.80660  0.05675  0.10980  Biso   1.000  C
  C106     1.0000 0.19340  0.55675  0.39020  Biso   1.000  C
  C107     1.0000 0.19340  0.94325  0.89020  Biso   1.000  C
  C108     1.0000 0.80660  0.44325  0.60980  Biso   1.000  C
  H73      1.0000 0.86010  0.04110  0.17710  Biso   1.000  H
  H74      1.0000 0.13990  0.54110  0.32290  Biso   1.000  H
  H75      1.0000 0.13990  0.95890  0.82290  Biso   1.000  H
  H76      1.0000 0.86010  0.45890  0.67710  Biso   1.000  H
  C109     1.0000 0.71580  0.08511  0.82870  Biso   1.000  C
  C110     1.0000 0.28420  0.58511  0.67130  Biso   1.000  C
  C111     1.0000 0.28420  0.91489  0.17130  Biso   1.000  C
  C112     1.0000 0.71580  0.41489  0.32870  Biso   1.000  C
  H77      1.0000 0.70690  0.09030  0.69860  Biso   1.000  H
  H78      1.0000 0.29310  0.59030  0.80140  Biso   1.000  H
  H79      1.0000 0.29310  0.90970  0.30140  Biso   1.000  H
  H80      1.0000 0.70690  0.40970  0.19860  Biso   1.000  H
  C113     1.0000 0.64960  0.10128  0.92890  Biso   1.000  C
  C114     1.0000 0.35040  0.60128  0.57110  Biso   1.000  C
  C115     1.0000 0.35040  0.89872  0.07110  Biso   1.000  C
  C116     1.0000 0.64960  0.39872  0.42890  Biso   1.000  C
  H81      1.0000 0.59460  0.11630  0.86420  Biso   1.000  H
  H82      1.0000 0.40540  0.61630  0.63580  Biso   1.000  H
  H83      1.0000 0.40540  0.88370  0.13580  Biso   1.000  H
  H84      1.0000 0.59460  0.38370  0.36420  Biso   1.000  H
  C117     1.0000 0.73880  0.07534  0.20260  Biso   1.000  C
  C118     1.0000 0.26120  0.57534  0.29740  Biso   1.000  C
  C119     1.0000 0.26120  0.92466  0.79740  Biso   1.000  C
  C120     1.0000 0.73880  0.42466  0.70260  Biso   1.000  C
  H85      1.0000 0.74840  0.07290  0.33400  Biso   1.000  H
  H86      1.0000 0.25160  0.57290  0.16600  Biso   1.000  H
  H87      1.0000 0.25160  0.92710  0.66600  Biso   1.000  H
  H88      1.0000 0.74840  0.42710  0.83400  Biso   1.000  H
  C121     1.0000 0.19420  0.05283  0.76030  Biso   1.000  C
  C122     1.0000 0.80580  0.55283  0.73970  Biso   1.000  C
  C123     1.0000 0.80580  0.94717  0.23970  Biso   1.000  C
  C124     1.0000 0.19420  0.44717  0.26030  Biso   1.000  C
  C125     1.0000 0.86160  0.04037  0.80400  Biso   1.000  C
  C126     1.0000 0.13840  0.54037  0.69600  Biso   1.000  C
  C127     1.0000 0.13840  0.95963  0.19600  Biso   1.000  C
  C128     1.0000 0.86160  0.45963  0.30400  Biso   1.000  C
  O29      1.0000 0.82500  0.17010  0.12400  Biso   1.000  O
  O30      1.0000 0.17500  0.67010  0.37600  Biso   1.000  O
  O31      1.0000 0.17500  0.82990  0.87600  Biso   1.000  O
  O32      1.0000 0.82500  0.32990  0.62400  Biso   1.000  O
  O33      1.0000 0.51300  0.05190  0.57200  Biso   1.000  O
  O34      1.0000 0.48700  0.55190  0.92800  Biso   1.000  O
  O35      1.0000 0.48700  0.94810  0.42800  Biso   1.000  O
  O36      1.0000 0.51300  0.44810  0.07200  Biso   1.000  O
  O37      1.0000 0.53040  0.04840  0.48600  Biso   1.000  O
  O38      1.0000 0.46960  0.54840  0.01400  Biso   1.000  O
  O39      1.0000 0.46960  0.95160  0.51400  Biso   1.000  O
  O40      1.0000 0.53040  0.45160  0.98600  Biso   1.000  O
