data_image0
_cell_length_a       9.7559
_cell_length_b       13.8997
_cell_length_c       19.7171
_cell_angle_alpha    101.657
_cell_angle_beta     93.949
_cell_angle_gamma    110.477

_symmetry_space_group_name_H-M    "P 1"
_symmetry_int_tables_number       1

loop_
  _symmetry_equiv_pos_as_xyz
  'x, y, z'

loop_
  _atom_site_label
  _atom_site_occupancy
  _atom_site_fract_x
  _atom_site_fract_y
  _atom_site_fract_z
  _atom_site_thermal_displace_type
  _atom_site_B_iso_or_equiv
  _atom_site_type_symbol
  Cu1      1.0000 0.07132  0.48511  0.08206  Biso   1.000  Cu
  Cu2      1.0000 0.92868  0.51489  0.91794  Biso   1.000  Cu
  Cu3      1.0000 0.56349  0.37959  0.39430  Biso   1.000  Cu
  Cu4      1.0000 0.43651  0.62041  0.60570  Biso   1.000  Cu
  V1       1.0000 0.21581  0.48405  0.24060  Biso   1.000  V
  V2       1.0000 0.78419  0.51595  0.75940  Biso   1.000  V
  V3       1.0000 0.71256  0.47508  0.26240  Biso   1.000  V
  V4       1.0000 0.28744  0.52492  0.73760  Biso   1.000  V
  P1       1.0000 0.03604  0.62859  0.22461  Biso   1.000  P
  P2       1.0000 0.96396  0.37141  0.77539  Biso   1.000  P
  P3       1.0000 0.53340  0.58613  0.35292  Biso   1.000  P
  P4       1.0000 0.46660  0.41387  0.64708  Biso   1.000  P
  P5       1.0000 0.36733  0.31873  0.25379  Biso   1.000  P
  P6       1.0000 0.63267  0.68127  0.74621  Biso   1.000  P
  P7       1.0000 0.87307  0.34707  0.16687  Biso   1.000  P
  P8       1.0000 0.12693  0.65293  0.83313  Biso   1.000  P
  O1       1.0000 0.88940  0.58630  0.25162  Biso   1.000  O
  O2       1.0000 0.11060  0.41370  0.74838  Biso   1.000  O
  O3       1.0000 0.02390  0.59120  0.14529  Biso   1.000  O
  O4       1.0000 0.97610  0.40880  0.85471  Biso   1.000  O
  O5       1.0000 0.16200  0.61010  0.26413  Biso   1.000  O
  O6       1.0000 0.83800  0.38990  0.73587  Biso   1.000  O
  O7       1.0000 0.25750  0.48490  0.16325  Biso   1.000  O
  O8       1.0000 0.74250  0.51510  0.83675  Biso   1.000  O
  O9       1.0000 0.23910  0.35700  0.26009  Biso   1.000  O
  O10      1.0000 0.76090  0.64300  0.73991  Biso   1.000  O
  O11      1.0000 0.38890  0.57220  0.31012  Biso   1.000  O
  O12      1.0000 0.61110  0.42780  0.68988  Biso   1.000  O
  O13      1.0000 0.51920  0.50530  0.39633  Biso   1.000  O
  O14      1.0000 0.48080  0.49470  0.60367  Biso   1.000  O
  O15      1.0000 0.65860  0.59600  0.30851  Biso   1.000  O
  O16      1.0000 0.34140  0.40400  0.69149  Biso   1.000  O
  O17      1.0000 0.40820  0.28640  0.31939  Biso   1.000  O
  O18      1.0000 0.59180  0.71360  0.68061  Biso   1.000  O
  O19      1.0000 0.50060  0.39820  0.23327  Biso   1.000  O
  O20      1.0000 0.49940  0.60180  0.76673  Biso   1.000  O
  O21      1.0000 0.75150  0.43230  0.32825  Biso   1.000  O
  O22      1.0000 0.24850  0.56770  0.67175  Biso   1.000  O
  O23      1.0000 0.74030  0.37730  0.18241  Biso   1.000  O
  O24      1.0000 0.25970  0.62270  0.81759  Biso   1.000  O
  O25      1.0000 0.00290  0.40190  0.22660  Biso   1.000  O
  O26      1.0000 0.99710  0.59810  0.77340  Biso   1.000  O
  O27      1.0000 0.91660  0.36180  0.09600  Biso   1.000  O
  O28      1.0000 0.08340  0.63820  0.90400  Biso   1.000  O
  O29      1.0000 0.56270  0.74750  0.23580  Biso   1.000  O
  O30      1.0000 0.43730  0.25250  0.76420  Biso   1.000  O
  N1       1.0000 0.62150  0.25640  0.40271  Biso   1.000  N
  N2       1.0000 0.37850  0.74360  0.59729  Biso   1.000  N
  N3       1.0000 0.70500  0.44740  0.48434  Biso   1.000  N
  N4       1.0000 0.29500  0.55260  0.51566  Biso   1.000  N
  N5       1.0000 0.21990  0.59770  0.04664  Biso   1.000  N
  N6       1.0000 0.78010  0.40230  0.95336  Biso   1.000  N
  N7       1.0000 0.12510  0.39110  0.00487  Biso   1.000  N
  N8       1.0000 0.87490  0.60890  0.99513  Biso   1.000  N
  C1       1.0000 0.57010  0.15960  0.36210  Biso   1.000  C
  C2       1.0000 0.42990  0.84040  0.63790  Biso   1.000  C
  H1       1.0000 0.49160  0.14090  0.32470  Biso   1.000  H
  H2       1.0000 0.50840  0.85910  0.67530  Biso   1.000  H
  C3       1.0000 0.62770  0.08300  0.37230  Biso   1.000  C
  C4       1.0000 0.37230  0.91700  0.62770  Biso   1.000  C
  H3       1.0000 0.58820  0.01390  0.34220  Biso   1.000  H
  H4       1.0000 0.41180  0.98610  0.65780  Biso   1.000  H
  C5       1.0000 0.74100  0.10870  0.42590  Biso   1.000  C
  C6       1.0000 0.25900  0.89130  0.57410  Biso   1.000  C
  H5       1.0000 0.78180  0.05800  0.43270  Biso   1.000  H
  H6       1.0000 0.21820  0.94200  0.56730  Biso   1.000  H
  C7       1.0000 0.79670  0.21120  0.47080  Biso   1.000  C
  C8       1.0000 0.20330  0.78880  0.52920  Biso   1.000  C
  C9       1.0000 0.90860  0.24550  0.53140  Biso   1.000  C
  C10      1.0000 0.09140  0.75450  0.46860  Biso   1.000  C
  H7       1.0000 0.95260  0.19810  0.54190  Biso   1.000  H
  H8       1.0000 0.04740  0.80190  0.45810  Biso   1.000  H
  C11      1.0000 0.95270  0.34500  0.57400  Biso   1.000  C
  C12      1.0000 0.04730  0.65500  0.42600  Biso   1.000  C
  H9       1.0000 0.02720  0.36580  0.61360  Biso   1.000  H
  H10      1.0000 0.97280  0.63420  0.38640  Biso   1.000  H
  C13      1.0000 0.88780  0.41820  0.55990  Biso   1.000  C
  C14      1.0000 0.11220  0.58180  0.44010  Biso   1.000  C
  C15      1.0000 0.92290  0.52070  0.60260  Biso   1.000  C
  C16      1.0000 0.07710  0.47930  0.39740  Biso   1.000  C
  H11      1.0000 0.99800  0.54700  0.64240  Biso   1.000  H
  H12      1.0000 0.00200  0.45300  0.35760  Biso   1.000  H
  C17      1.0000 0.84800  0.58230  0.58650  Biso   1.000  C
  C18      1.0000 0.15200  0.41770  0.41350  Biso   1.000  C
  H13      1.0000 0.86970  0.65100  0.61540  Biso   1.000  H
  H14      1.0000 0.13030  0.34900  0.38460  Biso   1.000  H
  C19      1.0000 0.73850  0.54290  0.52650  Biso   1.000  C
  C20      1.0000 0.26150  0.45710  0.47350  Biso   1.000  C
  H15      1.0000 0.68680  0.58590  0.51590  Biso   1.000  H
  H16      1.0000 0.31320  0.41410  0.48410  Biso   1.000  H
  C21      1.0000 0.77790  0.38590  0.50100  Biso   1.000  C
  C22      1.0000 0.22210  0.61410  0.49900  Biso   1.000  C
  C23      1.0000 0.73250  0.28230  0.45690  Biso   1.000  C
  C24      1.0000 0.26750  0.71770  0.54310  Biso   1.000  C
  C25      1.0000 0.81300  0.20720  0.16330  Biso   1.000  C
  C26      1.0000 0.18700  0.79280  0.83670  Biso   1.000  C
  C27      1.0000 0.82580  0.17450  0.22510  Biso   1.000  C
  C28      1.0000 0.17420  0.82550  0.77490  Biso   1.000  C
  H17      1.0000 0.86630  0.22590  0.26830  Biso   1.000  H
  H18      1.0000 0.13370  0.77410  0.73170  Biso   1.000  H
  C29      1.0000 0.77990  0.06760  0.22400  Biso   1.000  C
  C30      1.0000 0.22010  0.93240  0.77600  Biso   1.000  C
  H19      1.0000 0.78960  0.04620  0.26640  Biso   1.000  H
  H20      1.0000 0.21040  0.95380  0.73360  Biso   1.000  H
  C31      1.0000 0.71980  0.99180  0.16110  Biso   1.000  C
  C32      1.0000 0.28020  0.00820  0.83890  Biso   1.000  C
  H21      1.0000 0.68790  0.91870  0.16030  Biso   1.000  H
  H22      1.0000 0.31210  0.08130  0.83970  Biso   1.000  H
  C33      1.0000 0.70660  0.02370  0.09940  Biso   1.000  C
  C34      1.0000 0.29340  0.97630  0.90060  Biso   1.000  C
  H23      1.0000 0.66550  0.97210  0.05630  Biso   1.000  H
  H24      1.0000 0.33450  0.02790  0.94370  Biso   1.000  H
  C35      1.0000 0.75320  0.13030  0.10050  Biso   1.000  C
  C36      1.0000 0.24680  0.86970  0.89950  Biso   1.000  C
  H25      1.0000 0.74430  0.15130  0.05790  Biso   1.000  H
  H26      1.0000 0.25570  0.84870  0.94210  Biso   1.000  H
  C37      1.0000 0.58490  0.71330  0.41430  Biso   1.000  C
  C38      1.0000 0.41510  0.28670  0.58570  Biso   1.000  C
  C39      1.0000 0.49200  0.77070  0.41730  Biso   1.000  C
  C40      1.0000 0.50800  0.22930  0.58270  Biso   1.000  C
  H27      1.0000 0.40180  0.74420  0.38580  Biso   1.000  H
  H28      1.0000 0.59820  0.25580  0.61420  Biso   1.000  H
  C41      1.0000 0.53230  0.86710  0.46680  Biso   1.000  C
  C42      1.0000 0.46770  0.13290  0.53320  Biso   1.000  C
  H29      1.0000 0.46940  0.90620  0.46850  Biso   1.000  H
  H30      1.0000 0.53060  0.09380  0.53150  Biso   1.000  H
  C43      1.0000 0.66210  0.90590  0.51320  Biso   1.000  C
  C44      1.0000 0.33790  0.09410  0.48680  Biso   1.000  C
  H31      1.0000 0.68680  0.97060  0.54750  Biso   1.000  H
  H32      1.0000 0.31320  0.02940  0.45250  Biso   1.000  H
  C45      1.0000 0.75700  0.85100  0.51010  Biso   1.000  C
  C46      1.0000 0.24300  0.14900  0.48990  Biso   1.000  C
  H33      1.0000 0.84730  0.87830  0.54170  Biso   1.000  H
  H34      1.0000 0.15270  0.12170  0.45830  Biso   1.000  H
  C47      1.0000 0.71890  0.75520  0.46000  Biso   1.000  C
  C48      1.0000 0.28110  0.24480  0.54000  Biso   1.000  C
  H35      1.0000 0.78470  0.71830  0.45710  Biso   1.000  H
  H36      1.0000 0.21530  0.28170  0.54290  Biso   1.000  H
  C49      1.0000 0.30360  0.20190  0.18270  Biso   1.000  C
  C50      1.0000 0.69640  0.79810  0.81730  Biso   1.000  C
  C51      1.0000 0.40330  0.15550  0.15860  Biso   1.000  C
  C52      1.0000 0.59670  0.84450  0.84140  Biso   1.000  C
  H37      1.0000 0.50450  0.18620  0.17930  Biso   1.000  H
  H38      1.0000 0.49550  0.81380  0.82070  Biso   1.000  H
  C53      1.0000 0.35370  0.06430  0.10440  Biso   1.000  C
  C54      1.0000 0.64630  0.93570  0.89560  Biso   1.000  C
  H39      1.0000 0.42110  0.03240  0.08850  Biso   1.000  H
  H40      1.0000 0.57890  0.96760  0.91150  Biso   1.000  H
  C55      1.0000 0.20600  0.01950  0.07330  Biso   1.000  C
  C56      1.0000 0.79400  0.98050  0.92670  Biso   1.000  C
  H41      1.0000 0.17240  0.95680  0.03670  Biso   1.000  H
  H42      1.0000 0.82760  0.04320  0.96330  Biso   1.000  H
  C57      1.0000 0.10700  0.06680  0.09610  Biso   1.000  C
  C58      1.0000 0.89300  0.93320  0.90390  Biso   1.000  C
  H43      1.0000 0.00640  0.03690  0.07450  Biso   1.000  H
  H44      1.0000 0.99360  0.96310  0.92550  Biso   1.000  H
  C59      1.0000 0.15600  0.15810  0.15060  Biso   1.000  C
  C60      1.0000 0.84400  0.84190  0.84940  Biso   1.000  C
  H45      1.0000 0.08880  0.19050  0.16590  Biso   1.000  H
  H46      1.0000 0.91120  0.80950  0.83410  Biso   1.000  H
  C61      1.0000 0.08460  0.77000  0.24670  Biso   1.000  C
  C62      1.0000 0.91540  0.23000  0.75330  Biso   1.000  C
  C63      1.0000 0.22290  0.83790  0.23730  Biso   1.000  C
  C64      1.0000 0.77710  0.16210  0.76270  Biso   1.000  C
  H47      1.0000 0.29320  0.80960  0.22050  Biso   1.000  H
  H48      1.0000 0.70680  0.19040  0.77950  Biso   1.000  H
  C65      1.0000 0.25770  0.94650  0.25230  Biso   1.000  C
  C66      1.0000 0.74230  0.05350  0.74770  Biso   1.000  C
  H49      1.0000 0.35030  0.99200  0.24410  Biso   1.000  H
  H50      1.0000 0.64970  0.00800  0.75590  Biso   1.000  H
  C67      1.0000 0.15810  0.98880  0.27910  Biso   1.000  C
  C68      1.0000 0.84190  0.01120  0.72090  Biso   1.000  C
  H51      1.0000 0.18220  0.06310  0.28880  Biso   1.000  H
  H52      1.0000 0.81780  0.93690  0.71120  Biso   1.000  H
  C69      1.0000 0.02400  0.92360  0.29170  Biso   1.000  C
  C70      1.0000 0.97600  0.07640  0.70830  Biso   1.000  C
  H53      1.0000 0.95800  0.95330  0.31220  Biso   1.000  H
  H54      1.0000 0.04200  0.04670  0.68780  Biso   1.000  H
  C71      1.0000 0.98510  0.81330  0.27450  Biso   1.000  C
  C72      1.0000 0.01490  0.18670  0.72550  Biso   1.000  C
  H55      1.0000 0.89130  0.76830  0.28170  Biso   1.000  H
  H56      1.0000 0.10870  0.23170  0.71830  Biso   1.000  H
  C73      1.0000 0.26460  0.70220  0.06970  Biso   1.000  C
  C74      1.0000 0.73540  0.29780  0.93030  Biso   1.000  C
  H57      1.0000 0.21400  0.73060  0.10280  Biso   1.000  H
  H58      1.0000 0.78600  0.26940  0.89720  Biso   1.000  H
  C75      1.0000 0.38400  0.77160  0.04660  Biso   1.000  C
  C76      1.0000 0.61600  0.22840  0.95340  Biso   1.000  C
  H59      1.0000 0.41470  0.84580  0.06470  Biso   1.000  H
  H60      1.0000 0.58530  0.15420  0.93530  Biso   1.000  H
  C77      1.0000 0.45670  0.73220  0.99760  Biso   1.000  C
  C78      1.0000 0.54330  0.26780  0.00240  Biso   1.000  C
  H61      1.0000 0.53750  0.77890  0.98150  Biso   1.000  H
  H62      1.0000 0.46250  0.22110  0.01850  Biso   1.000  H
  C79      1.0000 0.41050  0.62210  0.97150  Biso   1.000  C
  C80      1.0000 0.58950  0.37790  0.02850  Biso   1.000  C
  C81      1.0000 0.47770  0.57170  0.92020  Biso   1.000  C
  C82      1.0000 0.52230  0.42830  0.07980  Biso   1.000  C
  H63      1.0000 0.56010  0.61390  0.90250  Biso   1.000  H
  H64      1.0000 0.43990  0.38610  0.09750  Biso   1.000  H
  C83      1.0000 0.42510  0.46520  0.89670  Biso   1.000  C
  C84      1.0000 0.57490  0.53480  0.10330  Biso   1.000  C
  H65      1.0000 0.47040  0.43370  0.86240  Biso   1.000  H
  H66      1.0000 0.52960  0.56630  0.13760  Biso   1.000  H
  C85      1.0000 0.30190  0.39880  0.92290  Biso   1.000  C
  C86      1.0000 0.69810  0.60120  0.07710  Biso   1.000  C
  C87      1.0000 0.24030  0.28720  0.90050  Biso   1.000  C
  C88      1.0000 0.75970  0.71280  0.09950  Biso   1.000  C
  H67      1.0000 0.27810  0.25100  0.86500  Biso   1.000  H
  H68      1.0000 0.72190  0.74900  0.13500  Biso   1.000  H
  C89      1.0000 0.12520  0.23180  0.93070  Biso   1.000  C
  C90      1.0000 0.87480  0.76820  0.06930  Biso   1.000  C
  H69      1.0000 0.08230  0.15670  0.91580  Biso   1.000  H
  H70      1.0000 0.91770  0.84330  0.08420  Biso   1.000  H
  C91      1.0000 0.07070  0.28600  0.98360  Biso   1.000  C
  C92      1.0000 0.92930  0.71400  0.01640  Biso   1.000  C
  H71      1.0000 0.99260  0.24640  0.00480  Biso   1.000  H
  H72      1.0000 0.00740  0.75360  0.99520  Biso   1.000  H
  C93      1.0000 0.23810  0.44630  0.97440  Biso   1.000  C
  C94      1.0000 0.76190  0.55370  0.02560  Biso   1.000  C
  C95      1.0000 0.29120  0.55900  0.99820  Biso   1.000  C
  C96      1.0000 0.70880  0.44100  0.00180  Biso   1.000  C
