data_image0
_cell_length_a       9.7559
_cell_length_b       13.8997
_cell_length_c       19.7171
_cell_angle_alpha    101.657
_cell_angle_beta     93.949
_cell_angle_gamma    110.477

_symmetry_space_group_name_H-M    "P 1"
_symmetry_int_tables_number       1

loop_
  _symmetry_equiv_pos_as_xyz
  'x, y, z'

loop_
  _atom_site_label
  _atom_site_occupancy
  _atom_site_fract_x
  _atom_site_fract_y
  _atom_site_fract_z
  _atom_site_thermal_displace_type
  _atom_site_B_iso_or_equiv
  _atom_site_type_symbol
  Cu1      1.0000 0.07134  0.48510  0.08203  Biso   1.000  Cu
  Cu2      1.0000 0.92866  0.51490  0.91797  Biso   1.000  Cu
  Cu3      1.0000 0.56349  0.37956  0.39431  Biso   1.000  Cu
  Cu4      1.0000 0.43651  0.62044  0.60569  Biso   1.000  Cu
  V1       1.0000 0.21579  0.48404  0.24062  Biso   1.000  V
  V2       1.0000 0.78421  0.51596  0.75938  Biso   1.000  V
  V3       1.0000 0.71253  0.47509  0.26235  Biso   1.000  V
  V4       1.0000 0.28747  0.52491  0.73765  Biso   1.000  V
  P1       1.0000 0.03601  0.62855  0.22462  Biso   1.000  P
  P2       1.0000 0.96399  0.37145  0.77538  Biso   1.000  P
  P3       1.0000 0.53335  0.58612  0.35296  Biso   1.000  P
  P4       1.0000 0.46665  0.41388  0.64704  Biso   1.000  P
  P5       1.0000 0.36731  0.31870  0.25377  Biso   1.000  P
  P6       1.0000 0.63269  0.68130  0.74623  Biso   1.000  P
  P7       1.0000 0.87312  0.34713  0.16693  Biso   1.000  P
  P8       1.0000 0.12688  0.65287  0.83307  Biso   1.000  P
  O1       1.0000 0.51920  0.50550  0.39645  Biso   1.000  O
  O2       1.0000 0.48080  0.49450  0.60355  Biso   1.000  O
  O3       1.0000 0.75150  0.43230  0.32830  Biso   1.000  O
  O4       1.0000 0.24850  0.56770  0.67170  Biso   1.000  O
  O5       1.0000 0.40820  0.28620  0.31930  Biso   1.000  O
  O6       1.0000 0.59180  0.71380  0.68070  Biso   1.000  O
  O7       1.0000 0.74020  0.37730  0.18230  Biso   1.000  O
  O8       1.0000 0.25980  0.62270  0.81770  Biso   1.000  O
  O9       1.0000 0.50060  0.39820  0.23314  Biso   1.000  O
  O10      1.0000 0.49940  0.60180  0.76686  Biso   1.000  O
  O11      1.0000 0.65840  0.59580  0.30860  Biso   1.000  O
  O12      1.0000 0.34160  0.40420  0.69140  Biso   1.000  O
  O13      1.0000 0.88930  0.58640  0.25170  Biso   1.000  O
  O14      1.0000 0.11070  0.41360  0.74830  Biso   1.000  O
  O15      1.0000 0.23890  0.35680  0.25996  Biso   1.000  O
  O16      1.0000 0.76110  0.64320  0.74004  Biso   1.000  O
  O17      1.0000 0.38900  0.57210  0.31017  Biso   1.000  O
  O18      1.0000 0.61100  0.42790  0.68983  Biso   1.000  O
  O19      1.0000 0.25770  0.48500  0.16320  Biso   1.000  O
  O20      1.0000 0.74230  0.51500  0.83680  Biso   1.000  O
  O21      1.0000 0.56280  0.74760  0.23590  Biso   1.000  O
  O22      1.0000 0.43720  0.25240  0.76410  Biso   1.000  O
  O23      1.0000 0.00280  0.40180  0.22657  Biso   1.000  O
  O24      1.0000 0.99720  0.59820  0.77343  Biso   1.000  O
  O25      1.0000 0.16190  0.61020  0.26404  Biso   1.000  O
  O26      1.0000 0.83810  0.38980  0.73596  Biso   1.000  O
  O27      1.0000 0.02370  0.59120  0.14530  Biso   1.000  O
  O28      1.0000 0.97630  0.40880  0.85470  Biso   1.000  O
  O29      1.0000 0.91630  0.36180  0.09610  Biso   1.000  O
  O30      1.0000 0.08370  0.63820  0.90390  Biso   1.000  O
  N1       1.0000 0.62160  0.25640  0.40270  Biso   1.000  N
  N2       1.0000 0.37840  0.74360  0.59730  Biso   1.000  N
  N3       1.0000 0.70500  0.44760  0.48440  Biso   1.000  N
  N4       1.0000 0.29500  0.55240  0.51560  Biso   1.000  N
  N5       1.0000 0.21930  0.59780  0.04670  Biso   1.000  N
  N6       1.0000 0.78070  0.40220  0.95330  Biso   1.000  N
  N7       1.0000 0.12510  0.39100  0.00500  Biso   1.000  N
  N8       1.0000 0.87490  0.60900  0.99500  Biso   1.000  N
  C1       1.0000 0.57030  0.15960  0.36220  Biso   1.000  C
  C2       1.0000 0.42970  0.84040  0.63780  Biso   1.000  C
  C3       1.0000 0.62800  0.08310  0.37250  Biso   1.000  C
  C4       1.0000 0.37200  0.91690  0.62750  Biso   1.000  C
  C5       1.0000 0.74120  0.10880  0.42570  Biso   1.000  C
  C6       1.0000 0.25880  0.89120  0.57430  Biso   1.000  C
  H1       1.0000 0.78250  0.05820  0.43230  Biso   1.000  H
  H2       1.0000 0.21750  0.94180  0.56770  Biso   1.000  H
  C7       1.0000 0.79660  0.21120  0.47080  Biso   1.000  C
  C8       1.0000 0.20340  0.78880  0.52920  Biso   1.000  C
  C9       1.0000 0.90860  0.24550  0.53140  Biso   1.000  C
  C10      1.0000 0.09140  0.75450  0.46860  Biso   1.000  C
  H3       1.0000 0.95260  0.19800  0.54180  Biso   1.000  H
  H4       1.0000 0.04740  0.80200  0.45820  Biso   1.000  H
  C11      1.0000 0.95290  0.34490  0.57420  Biso   1.000  C
  C12      1.0000 0.04710  0.65510  0.42580  Biso   1.000  C
  H5       1.0000 0.02750  0.36570  0.61360  Biso   1.000  H
  H6       1.0000 0.97250  0.63430  0.38640  Biso   1.000  H
  C13      1.0000 0.88790  0.41810  0.56010  Biso   1.000  C
  C14      1.0000 0.11210  0.58190  0.43990  Biso   1.000  C
  C15      1.0000 0.92270  0.52060  0.60260  Biso   1.000  C
  C16      1.0000 0.07730  0.47940  0.39740  Biso   1.000  C
  H7       1.0000 0.99750  0.54690  0.64250  Biso   1.000  H
  H8       1.0000 0.00250  0.45310  0.35750  Biso   1.000  H
  C17      1.0000 0.84820  0.58200  0.58630  Biso   1.000  C
  C18      1.0000 0.15180  0.41800  0.41370  Biso   1.000  C
  C19      1.0000 0.73840  0.54290  0.52630  Biso   1.000  C
  C20      1.0000 0.26160  0.45710  0.47370  Biso   1.000  C
  H9       1.0000 0.68700  0.58610  0.51560  Biso   1.000  H
  H10      1.0000 0.31300  0.41390  0.48440  Biso   1.000  H
  C21      1.0000 0.77820  0.38600  0.50110  Biso   1.000  C
  C22      1.0000 0.22180  0.61400  0.49890  Biso   1.000  C
  C23      1.0000 0.73230  0.28220  0.45680  Biso   1.000  C
  C24      1.0000 0.26770  0.71780  0.54320  Biso   1.000  C
  C25      1.0000 0.81290  0.20710  0.16350  Biso   1.000  C
  C26      1.0000 0.18710  0.79290  0.83650  Biso   1.000  C
  C27      1.0000 0.82590  0.17430  0.22500  Biso   1.000  C
  C28      1.0000 0.17410  0.82570  0.77500  Biso   1.000  C
  H11      1.0000 0.86680  0.22570  0.26810  Biso   1.000  H
  H12      1.0000 0.13320  0.77430  0.73190  Biso   1.000  H
  C29      1.0000 0.78000  0.06750  0.22410  Biso   1.000  C
  C30      1.0000 0.22000  0.93250  0.77590  Biso   1.000  C
  C31      1.0000 0.71970  0.99180  0.16110  Biso   1.000  C
  C32      1.0000 0.28030  0.00820  0.83890  Biso   1.000  C
  C33      1.0000 0.70660  0.02410  0.09950  Biso   1.000  C
  C34      1.0000 0.29340  0.97590  0.90050  Biso   1.000  C
  C35      1.0000 0.75300  0.13010  0.10030  Biso   1.000  C
  C36      1.0000 0.24700  0.86990  0.89970  Biso   1.000  C
  H13      1.0000 0.74440  0.15110  0.05770  Biso   1.000  H
  H14      1.0000 0.25560  0.84890  0.94230  Biso   1.000  H
  C37      1.0000 0.58530  0.71360  0.41450  Biso   1.000  C
  C38      1.0000 0.41470  0.28640  0.58550  Biso   1.000  C
  C39      1.0000 0.49210  0.77090  0.41740  Biso   1.000  C
  C40      1.0000 0.50790  0.22910  0.58260  Biso   1.000  C
  H15      1.0000 0.40180  0.74430  0.38600  Biso   1.000  H
  H16      1.0000 0.59820  0.25570  0.61400  Biso   1.000  H
  C41      1.0000 0.53250  0.86730  0.46680  Biso   1.000  C
  C42      1.0000 0.46750  0.13270  0.53320  Biso   1.000  C
  C43      1.0000 0.66230  0.90610  0.51320  Biso   1.000  C
  C44      1.0000 0.33770  0.09390  0.48680  Biso   1.000  C
  C45      1.0000 0.75680  0.85110  0.51000  Biso   1.000  C
  C46      1.0000 0.24320  0.14890  0.49000  Biso   1.000  C
  H17      1.0000 0.84710  0.87850  0.54150  Biso   1.000  H
  H18      1.0000 0.15290  0.12150  0.45850  Biso   1.000  H
  C47      1.0000 0.71890  0.75520  0.46000  Biso   1.000  C
  C48      1.0000 0.28110  0.24480  0.54000  Biso   1.000  C
  H19      1.0000 0.78470  0.71830  0.45720  Biso   1.000  H
  H20      1.0000 0.21530  0.28170  0.54280  Biso   1.000  H
  C49      1.0000 0.30360  0.20180  0.18270  Biso   1.000  C
  C50      1.0000 0.69640  0.79820  0.81730  Biso   1.000  C
  C51      1.0000 0.40330  0.15540  0.15860  Biso   1.000  C
  C52      1.0000 0.59670  0.84460  0.84140  Biso   1.000  C
  H21      1.0000 0.50460  0.18600  0.17920  Biso   1.000  H
  H22      1.0000 0.49540  0.81400  0.82080  Biso   1.000  H
  C53      1.0000 0.35330  0.06450  0.10440  Biso   1.000  C
  C54      1.0000 0.64670  0.93550  0.89560  Biso   1.000  C
  C55      1.0000 0.20590  0.01960  0.07320  Biso   1.000  C
  C56      1.0000 0.79410  0.98040  0.92680  Biso   1.000  C
  C57      1.0000 0.10730  0.06690  0.09610  Biso   1.000  C
  C58      1.0000 0.89270  0.93310  0.90390  Biso   1.000  C
  C59      1.0000 0.15590  0.15820  0.15070  Biso   1.000  C
  C60      1.0000 0.84410  0.84180  0.84930  Biso   1.000  C
  C61      1.0000 0.08440  0.76990  0.24670  Biso   1.000  C
  C62      1.0000 0.91560  0.23010  0.75330  Biso   1.000  C
  C63      1.0000 0.22260  0.83810  0.23740  Biso   1.000  C
  C64      1.0000 0.77740  0.16190  0.76260  Biso   1.000  C
  H23      1.0000 0.29290  0.80980  0.22060  Biso   1.000  H
  H24      1.0000 0.70710  0.19020  0.77940  Biso   1.000  H
  C65      1.0000 0.25760  0.94650  0.25240  Biso   1.000  C
  C66      1.0000 0.74240  0.05350  0.74760  Biso   1.000  C
  H25      1.0000 0.35050  0.99190  0.24450  Biso   1.000  H
  H26      1.0000 0.64950  0.00810  0.75550  Biso   1.000  H
  C67      1.0000 0.15820  0.98860  0.27880  Biso   1.000  C
  C68      1.0000 0.84180  0.01140  0.72120  Biso   1.000  C
  C69      1.0000 0.02400  0.92360  0.29160  Biso   1.000  C
  C70      1.0000 0.97600  0.07640  0.70840  Biso   1.000  C
  H27      1.0000 0.95800  0.95340  0.31190  Biso   1.000  H
  H28      1.0000 0.04200  0.04660  0.68810  Biso   1.000  H
  C71      1.0000 0.98510  0.81370  0.27460  Biso   1.000  C
  C72      1.0000 0.01490  0.18630  0.72540  Biso   1.000  C
  H29      1.0000 0.89150  0.76880  0.28210  Biso   1.000  H
  H30      1.0000 0.10850  0.23120  0.71790  Biso   1.000  H
  C73      1.0000 0.26470  0.70240  0.06970  Biso   1.000  C
  C74      1.0000 0.73530  0.29760  0.93030  Biso   1.000  C
  H31      1.0000 0.21460  0.73110  0.10300  Biso   1.000  H
  H32      1.0000 0.78540  0.26890  0.89700  Biso   1.000  H
  C75      1.0000 0.38370  0.77120  0.04640  Biso   1.000  C
  C76      1.0000 0.61630  0.22880  0.95360  Biso   1.000  C
  H33      1.0000 0.41430  0.84550  0.06440  Biso   1.000  H
  H34      1.0000 0.58570  0.15450  0.93560  Biso   1.000  H
  C77      1.0000 0.45660  0.73230  0.99760  Biso   1.000  C
  C78      1.0000 0.54340  0.26770  0.00240  Biso   1.000  C
  H35      1.0000 0.53740  0.77920  0.98170  Biso   1.000  H
  H36      1.0000 0.46260  0.22080  0.01830  Biso   1.000  H
  C79      1.0000 0.41050  0.62200  0.97140  Biso   1.000  C
  C80      1.0000 0.58950  0.37800  0.02860  Biso   1.000  C
  C81      1.0000 0.47740  0.57120  0.92010  Biso   1.000  C
  C82      1.0000 0.52260  0.42880  0.07990  Biso   1.000  C
  H37      1.0000 0.55990  0.61330  0.90240  Biso   1.000  H
  H38      1.0000 0.44010  0.38670  0.09760  Biso   1.000  H
  C83      1.0000 0.42540  0.46560  0.89680  Biso   1.000  C
  C84      1.0000 0.57460  0.53440  0.10320  Biso   1.000  C
  H39      1.0000 0.47110  0.43410  0.86260  Biso   1.000  H
  H40      1.0000 0.52890  0.56590  0.13740  Biso   1.000  H
  C85      1.0000 0.30140  0.39890  0.92280  Biso   1.000  C
  C86      1.0000 0.69860  0.60110  0.07720  Biso   1.000  C
  C87      1.0000 0.23980  0.28670  0.90060  Biso   1.000  C
  C88      1.0000 0.76020  0.71330  0.09940  Biso   1.000  C
  H41      1.0000 0.27790  0.25050  0.86520  Biso   1.000  H
  H42      1.0000 0.72210  0.74950  0.13480  Biso   1.000  H
  C89      1.0000 0.12550  0.23170  0.93060  Biso   1.000  C
  C90      1.0000 0.87450  0.76830  0.06940  Biso   1.000  C
  H43      1.0000 0.08250  0.15670  0.91580  Biso   1.000  H
  H44      1.0000 0.91750  0.84330  0.08420  Biso   1.000  H
  C91      1.0000 0.07090  0.28600  0.98350  Biso   1.000  C
  C92      1.0000 0.92910  0.71400  0.01650  Biso   1.000  C
  H45      1.0000 0.99270  0.24630  0.00460  Biso   1.000  H
  H46      1.0000 0.00730  0.75370  0.99540  Biso   1.000  H
  C93      1.0000 0.23820  0.44620  0.97450  Biso   1.000  C
  C94      1.0000 0.76180  0.55380  0.02550  Biso   1.000  C
  C95      1.0000 0.29100  0.55890  0.99830  Biso   1.000  C
  C96      1.0000 0.70900  0.44110  0.00170  Biso   1.000  C
  H47      1.0000 0.46300  0.90600  0.47100  Biso   1.000  H
  H48      1.0000 0.53700  0.09400  0.52900  Biso   1.000  H
  H49      1.0000 0.57900  0.01600  0.34200  Biso   1.000  H
  H50      1.0000 0.42100  0.98400  0.65800  Biso   1.000  H
  H51      1.0000 0.48900  0.14300  0.33100  Biso   1.000  H
  H52      1.0000 0.51100  0.85700  0.66900  Biso   1.000  H
  H53      1.0000 0.66600  0.97300  0.06000  Biso   1.000  H
  H54      1.0000 0.33400  0.02700  0.94000  Biso   1.000  H
  H55      1.0000 0.86900  0.64400  0.61400  Biso   1.000  H
  H56      1.0000 0.13100  0.35600  0.38600  Biso   1.000  H
  H57      1.0000 0.07900  0.19300  0.16600  Biso   1.000  H
  H58      1.0000 0.92100  0.80700  0.83400  Biso   1.000  H
  H59      1.0000 0.69700  0.92500  0.16800  Biso   1.000  H
  H60      1.0000 0.30300  0.07500  0.83200  Biso   1.000  H
  H61      1.0000 0.19000  0.06600  0.29000  Biso   1.000  H
  H62      1.0000 0.81000  0.93400  0.71000  Biso   1.000  H
  H63      1.0000 0.78300  0.04500  0.27100  Biso   1.000  H
  H64      1.0000 0.21700  0.95500  0.72900  Biso   1.000  H
  H65      1.0000 0.68800  0.97000  0.54600  Biso   1.000  H
  H66      1.0000 0.31200  0.03000  0.45400  Biso   1.000  H
  H67      1.0000 0.41500  0.03700  0.09400  Biso   1.000  H
  H68      1.0000 0.58500  0.96300  0.90600  Biso   1.000  H
  H69      1.0000 0.17500  0.95800  0.04000  Biso   1.000  H
  H70      1.0000 0.82500  0.04200  0.96000  Biso   1.000  H
  H71      1.0000 0.00800  0.03900  0.07700  Biso   1.000  H
  H72      1.0000 0.99200  0.96100  0.92300  Biso   1.000  H
