data_image0
_cell_length_a       8.809
_cell_length_b       19.9017
_cell_length_c       20.9053
_cell_angle_alpha    90
_cell_angle_beta     90
_cell_angle_gamma    90

_symmetry_space_group_name_H-M    "P 1"
_symmetry_int_tables_number       1

loop_
  _symmetry_equiv_pos_as_xyz
  'x, y, z'

loop_
  _atom_site_label
  _atom_site_occupancy
  _atom_site_fract_x
  _atom_site_fract_y
  _atom_site_fract_z
  _atom_site_thermal_displace_type
  _atom_site_B_iso_or_equiv
  _atom_site_type_symbol
  C1       1.0000 0.22730  0.02862  0.45790  Biso   1.000  C
  C2       1.0000 0.77270  0.47138  0.95790  Biso   1.000  C
  C3       1.0000 0.72730  0.97138  0.04210  Biso   1.000  C
  C4       1.0000 0.27270  0.52862  0.54210  Biso   1.000  C
  C5       1.0000 0.77270  0.97138  0.54210  Biso   1.000  C
  C6       1.0000 0.22730  0.52862  0.04210  Biso   1.000  C
  C7       1.0000 0.27270  0.02862  0.95790  Biso   1.000  C
  C8       1.0000 0.72730  0.47138  0.45790  Biso   1.000  C
  H1       1.0000 0.17980  0.06580  0.43990  Biso   1.000  H
  H2       1.0000 0.82020  0.43420  0.93990  Biso   1.000  H
  H3       1.0000 0.67980  0.93420  0.06010  Biso   1.000  H
  H4       1.0000 0.32020  0.56580  0.56010  Biso   1.000  H
  H5       1.0000 0.82020  0.93420  0.56010  Biso   1.000  H
  H6       1.0000 0.17980  0.56580  0.06010  Biso   1.000  H
  H7       1.0000 0.32020  0.06580  0.93990  Biso   1.000  H
  H8       1.0000 0.67980  0.43420  0.43990  Biso   1.000  H
  C9       1.0000 0.30600  0.98587  0.41827  Biso   1.000  C
  C10      1.0000 0.69400  0.51413  0.91827  Biso   1.000  C
  C11      1.0000 0.80600  0.01413  0.08173  Biso   1.000  C
  C12      1.0000 0.19400  0.48587  0.58173  Biso   1.000  C
  C13      1.0000 0.69400  0.01413  0.58173  Biso   1.000  C
  C14      1.0000 0.30600  0.48587  0.08173  Biso   1.000  C
  C15      1.0000 0.19400  0.98587  0.91827  Biso   1.000  C
  C16      1.0000 0.80600  0.51413  0.41827  Biso   1.000  C
  H9       1.0000 0.31100  0.99420  0.37460  Biso   1.000  H
  H10      1.0000 0.68900  0.50580  0.87460  Biso   1.000  H
  H11      1.0000 0.81100  0.00580  0.12540  Biso   1.000  H
  H12      1.0000 0.18900  0.49420  0.62540  Biso   1.000  H
  H13      1.0000 0.68900  0.00580  0.62540  Biso   1.000  H
  H14      1.0000 0.31100  0.49420  0.12540  Biso   1.000  H
  H15      1.0000 0.18900  0.99420  0.87460  Biso   1.000  H
  H16      1.0000 0.81100  0.50580  0.37460  Biso   1.000  H
  C17      1.0000 0.37700  0.93060  0.44410  Biso   1.000  C
  C18      1.0000 0.62300  0.56940  0.94410  Biso   1.000  C
  C19      1.0000 0.87700  0.06940  0.05590  Biso   1.000  C
  C20      1.0000 0.12300  0.43060  0.55590  Biso   1.000  C
  C21      1.0000 0.62300  0.06940  0.55590  Biso   1.000  C
  C22      1.0000 0.37700  0.43060  0.05590  Biso   1.000  C
  C23      1.0000 0.12300  0.93060  0.94410  Biso   1.000  C
  C24      1.0000 0.87700  0.56940  0.44410  Biso   1.000  C
  H17      1.0000 0.43190  0.90120  0.41830  Biso   1.000  H
  H18      1.0000 0.56810  0.59880  0.91830  Biso   1.000  H
  H19      1.0000 0.93190  0.09880  0.08170  Biso   1.000  H
  H20      1.0000 0.06810  0.40120  0.58170  Biso   1.000  H
  H21      1.0000 0.56810  0.09880  0.58170  Biso   1.000  H
  H22      1.0000 0.43190  0.40120  0.08170  Biso   1.000  H
  H23      1.0000 0.06810  0.90120  0.91830  Biso   1.000  H
  H24      1.0000 0.93190  0.59880  0.41830  Biso   1.000  H
  C25      1.0000 0.36520  0.91991  0.50810  Biso   1.000  C
  C26      1.0000 0.63480  0.58009  0.00810  Biso   1.000  C
  C27      1.0000 0.86520  0.08009  0.99190  Biso   1.000  C
  C28      1.0000 0.13480  0.41991  0.49190  Biso   1.000  C
  C29      1.0000 0.63480  0.08009  0.49190  Biso   1.000  C
  C30      1.0000 0.36520  0.41991  0.99190  Biso   1.000  C
  C31      1.0000 0.13480  0.91991  0.00810  Biso   1.000  C
  C32      1.0000 0.86520  0.58009  0.50810  Biso   1.000  C
  H25      1.0000 0.41190  0.88290  0.52680  Biso   1.000  H
  H26      1.0000 0.58810  0.61710  0.02680  Biso   1.000  H
  H27      1.0000 0.91190  0.11710  0.97320  Biso   1.000  H
  H28      1.0000 0.08810  0.38290  0.47320  Biso   1.000  H
  H29      1.0000 0.58810  0.11710  0.47320  Biso   1.000  H
  H30      1.0000 0.41190  0.38290  0.97320  Biso   1.000  H
  H31      1.0000 0.08810  0.88290  0.02680  Biso   1.000  H
  H32      1.0000 0.91190  0.61710  0.52680  Biso   1.000  H
  C33      1.0000 0.28300  0.96455  0.54523  Biso   1.000  C
  C34      1.0000 0.71700  0.53545  0.04523  Biso   1.000  C
  C35      1.0000 0.78300  0.03545  0.95477  Biso   1.000  C
  C36      1.0000 0.21700  0.46455  0.45477  Biso   1.000  C
  C37      1.0000 0.71700  0.03545  0.45477  Biso   1.000  C
  C38      1.0000 0.28300  0.46455  0.95477  Biso   1.000  C
  C39      1.0000 0.21700  0.96455  0.04523  Biso   1.000  C
  C40      1.0000 0.78300  0.53545  0.54523  Biso   1.000  C
  H33      1.0000 0.27420  0.95610  0.58880  Biso   1.000  H
  H34      1.0000 0.72580  0.54390  0.08880  Biso   1.000  H
  H35      1.0000 0.77420  0.04390  0.91120  Biso   1.000  H
  H36      1.0000 0.22580  0.45610  0.41120  Biso   1.000  H
  H37      1.0000 0.72580  0.04390  0.41120  Biso   1.000  H
  H38      1.0000 0.27420  0.45610  0.91120  Biso   1.000  H
  H39      1.0000 0.22580  0.95610  0.08880  Biso   1.000  H
  H40      1.0000 0.77420  0.54390  0.58880  Biso   1.000  H
  C41      1.0000 0.12570  0.09736  0.71225  Biso   1.000  C
  C42      1.0000 0.87430  0.40264  0.21225  Biso   1.000  C
  C43      1.0000 0.62570  0.90264  0.78775  Biso   1.000  C
  C44      1.0000 0.37430  0.59736  0.28775  Biso   1.000  C
  C45      1.0000 0.87430  0.90264  0.28775  Biso   1.000  C
  C46      1.0000 0.12570  0.59736  0.78775  Biso   1.000  C
  C47      1.0000 0.37430  0.09736  0.21225  Biso   1.000  C
  C48      1.0000 0.62570  0.40264  0.71225  Biso   1.000  C
  H41      1.0000 0.18830  0.13700  0.71790  Biso   1.000  H
  H42      1.0000 0.81170  0.36300  0.21790  Biso   1.000  H
  H43      1.0000 0.68830  0.86300  0.78210  Biso   1.000  H
  H44      1.0000 0.31170  0.63700  0.28210  Biso   1.000  H
  H45      1.0000 0.81170  0.86300  0.28210  Biso   1.000  H
  H46      1.0000 0.18830  0.63700  0.78210  Biso   1.000  H
  H47      1.0000 0.31170  0.13700  0.21790  Biso   1.000  H
  H48      1.0000 0.68830  0.36300  0.71790  Biso   1.000  H
  H49      1.0000 0.12580  0.07220  0.75200  Biso   1.000  H
  H50      1.0000 0.87420  0.42780  0.25200  Biso   1.000  H
  H51      1.0000 0.62580  0.92780  0.74800  Biso   1.000  H
  H52      1.0000 0.37420  0.57220  0.24800  Biso   1.000  H
  H53      1.0000 0.87420  0.92780  0.24800  Biso   1.000  H
  H54      1.0000 0.12580  0.57220  0.74800  Biso   1.000  H
  H55      1.0000 0.37420  0.07220  0.25200  Biso   1.000  H
  H56      1.0000 0.62580  0.42780  0.75200  Biso   1.000  H
  C49      1.0000 0.96670  0.11746  0.69521  Biso   1.000  C
  C50      1.0000 0.03330  0.38254  0.19521  Biso   1.000  C
  C51      1.0000 0.46670  0.88254  0.80479  Biso   1.000  C
  C52      1.0000 0.53330  0.61746  0.30479  Biso   1.000  C
  C53      1.0000 0.03330  0.88254  0.30479  Biso   1.000  C
  C54      1.0000 0.96670  0.61746  0.80479  Biso   1.000  C
  C55      1.0000 0.53330  0.11746  0.19521  Biso   1.000  C
  C56      1.0000 0.46670  0.38254  0.69521  Biso   1.000  C
  H57      1.0000 0.89970  0.07890  0.69750  Biso   1.000  H
  H58      1.0000 0.10030  0.42110  0.19750  Biso   1.000  H
  H59      1.0000 0.39970  0.92110  0.80250  Biso   1.000  H
  H60      1.0000 0.60030  0.57890  0.30250  Biso   1.000  H
  H61      1.0000 0.10030  0.92110  0.30250  Biso   1.000  H
  H62      1.0000 0.89970  0.57890  0.80250  Biso   1.000  H
  H63      1.0000 0.60030  0.07890  0.19750  Biso   1.000  H
  H64      1.0000 0.39970  0.42110  0.69750  Biso   1.000  H
  H65      1.0000 0.93010  0.15140  0.72470  Biso   1.000  H
  H66      1.0000 0.06990  0.34860  0.22470  Biso   1.000  H
  H67      1.0000 0.43010  0.84860  0.77530  Biso   1.000  H
  H68      1.0000 0.56990  0.65140  0.27530  Biso   1.000  H
  H69      1.0000 0.06990  0.84860  0.27530  Biso   1.000  H
  H70      1.0000 0.93010  0.65140  0.77530  Biso   1.000  H
  H71      1.0000 0.56990  0.15140  0.22470  Biso   1.000  H
  H72      1.0000 0.43010  0.34860  0.72470  Biso   1.000  H
  C57      1.0000 0.76560  0.22163  0.65805  Biso   1.000  C
  C58      1.0000 0.23440  0.27837  0.15805  Biso   1.000  C
  C59      1.0000 0.26560  0.77837  0.84195  Biso   1.000  C
  C60      1.0000 0.73440  0.72163  0.34195  Biso   1.000  C
  C61      1.0000 0.23440  0.77837  0.34195  Biso   1.000  C
  C62      1.0000 0.76560  0.72163  0.84195  Biso   1.000  C
  C63      1.0000 0.73440  0.22163  0.15805  Biso   1.000  C
  C64      1.0000 0.26560  0.27837  0.65805  Biso   1.000  C
  H73      1.0000 0.72380  0.18590  0.68340  Biso   1.000  H
  H74      1.0000 0.27620  0.31410  0.18340  Biso   1.000  H
  H75      1.0000 0.22380  0.81410  0.81660  Biso   1.000  H
  H76      1.0000 0.77620  0.68590  0.31660  Biso   1.000  H
  H77      1.0000 0.27620  0.81410  0.31660  Biso   1.000  H
  H78      1.0000 0.72380  0.68590  0.81660  Biso   1.000  H
  H79      1.0000 0.77620  0.18590  0.18340  Biso   1.000  H
  H80      1.0000 0.22380  0.31410  0.68340  Biso   1.000  H
  H81      1.0000 0.68610  0.24260  0.63380  Biso   1.000  H
  H82      1.0000 0.31390  0.25740  0.13380  Biso   1.000  H
  H83      1.0000 0.18610  0.75740  0.86620  Biso   1.000  H
  H84      1.0000 0.81390  0.74260  0.36620  Biso   1.000  H
  H85      1.0000 0.31390  0.75740  0.36620  Biso   1.000  H
  H86      1.0000 0.68610  0.74260  0.86620  Biso   1.000  H
  H87      1.0000 0.81390  0.24260  0.13380  Biso   1.000  H
  H88      1.0000 0.18610  0.25740  0.63380  Biso   1.000  H
  H89      1.0000 0.81210  0.25430  0.68560  Biso   1.000  H
  H90      1.0000 0.18790  0.24570  0.18560  Biso   1.000  H
  H91      1.0000 0.31210  0.74570  0.81440  Biso   1.000  H
  H92      1.0000 0.68790  0.75430  0.31440  Biso   1.000  H
  H93      1.0000 0.18790  0.74570  0.31440  Biso   1.000  H
  H94      1.0000 0.81210  0.75430  0.81440  Biso   1.000  H
  H95      1.0000 0.68790  0.25430  0.18560  Biso   1.000  H
  H96      1.0000 0.31210  0.24570  0.68560  Biso   1.000  H
  C65      1.0000 0.88340  0.19342  0.61287  Biso   1.000  C
  C66      1.0000 0.11660  0.30658  0.11287  Biso   1.000  C
  C67      1.0000 0.38340  0.80658  0.88713  Biso   1.000  C
  C68      1.0000 0.61660  0.69342  0.38713  Biso   1.000  C
  C69      1.0000 0.11660  0.80658  0.38713  Biso   1.000  C
  C70      1.0000 0.88340  0.69342  0.88713  Biso   1.000  C
  C71      1.0000 0.61660  0.19342  0.11287  Biso   1.000  C
  C72      1.0000 0.38340  0.30658  0.61287  Biso   1.000  C
  C73      1.0000 0.89150  0.21966  0.54728  Biso   1.000  C
  C74      1.0000 0.10850  0.28034  0.04728  Biso   1.000  C
  C75      1.0000 0.39150  0.78034  0.95272  Biso   1.000  C
  C76      1.0000 0.60850  0.71966  0.45272  Biso   1.000  C
  C77      1.0000 0.10850  0.78034  0.45272  Biso   1.000  C
  C78      1.0000 0.89150  0.71966  0.95272  Biso   1.000  C
  C79      1.0000 0.60850  0.21966  0.04728  Biso   1.000  C
  C80      1.0000 0.39150  0.28034  0.54728  Biso   1.000  C
  C81      1.0000 0.83970  0.28666  0.53460  Biso   1.000  C
  C82      1.0000 0.16030  0.21334  0.03460  Biso   1.000  C
  C83      1.0000 0.33970  0.71334  0.96540  Biso   1.000  C
  C84      1.0000 0.66030  0.78666  0.46540  Biso   1.000  C
  C85      1.0000 0.16030  0.71334  0.46540  Biso   1.000  C
  C86      1.0000 0.83970  0.78666  0.96540  Biso   1.000  C
  C87      1.0000 0.66030  0.28666  0.03460  Biso   1.000  C
  C88      1.0000 0.33970  0.21334  0.53460  Biso   1.000  C
  C89      1.0000 0.87560  0.26748  0.42205  Biso   1.000  C
  C90      1.0000 0.12440  0.23252  0.92205  Biso   1.000  C
  C91      1.0000 0.37560  0.73252  0.07795  Biso   1.000  C
  C92      1.0000 0.62440  0.76748  0.57795  Biso   1.000  C
  C93      1.0000 0.12440  0.73252  0.57795  Biso   1.000  C
  C94      1.0000 0.87560  0.76748  0.07795  Biso   1.000  C
  C95      1.0000 0.62440  0.26748  0.92205  Biso   1.000  C
  C96      1.0000 0.37560  0.23252  0.42205  Biso   1.000  C
  C97      1.0000 0.85400  0.30120  0.35880  Biso   1.000  C
  C98      1.0000 0.14600  0.19880  0.85880  Biso   1.000  C
  C99      1.0000 0.35400  0.69880  0.14120  Biso   1.000  C
  C100     1.0000 0.64600  0.80120  0.64120  Biso   1.000  C
  C101     1.0000 0.14600  0.69880  0.64120  Biso   1.000  C
  C102     1.0000 0.85400  0.80120  0.14120  Biso   1.000  C
  C103     1.0000 0.64600  0.30120  0.85880  Biso   1.000  C
  C104     1.0000 0.35400  0.19880  0.35880  Biso   1.000  C
  H97      1.0000 0.92030  0.33940  0.35590  Biso   1.000  H
  H98      1.0000 0.07970  0.16060  0.85590  Biso   1.000  H
  H99      1.0000 0.42030  0.66060  0.14410  Biso   1.000  H
  H100     1.0000 0.57970  0.83940  0.64410  Biso   1.000  H
  H101     1.0000 0.07970  0.66060  0.64410  Biso   1.000  H
  H102     1.0000 0.92030  0.83940  0.14410  Biso   1.000  H
  H103     1.0000 0.57970  0.33940  0.85590  Biso   1.000  H
  H104     1.0000 0.42030  0.16060  0.35590  Biso   1.000  H
  H105     1.0000 0.75050  0.31580  0.35490  Biso   1.000  H
  H106     1.0000 0.24950  0.18420  0.85490  Biso   1.000  H
  H107     1.0000 0.25050  0.68420  0.14510  Biso   1.000  H
  H108     1.0000 0.74950  0.81580  0.64510  Biso   1.000  H
  H109     1.0000 0.24950  0.68420  0.64510  Biso   1.000  H
  H110     1.0000 0.75050  0.81580  0.14510  Biso   1.000  H
  H111     1.0000 0.74950  0.31580  0.85490  Biso   1.000  H
  H112     1.0000 0.25050  0.18420  0.35490  Biso   1.000  H
  H113     1.0000 0.87720  0.27020  0.32510  Biso   1.000  H
  H114     1.0000 0.12280  0.22980  0.82510  Biso   1.000  H
  H115     1.0000 0.37720  0.72980  0.17490  Biso   1.000  H
  H116     1.0000 0.62280  0.77020  0.67490  Biso   1.000  H
  H117     1.0000 0.12280  0.72980  0.67490  Biso   1.000  H
  H118     1.0000 0.87720  0.77020  0.17490  Biso   1.000  H
  H119     1.0000 0.62280  0.27020  0.82510  Biso   1.000  H
  H120     1.0000 0.37720  0.22980  0.32510  Biso   1.000  H
  C105     1.0000 0.93000  0.20627  0.43217  Biso   1.000  C
  C106     1.0000 0.07000  0.29373  0.93217  Biso   1.000  C
  C107     1.0000 0.43000  0.79373  0.06783  Biso   1.000  C
  C108     1.0000 0.57000  0.70627  0.56783  Biso   1.000  C
  C109     1.0000 0.07000  0.79373  0.56783  Biso   1.000  C
  C110     1.0000 0.93000  0.70627  0.06783  Biso   1.000  C
  C111     1.0000 0.57000  0.20627  0.93217  Biso   1.000  C
  C112     1.0000 0.43000  0.29373  0.43217  Biso   1.000  C
  H121     1.0000 0.95830  0.17980  0.39750  Biso   1.000  H
  H122     1.0000 0.04170  0.32020  0.89750  Biso   1.000  H
  H123     1.0000 0.45830  0.82020  0.10250  Biso   1.000  H
  H124     1.0000 0.54170  0.67980  0.60250  Biso   1.000  H
  H125     1.0000 0.04170  0.82020  0.60250  Biso   1.000  H
  H126     1.0000 0.95830  0.67980  0.10250  Biso   1.000  H
  H127     1.0000 0.54170  0.17980  0.89750  Biso   1.000  H
  H128     1.0000 0.45830  0.32020  0.39750  Biso   1.000  H
  C113     1.0000 0.94590  0.18023  0.49603  Biso   1.000  C
  C114     1.0000 0.05410  0.31977  0.99603  Biso   1.000  C
  C115     1.0000 0.44590  0.81977  0.00397  Biso   1.000  C
  C116     1.0000 0.55410  0.68023  0.50397  Biso   1.000  C
  C117     1.0000 0.05410  0.81977  0.50397  Biso   1.000  C
  C118     1.0000 0.94590  0.68023  0.00397  Biso   1.000  C
  C119     1.0000 0.55410  0.18023  0.99603  Biso   1.000  C
  C120     1.0000 0.44590  0.31977  0.49603  Biso   1.000  C
  N1       1.0000 0.21580  0.01933  0.52137  Biso   1.000  N
  N2       1.0000 0.78420  0.48067  0.02137  Biso   1.000  N
  N3       1.0000 0.71580  0.98067  0.97863  Biso   1.000  N
  N4       1.0000 0.28420  0.51933  0.47863  Biso   1.000  N
  N5       1.0000 0.78420  0.98067  0.47863  Biso   1.000  N
  N6       1.0000 0.21580  0.51933  0.97863  Biso   1.000  N
  N7       1.0000 0.28420  0.01933  0.02137  Biso   1.000  N
  N8       1.0000 0.71580  0.48067  0.52137  Biso   1.000  N
  N9       1.0000 0.18690  0.05540  0.65998  Biso   1.000  N
  N10      1.0000 0.81310  0.44460  0.15998  Biso   1.000  N
  N11      1.0000 0.68690  0.94460  0.84002  Biso   1.000  N
  N12      1.0000 0.31310  0.55540  0.34002  Biso   1.000  N
  N13      1.0000 0.81310  0.94460  0.34002  Biso   1.000  N
  N14      1.0000 0.18690  0.55540  0.84002  Biso   1.000  N
  N15      1.0000 0.31310  0.05540  0.15998  Biso   1.000  N
  N16      1.0000 0.68690  0.44460  0.65998  Biso   1.000  N
  H129     1.0000 0.15820  0.01240  0.66550  Biso   1.000  H
  H130     1.0000 0.84180  0.48760  0.16550  Biso   1.000  H
  H131     1.0000 0.65820  0.98760  0.83450  Biso   1.000  H
  H132     1.0000 0.34180  0.51240  0.33450  Biso   1.000  H
  H133     1.0000 0.84180  0.98760  0.33450  Biso   1.000  H
  H134     1.0000 0.15820  0.51240  0.83450  Biso   1.000  H
  H135     1.0000 0.34180  0.01240  0.16550  Biso   1.000  H
  H136     1.0000 0.65820  0.48760  0.66550  Biso   1.000  H
  H137     1.0000 0.28900  0.05700  0.66020  Biso   1.000  H
  H138     1.0000 0.71100  0.44300  0.16020  Biso   1.000  H
  H139     1.0000 0.78900  0.94300  0.83980  Biso   1.000  H
  H140     1.0000 0.21100  0.55700  0.33980  Biso   1.000  H
  H141     1.0000 0.71100  0.94300  0.33980  Biso   1.000  H
  H142     1.0000 0.28900  0.55700  0.83980  Biso   1.000  H
  H143     1.0000 0.21100  0.05700  0.16020  Biso   1.000  H
  H144     1.0000 0.78900  0.44300  0.66020  Biso   1.000  H
  N17      1.0000 0.97000  0.14435  0.62977  Biso   1.000  N
  N18      1.0000 0.03000  0.35565  0.12977  Biso   1.000  N
  N19      1.0000 0.47000  0.85565  0.87023  Biso   1.000  N
  N20      1.0000 0.53000  0.64435  0.37023  Biso   1.000  N
  N21      1.0000 0.03000  0.85565  0.37023  Biso   1.000  N
  N22      1.0000 0.97000  0.64435  0.87023  Biso   1.000  N
  N23      1.0000 0.53000  0.14435  0.12977  Biso   1.000  N
  N24      1.0000 0.47000  0.35565  0.62977  Biso   1.000  N
  O1       1.0000 0.00660  0.12212  0.50150  Biso   1.000  O
  O2       1.0000 0.99340  0.37788  0.00150  Biso   1.000  O
  O3       1.0000 0.50660  0.87788  0.99850  Biso   1.000  O
  O4       1.0000 0.49340  0.62212  0.49850  Biso   1.000  O
  O5       1.0000 0.99340  0.87788  0.49850  Biso   1.000  O
  O6       1.0000 0.00660  0.62212  0.99850  Biso   1.000  O
  O7       1.0000 0.49340  0.12212  0.00150  Biso   1.000  O
  O8       1.0000 0.50660  0.37788  0.50150  Biso   1.000  O
  O9       1.0000 0.83160  0.30769  0.47159  Biso   1.000  O
  O10      1.0000 0.16840  0.19231  0.97159  Biso   1.000  O
  O11      1.0000 0.33160  0.69231  0.02841  Biso   1.000  O
  O12      1.0000 0.66840  0.80769  0.52841  Biso   1.000  O
  O13      1.0000 0.16840  0.69231  0.52841  Biso   1.000  O
  O14      1.0000 0.83160  0.80769  0.02841  Biso   1.000  O
  O15      1.0000 0.66840  0.30769  0.97159  Biso   1.000  O
  O16      1.0000 0.33160  0.19231  0.47159  Biso   1.000  O
  O17      1.0000 0.80500  0.33001  0.57362  Biso   1.000  O
  O18      1.0000 0.19500  0.16999  0.07362  Biso   1.000  O
  O19      1.0000 0.30500  0.66999  0.92638  Biso   1.000  O
  O20      1.0000 0.69500  0.83001  0.42638  Biso   1.000  O
  O21      1.0000 0.19500  0.66999  0.42638  Biso   1.000  O
  O22      1.0000 0.80500  0.83001  0.92638  Biso   1.000  O
  O23      1.0000 0.69500  0.33001  0.07362  Biso   1.000  O
  O24      1.0000 0.30500  0.16999  0.57362  Biso   1.000  O
  Cu1      1.0000 0.10791  0.08986  0.57643  Biso   1.000  Cu
  Cu2      1.0000 0.89209  0.41014  0.07643  Biso   1.000  Cu
  Cu3      1.0000 0.60791  0.91014  0.92357  Biso   1.000  Cu
  Cu4      1.0000 0.39209  0.58986  0.42357  Biso   1.000  Cu
  Cu5      1.0000 0.89209  0.91014  0.42357  Biso   1.000  Cu
  Cu6      1.0000 0.10791  0.58986  0.92357  Biso   1.000  Cu
  Cu7      1.0000 0.39209  0.08986  0.07643  Biso   1.000  Cu
  Cu8      1.0000 0.60791  0.41014  0.57643  Biso   1.000  Cu
  O25      1.0000 0.82220  0.09728  0.29504  Biso   1.000  O
  O26      1.0000 0.17780  0.40272  0.79504  Biso   1.000  O
  O27      1.0000 0.32220  0.90272  0.20496  Biso   1.000  O
  O28      1.0000 0.67780  0.59728  0.70496  Biso   1.000  O
  O29      1.0000 0.17780  0.90272  0.70496  Biso   1.000  O
  O30      1.0000 0.82220  0.59728  0.20496  Biso   1.000  O
  O31      1.0000 0.67780  0.09728  0.79504  Biso   1.000  O
  O32      1.0000 0.32220  0.40272  0.29504  Biso   1.000  O
  O33      1.0000 0.02410  0.16739  0.26635  Biso   1.000  O
  O34      1.0000 0.97590  0.33261  0.76635  Biso   1.000  O
  O35      1.0000 0.52410  0.83261  0.23365  Biso   1.000  O
  O36      1.0000 0.47590  0.66739  0.73365  Biso   1.000  O
  O37      1.0000 0.97590  0.83261  0.73365  Biso   1.000  O
  O38      1.0000 0.02410  0.66739  0.23365  Biso   1.000  O
  O39      1.0000 0.47590  0.16739  0.76635  Biso   1.000  O
  O40      1.0000 0.52410  0.33261  0.26635  Biso   1.000  O
  O41      1.0000 0.97900  0.06891  0.21098  Biso   1.000  O
  O42      1.0000 0.02100  0.43109  0.71098  Biso   1.000  O
  O43      1.0000 0.47900  0.93109  0.28902  Biso   1.000  O
  O44      1.0000 0.52100  0.56891  0.78902  Biso   1.000  O
  O45      1.0000 0.02100  0.93109  0.78902  Biso   1.000  O
  O46      1.0000 0.97900  0.56891  0.28902  Biso   1.000  O
  O47      1.0000 0.52100  0.06891  0.71098  Biso   1.000  O
  O48      1.0000 0.47900  0.43109  0.21098  Biso   1.000  O
  O49      1.0000 0.07010  0.06507  0.31535  Biso   1.000  O
  O50      1.0000 0.92990  0.43493  0.81535  Biso   1.000  O
  O51      1.0000 0.57010  0.93493  0.18465  Biso   1.000  O
  O52      1.0000 0.42990  0.56507  0.68465  Biso   1.000  O
  O53      1.0000 0.92990  0.93493  0.68465  Biso   1.000  O
  O54      1.0000 0.07010  0.56507  0.18465  Biso   1.000  O
  O55      1.0000 0.42990  0.06507  0.81535  Biso   1.000  O
  O56      1.0000 0.57010  0.43493  0.31535  Biso   1.000  O
  Cl1      1.0000 0.97483  0.09943  0.27165  Biso   1.000  Cl
  Cl2      1.0000 0.02517  0.40057  0.77165  Biso   1.000  Cl
  Cl3      1.0000 0.47483  0.90057  0.22835  Biso   1.000  Cl
  Cl4      1.0000 0.52517  0.59943  0.72835  Biso   1.000  Cl
  Cl5      1.0000 0.02517  0.90057  0.72835  Biso   1.000  Cl
  Cl6      1.0000 0.97483  0.59943  0.22835  Biso   1.000  Cl
  Cl7      1.0000 0.52517  0.09943  0.77165  Biso   1.000  Cl
  Cl8      1.0000 0.47483  0.40057  0.27165  Biso   1.000  Cl
