data_image0
_cell_length_a       9.9545
_cell_length_b       12.5791
_cell_length_c       24.7887
_cell_angle_alpha    90
_cell_angle_beta     90
_cell_angle_gamma    90

_symmetry_space_group_name_H-M    "P 1"
_symmetry_int_tables_number       1

loop_
  _symmetry_equiv_pos_as_xyz
  'x, y, z'

loop_
  _atom_site_label
  _atom_site_occupancy
  _atom_site_fract_x
  _atom_site_fract_y
  _atom_site_fract_z
  _atom_site_thermal_displace_type
  _atom_site_B_iso_or_equiv
  _atom_site_type_symbol
  Cu1      1.0000 0.37467  0.57400  0.29863  Biso   1.000  Cu
  Cu2      1.0000 0.12533  0.42600  0.79863  Biso   1.000  Cu
  Cu3      1.0000 0.62533  0.07400  0.20137  Biso   1.000  Cu
  Cu4      1.0000 0.87467  0.92600  0.70137  Biso   1.000  Cu
  N1       1.0000 0.33480  0.57590  0.22012  Biso   1.000  N
  N2       1.0000 0.16520  0.42410  0.72012  Biso   1.000  N
  N3       1.0000 0.66520  0.07590  0.27988  Biso   1.000  N
  N4       1.0000 0.83480  0.92410  0.77988  Biso   1.000  N
  H1       1.0000 0.29930  0.51140  0.21000  Biso   1.000  H
  H2       1.0000 0.20070  0.48860  0.71000  Biso   1.000  H
  H3       1.0000 0.70070  0.01140  0.29000  Biso   1.000  H
  H4       1.0000 0.79930  0.98860  0.79000  Biso   1.000  H
  H5       1.0000 0.27190  0.62760  0.21300  Biso   1.000  H
  H6       1.0000 0.22810  0.37240  0.71300  Biso   1.000  H
  H7       1.0000 0.72810  0.12760  0.28700  Biso   1.000  H
  H8       1.0000 0.77190  0.87240  0.78700  Biso   1.000  H
  O1       1.0000 0.56380  0.56410  0.27408  Biso   1.000  O
  O2       1.0000 0.93620  0.43590  0.77408  Biso   1.000  O
  O3       1.0000 0.43620  0.06410  0.22592  Biso   1.000  O
  O4       1.0000 0.06380  0.93590  0.72592  Biso   1.000  O
  O5       1.0000 0.69170  0.59870  0.20240  Biso   1.000  O
  O6       1.0000 0.80830  0.40130  0.70240  Biso   1.000  O
  O7       1.0000 0.30830  0.09870  0.29760  Biso   1.000  O
  O8       1.0000 0.19170  0.90130  0.79760  Biso   1.000  O
  C1       1.0000 0.58050  0.58640  0.22519  Biso   1.000  C
  C2       1.0000 0.91950  0.41360  0.72519  Biso   1.000  C
  C3       1.0000 0.41950  0.08640  0.27481  Biso   1.000  C
  C4       1.0000 0.08050  0.91360  0.77481  Biso   1.000  C
  C5       1.0000 0.45810  0.59720  0.18821  Biso   1.000  C
  C6       1.0000 0.04190  0.40280  0.68821  Biso   1.000  C
  C7       1.0000 0.54190  0.09720  0.31179  Biso   1.000  C
  C8       1.0000 0.95810  0.90280  0.81179  Biso   1.000  C
  H9       1.0000 0.46500  0.54190  0.15940  Biso   1.000  H
  H10      1.0000 0.03500  0.45810  0.65940  Biso   1.000  H
  H11      1.0000 0.53500  0.04190  0.34060  Biso   1.000  H
  H12      1.0000 0.96500  0.95810  0.84060  Biso   1.000  H
  C9       1.0000 0.45510  0.70560  0.16128  Biso   1.000  C
  C10      1.0000 0.04490  0.29440  0.66128  Biso   1.000  C
  C11      1.0000 0.54490  0.20560  0.33872  Biso   1.000  C
  C12      1.0000 0.95510  0.79440  0.83872  Biso   1.000  C
  H13      1.0000 0.54600  0.72260  0.14750  Biso   1.000  H
  H14      1.0000 0.95400  0.27740  0.64750  Biso   1.000  H
  H15      1.0000 0.45400  0.22260  0.35250  Biso   1.000  H
  H16      1.0000 0.04600  0.77740  0.85250  Biso   1.000  H
  H17      1.0000 0.43110  0.76010  0.18850  Biso   1.000  H
  H18      1.0000 0.06890  0.23990  0.68850  Biso   1.000  H
  H19      1.0000 0.56890  0.26010  0.31150  Biso   1.000  H
  H20      1.0000 0.93110  0.73990  0.81150  Biso   1.000  H
  C13      1.0000 0.35520  0.71100  0.11475  Biso   1.000  C
  C14      1.0000 0.14480  0.28900  0.61475  Biso   1.000  C
  C15      1.0000 0.64480  0.21100  0.38525  Biso   1.000  C
  C16      1.0000 0.85520  0.78900  0.88525  Biso   1.000  C
  C17      1.0000 0.38680  0.66500  0.06512  Biso   1.000  C
  C18      1.0000 0.11320  0.33500  0.56512  Biso   1.000  C
  C19      1.0000 0.61320  0.16500  0.43488  Biso   1.000  C
  C20      1.0000 0.88680  0.83500  0.93488  Biso   1.000  C
  H21      1.0000 0.46910  0.62780  0.06070  Biso   1.000  H
  H22      1.0000 0.03090  0.37220  0.56070  Biso   1.000  H
  H23      1.0000 0.53090  0.12780  0.43930  Biso   1.000  H
  H24      1.0000 0.96910  0.87220  0.93930  Biso   1.000  H
  C21      1.0000 0.29780  0.67370  0.02215  Biso   1.000  C
  C22      1.0000 0.20220  0.32630  0.52215  Biso   1.000  C
  C23      1.0000 0.70220  0.17370  0.47785  Biso   1.000  C
  C24      1.0000 0.79780  0.82630  0.97785  Biso   1.000  C
  H25      1.0000 0.31990  0.64250  0.98840  Biso   1.000  H
  H26      1.0000 0.18010  0.35750  0.48840  Biso   1.000  H
  H27      1.0000 0.68010  0.14250  0.51160  Biso   1.000  H
  H28      1.0000 0.81990  0.85750  0.01160  Biso   1.000  H
  C25      1.0000 0.17740  0.72730  0.02807  Biso   1.000  C
  C26      1.0000 0.32260  0.27270  0.52807  Biso   1.000  C
  C27      1.0000 0.82260  0.22730  0.47193  Biso   1.000  C
  C28      1.0000 0.67740  0.77270  0.97193  Biso   1.000  C
  H29      1.0000 0.11750  0.73370  0.99840  Biso   1.000  H
  H30      1.0000 0.38250  0.26630  0.49840  Biso   1.000  H
  H31      1.0000 0.88250  0.23370  0.50160  Biso   1.000  H
  H32      1.0000 0.61750  0.76630  0.00160  Biso   1.000  H
  C29      1.0000 0.14500  0.77130  0.07734  Biso   1.000  C
  C30      1.0000 0.35500  0.22870  0.57734  Biso   1.000  C
  C31      1.0000 0.85500  0.27130  0.42266  Biso   1.000  C
  C32      1.0000 0.64500  0.72870  0.92266  Biso   1.000  C
  H33      1.0000 0.06180  0.80720  0.08170  Biso   1.000  H
  H34      1.0000 0.43820  0.19280  0.58170  Biso   1.000  H
  H35      1.0000 0.93820  0.30720  0.41830  Biso   1.000  H
  H36      1.0000 0.56180  0.69280  0.91830  Biso   1.000  H
  C33      1.0000 0.23260  0.76350  0.12053  Biso   1.000  C
  C34      1.0000 0.26740  0.23650  0.62053  Biso   1.000  C
  C35      1.0000 0.76740  0.26350  0.37947  Biso   1.000  C
  C36      1.0000 0.73260  0.73650  0.87947  Biso   1.000  C
  H37      1.0000 0.20910  0.79410  0.15430  Biso   1.000  H
  H38      1.0000 0.29090  0.20590  0.65430  Biso   1.000  H
  H39      1.0000 0.79090  0.29410  0.34570  Biso   1.000  H
  H40      1.0000 0.70910  0.70590  0.84570  Biso   1.000  H
  Cu5      1.0000 0.87919  0.59420  0.22585  Biso   1.000  Cu
  Cu6      1.0000 0.62081  0.40580  0.72585  Biso   1.000  Cu
  Cu7      1.0000 0.12081  0.09420  0.27415  Biso   1.000  Cu
  Cu8      1.0000 0.37919  0.90580  0.77415  Biso   1.000  Cu
  O9       1.0000 0.87880  0.41380  0.25759  Biso   1.000  O
  O10      1.0000 0.62120  0.58620  0.75759  Biso   1.000  O
  O11      1.0000 0.12120  0.91380  0.24241  Biso   1.000  O
  O12      1.0000 0.37880  0.08620  0.74241  Biso   1.000  O
  H41      1.0000 0.96000  0.39100  0.27110  Biso   1.000  H
  H42      1.0000 0.54000  0.60900  0.77110  Biso   1.000  H
  H43      1.0000 0.04000  0.89100  0.22890  Biso   1.000  H
  H44      1.0000 0.46000  0.10900  0.72890  Biso   1.000  H
  H45      1.0000 0.84200  0.36200  0.23450  Biso   1.000  H
  H46      1.0000 0.65800  0.63800  0.73450  Biso   1.000  H
  H47      1.0000 0.15800  0.86200  0.26550  Biso   1.000  H
  H48      1.0000 0.34200  0.13800  0.76550  Biso   1.000  H
  N5       1.0000 0.83820  0.63600  0.30089  Biso   1.000  N
  N6       1.0000 0.66180  0.36400  0.80089  Biso   1.000  N
  N7       1.0000 0.16180  0.13600  0.19911  Biso   1.000  N
  N8       1.0000 0.33820  0.86400  0.69911  Biso   1.000  N
  H49      1.0000 0.79370  0.70010  0.30070  Biso   1.000  H
  H50      1.0000 0.70630  0.29990  0.80070  Biso   1.000  H
  H51      1.0000 0.20630  0.20010  0.19930  Biso   1.000  H
  H52      1.0000 0.29370  0.79990  0.69930  Biso   1.000  H
  H53      1.0000 0.78210  0.58610  0.31610  Biso   1.000  H
  H54      1.0000 0.71790  0.41390  0.81610  Biso   1.000  H
  H55      1.0000 0.21790  0.08610  0.18390  Biso   1.000  H
  H56      1.0000 0.28210  0.91390  0.68390  Biso   1.000  H
  O13      1.0000 0.06750  0.60360  0.24965  Biso   1.000  O
  O14      1.0000 0.43250  0.39640  0.74965  Biso   1.000  O
  O15      1.0000 0.93250  0.10360  0.25035  Biso   1.000  O
  O16      1.0000 0.56750  0.89640  0.75035  Biso   1.000  O
  O17      1.0000 0.19120  0.60200  0.32423  Biso   1.000  O
  O18      1.0000 0.30880  0.39800  0.82423  Biso   1.000  O
  O19      1.0000 0.80880  0.10200  0.17577  Biso   1.000  O
  O20      1.0000 0.69120  0.89800  0.67577  Biso   1.000  O
  C37      1.0000 0.08330  0.61330  0.29981  Biso   1.000  C
  C38      1.0000 0.41670  0.38670  0.79981  Biso   1.000  C
  C39      1.0000 0.91670  0.11330  0.20019  Biso   1.000  C
  C40      1.0000 0.58330  0.88670  0.70019  Biso   1.000  C
  C41      1.0000 0.96030  0.64550  0.33405  Biso   1.000  C
  C42      1.0000 0.53970  0.35450  0.83405  Biso   1.000  C
  C43      1.0000 0.03970  0.14550  0.16595  Biso   1.000  C
  C44      1.0000 0.46030  0.85450  0.66595  Biso   1.000  C
  H57      1.0000 0.97100  0.72210  0.34400  Biso   1.000  H
  H58      1.0000 0.52900  0.27790  0.84400  Biso   1.000  H
  H59      1.0000 0.02900  0.22210  0.15600  Biso   1.000  H
  H60      1.0000 0.47100  0.77790  0.65600  Biso   1.000  H
  C45      1.0000 0.95330  0.58170  0.38612  Biso   1.000  C
  C46      1.0000 0.54670  0.41830  0.88612  Biso   1.000  C
  C47      1.0000 0.04670  0.08170  0.11388  Biso   1.000  C
  C48      1.0000 0.45330  0.91830  0.61388  Biso   1.000  C
  H61      1.0000 0.04530  0.57580  0.40090  Biso   1.000  H
  H62      1.0000 0.45470  0.42420  0.90090  Biso   1.000  H
  H63      1.0000 0.95470  0.07580  0.09910  Biso   1.000  H
  H64      1.0000 0.54530  0.92420  0.59910  Biso   1.000  H
  H65      1.0000 0.92280  0.50890  0.37720  Biso   1.000  H
  H66      1.0000 0.57720  0.49110  0.87720  Biso   1.000  H
  H67      1.0000 0.07720  0.00890  0.12280  Biso   1.000  H
  H68      1.0000 0.42280  0.99110  0.62280  Biso   1.000  H
  C49      1.0000 0.86200  0.62540  0.43037  Biso   1.000  C
  C50      1.0000 0.63800  0.37460  0.93037  Biso   1.000  C
  C51      1.0000 0.13800  0.12540  0.06963  Biso   1.000  C
  C52      1.0000 0.36200  0.87460  0.56963  Biso   1.000  C
  C53      1.0000 0.88470  0.59070  0.48310  Biso   1.000  C
  C54      1.0000 0.61530  0.40930  0.98310  Biso   1.000  C
  C55      1.0000 0.11530  0.09070  0.01690  Biso   1.000  C
  C56      1.0000 0.38470  0.90930  0.51690  Biso   1.000  C
  H69      1.0000 0.95660  0.54340  0.49080  Biso   1.000  H
  H70      1.0000 0.54340  0.45660  0.99080  Biso   1.000  H
  H71      1.0000 0.04340  0.04340  0.00920  Biso   1.000  H
  H72      1.0000 0.45660  0.95660  0.50920  Biso   1.000  H
  C57      1.0000 0.79970  0.62670  0.52481  Biso   1.000  C
  C58      1.0000 0.70030  0.37330  0.02481  Biso   1.000  C
  C59      1.0000 0.20030  0.12670  0.97519  Biso   1.000  C
  C60      1.0000 0.29970  0.87330  0.47519  Biso   1.000  C
  H73      1.0000 0.81440  0.60260  0.56060  Biso   1.000  H
  H74      1.0000 0.68560  0.39740  0.06060  Biso   1.000  H
  H75      1.0000 0.18560  0.10260  0.93940  Biso   1.000  H
  H76      1.0000 0.31440  0.89740  0.43940  Biso   1.000  H
  C61      1.0000 0.69690  0.69540  0.51464  Biso   1.000  C
  C62      1.0000 0.80310  0.30460  0.01464  Biso   1.000  C
  C63      1.0000 0.30310  0.19540  0.98536  Biso   1.000  C
  C64      1.0000 0.19690  0.80460  0.48536  Biso   1.000  C
  H77      1.0000 0.64090  0.71950  0.54320  Biso   1.000  H
  H78      1.0000 0.85910  0.28050  0.04320  Biso   1.000  H
  H79      1.0000 0.35910  0.21950  0.95680  Biso   1.000  H
  H80      1.0000 0.14090  0.78050  0.45680  Biso   1.000  H
  C65      1.0000 0.67490  0.72960  0.46240  Biso   1.000  C
  C66      1.0000 0.82510  0.27040  0.96240  Biso   1.000  C
  C67      1.0000 0.32510  0.22960  0.03760  Biso   1.000  C
  C68      1.0000 0.17490  0.77040  0.53760  Biso   1.000  C
  H81      1.0000 0.60250  0.77660  0.45500  Biso   1.000  H
  H82      1.0000 0.89750  0.22340  0.95500  Biso   1.000  H
  H83      1.0000 0.39750  0.27660  0.04500  Biso   1.000  H
  H84      1.0000 0.10250  0.72340  0.54500  Biso   1.000  H
  C69      1.0000 0.75770  0.69610  0.42062  Biso   1.000  C
  C70      1.0000 0.74230  0.30390  0.92062  Biso   1.000  C
  C71      1.0000 0.24230  0.19610  0.07938  Biso   1.000  C
  C72      1.0000 0.25770  0.80390  0.57938  Biso   1.000  C
  H85      1.0000 0.74290  0.72180  0.38510  Biso   1.000  H
  H86      1.0000 0.75710  0.27820  0.88510  Biso   1.000  H
  H87      1.0000 0.25710  0.22180  0.11490  Biso   1.000  H
  H88      1.0000 0.24290  0.77820  0.61490  Biso   1.000  H
  N9       1.0000 0.42880  0.55700  0.37576  Biso   1.000  N
  N10      1.0000 0.07120  0.44300  0.87576  Biso   1.000  N
  N11      1.0000 0.57120  0.05700  0.12424  Biso   1.000  N
  N12      1.0000 0.92880  0.94300  0.62424  Biso   1.000  N
  C73      1.0000 0.51950  0.48310  0.38913  Biso   1.000  C
  C74      1.0000 0.98050  0.51690  0.88913  Biso   1.000  C
  C75      1.0000 0.48050  0.98310  0.11087  Biso   1.000  C
  C76      1.0000 0.01950  0.01690  0.61087  Biso   1.000  C
  H89      1.0000 0.56630  0.44720  0.36110  Biso   1.000  H
  H90      1.0000 0.93370  0.55280  0.86110  Biso   1.000  H
  H91      1.0000 0.43370  0.94720  0.13890  Biso   1.000  H
  H92      1.0000 0.06630  0.05280  0.63890  Biso   1.000  H
  C77      1.0000 0.54790  0.45690  0.44171  Biso   1.000  C
  C78      1.0000 0.95210  0.54310  0.94171  Biso   1.000  C
  C79      1.0000 0.45210  0.95690  0.05829  Biso   1.000  C
  C80      1.0000 0.04790  0.04310  0.55829  Biso   1.000  C
  H93      1.0000 0.61300  0.40370  0.44930  Biso   1.000  H
  H94      1.0000 0.88700  0.59630  0.94930  Biso   1.000  H
  H95      1.0000 0.38700  0.90370  0.05070  Biso   1.000  H
  H96      1.0000 0.11300  0.09630  0.55070  Biso   1.000  H
  C81      1.0000 0.48190  0.50760  0.48385  Biso   1.000  C
  C82      1.0000 0.01810  0.49240  0.98385  Biso   1.000  C
  C83      1.0000 0.51810  0.00760  0.01615  Biso   1.000  C
  C84      1.0000 0.98190  0.99240  0.51615  Biso   1.000  C
  C85      1.0000 0.39020  0.58530  0.46969  Biso   1.000  C
  C86      1.0000 0.10980  0.41470  0.96969  Biso   1.000  C
  C87      1.0000 0.60980  0.08530  0.03031  Biso   1.000  C
  C88      1.0000 0.89020  0.91470  0.53031  Biso   1.000  C
  H97      1.0000 0.34350  0.62350  0.49700  Biso   1.000  H
  H98      1.0000 0.15650  0.37650  0.99700  Biso   1.000  H
  H99      1.0000 0.65650  0.12350  0.00300  Biso   1.000  H
  H100     1.0000 0.84350  0.87650  0.50300  Biso   1.000  H
  C89      1.0000 0.36610  0.60770  0.41565  Biso   1.000  C
  C90      1.0000 0.13390  0.39230  0.91565  Biso   1.000  C
  C91      1.0000 0.63390  0.10770  0.08435  Biso   1.000  C
  C92      1.0000 0.86610  0.89230  0.58435  Biso   1.000  C
  H101     1.0000 0.30240  0.66120  0.40680  Biso   1.000  H
  H102     1.0000 0.19760  0.33880  0.90680  Biso   1.000  H
  H103     1.0000 0.69760  0.16120  0.09320  Biso   1.000  H
  H104     1.0000 0.80240  0.83880  0.59320  Biso   1.000  H
  C93      1.0000 0.51040  0.48220  0.54155  Biso   1.000  C
  C94      1.0000 0.98960  0.51780  0.04155  Biso   1.000  C
  C95      1.0000 0.48960  0.98220  0.95845  Biso   1.000  C
  C96      1.0000 0.01040  0.01780  0.45845  Biso   1.000  C
  C97      1.0000 0.61490  0.41510  0.55583  Biso   1.000  C
  C98      1.0000 0.88510  0.58490  0.05583  Biso   1.000  C
  C99      1.0000 0.38510  0.91510  0.94417  Biso   1.000  C
  C100     1.0000 0.11490  0.08490  0.44417  Biso   1.000  C
  H105     1.0000 0.66860  0.38310  0.52860  Biso   1.000  H
  H106     1.0000 0.83140  0.61690  0.02860  Biso   1.000  H
  H107     1.0000 0.33140  0.88310  0.97140  Biso   1.000  H
  H108     1.0000 0.16860  0.11690  0.47140  Biso   1.000  H
  C101     1.0000 0.64120  0.39460  0.60917  Biso   1.000  C
  C102     1.0000 0.85880  0.60540  0.10917  Biso   1.000  C
  C103     1.0000 0.35880  0.89460  0.89083  Biso   1.000  C
  C104     1.0000 0.14120  0.10540  0.39083  Biso   1.000  C
  H109     1.0000 0.71370  0.34850  0.61770  Biso   1.000  H
  H110     1.0000 0.78630  0.65150  0.11770  Biso   1.000  H
  H111     1.0000 0.28630  0.84850  0.88230  Biso   1.000  H
  H112     1.0000 0.21370  0.15150  0.38230  Biso   1.000  H
  C105     1.0000 0.46920  0.50130  0.63657  Biso   1.000  C
  C106     1.0000 0.03080  0.49870  0.13657  Biso   1.000  C
  C107     1.0000 0.53080  0.00130  0.86343  Biso   1.000  C
  C108     1.0000 0.96920  0.99870  0.36343  Biso   1.000  C
  H113     1.0000 0.41770  0.53190  0.66480  Biso   1.000  H
  H114     1.0000 0.08230  0.46810  0.16480  Biso   1.000  H
  H115     1.0000 0.58230  0.03190  0.83520  Biso   1.000  H
  H116     1.0000 0.91770  0.96810  0.33520  Biso   1.000  H
  C109     1.0000 0.43600  0.52640  0.58405  Biso   1.000  C
  C110     1.0000 0.06400  0.47360  0.08405  Biso   1.000  C
  C111     1.0000 0.56400  0.02640  0.91595  Biso   1.000  C
  C112     1.0000 0.93600  0.97360  0.41595  Biso   1.000  C
  H117     1.0000 0.36330  0.57320  0.57670  Biso   1.000  H
  H118     1.0000 0.13670  0.42680  0.07670  Biso   1.000  H
  H119     1.0000 0.63670  0.07320  0.92330  Biso   1.000  H
  H120     1.0000 0.86330  0.92680  0.42330  Biso   1.000  H
  N13      1.0000 0.57010  0.43620  0.64974  Biso   1.000  N
  N14      1.0000 0.92990  0.56380  0.14974  Biso   1.000  N
  N15      1.0000 0.42990  0.93620  0.85026  Biso   1.000  N
  N16      1.0000 0.07010  0.06380  0.35026  Biso   1.000  N
  N17      1.0000 0.20610  0.35130  0.32731  Biso   1.000  N
  N18      1.0000 0.29390  0.64870  0.82731  Biso   1.000  N
  N19      1.0000 0.79390  0.85130  0.17269  Biso   1.000  N
  N20      1.0000 0.70610  0.14870  0.67269  Biso   1.000  N
  O21      1.0000 0.31190  0.38140  0.30243  Biso   1.000  O
  O22      1.0000 0.18810  0.61860  0.80243  Biso   1.000  O
  O23      1.0000 0.68810  0.88140  0.19757  Biso   1.000  O
  O24      1.0000 0.81190  0.11860  0.69757  Biso   1.000  O
  O25      1.0000 0.11220  0.30800  0.30092  Biso   1.000  O
  O26      1.0000 0.38780  0.69200  0.80092  Biso   1.000  O
  O27      1.0000 0.88780  0.80800  0.19908  Biso   1.000  O
  O28      1.0000 0.61220  0.19200  0.69908  Biso   1.000  O
  O29      1.0000 0.20050  0.36210  0.37666  Biso   1.000  O
  O30      1.0000 0.29950  0.63790  0.87666  Biso   1.000  O
  O31      1.0000 0.79950  0.86210  0.12334  Biso   1.000  O
  O32      1.0000 0.70050  0.13790  0.62334  Biso   1.000  O
  N21      1.0000 0.36120  0.82470  0.32809  Biso   1.000  N
  N22      1.0000 0.13880  0.17530  0.82809  Biso   1.000  N
  N23      1.0000 0.63880  0.32470  0.17191  Biso   1.000  N
  N24      1.0000 0.86120  0.67530  0.67191  Biso   1.000  N
  O33      1.0000 0.24470  0.84600  0.34161  Biso   1.000  O
  O34      1.0000 0.25530  0.15400  0.84161  Biso   1.000  O
  O35      1.0000 0.75530  0.34600  0.15839  Biso   1.000  O
  O36      1.0000 0.74470  0.65400  0.65839  Biso   1.000  O
  O37      1.0000 0.45710  0.85130  0.35839  Biso   1.000  O
  O38      1.0000 0.04290  0.14870  0.85839  Biso   1.000  O
  O39      1.0000 0.54290  0.35130  0.14161  Biso   1.000  O
  O40      1.0000 0.95710  0.64870  0.64161  Biso   1.000  O
  O41      1.0000 0.38830  0.77320  0.28732  Biso   1.000  O
  O42      1.0000 0.11170  0.22680  0.78732  Biso   1.000  O
  O43      1.0000 0.61170  0.27320  0.21268  Biso   1.000  O
  O44      1.0000 0.88830  0.72680  0.71268  Biso   1.000  O
  O45      1.0000 0.29420  0.34390  0.19421  Biso   1.000  O
  O46      1.0000 0.20580  0.65610  0.69421  Biso   1.000  O
  O47      1.0000 0.70580  0.84390  0.30579  Biso   1.000  O
  O48      1.0000 0.79420  0.15610  0.80579  Biso   1.000  O
  H121     1.0000 0.29600  0.33700  0.23280  Biso   1.000  H
  H122     1.0000 0.20400  0.66300  0.73280  Biso   1.000  H
  H123     1.0000 0.70400  0.83700  0.26720  Biso   1.000  H
  H124     1.0000 0.79600  0.16300  0.76720  Biso   1.000  H
  H125     1.0000 0.37900  0.32900  0.18060  Biso   1.000  H
  H126     1.0000 0.12100  0.67100  0.68060  Biso   1.000  H
  H127     1.0000 0.62100  0.82900  0.31940  Biso   1.000  H
  H128     1.0000 0.87900  0.17100  0.81940  Biso   1.000  H
