data_image0
_cell_length_a       7.3201
_cell_length_b       21.101
_cell_length_c       22.207
_cell_angle_alpha    90
_cell_angle_beta     90
_cell_angle_gamma    90

_symmetry_space_group_name_H-M    "P 1"
_symmetry_int_tables_number       1

loop_
  _symmetry_equiv_pos_as_xyz
  'x, y, z'

loop_
  _atom_site_label
  _atom_site_occupancy
  _atom_site_fract_x
  _atom_site_fract_y
  _atom_site_fract_z
  _atom_site_thermal_displace_type
  _atom_site_B_iso_or_equiv
  _atom_site_type_symbol
  Cu1      1.0000 0.25000  0.25000  0.99692  Biso   1.000  Cu
  Cu2      1.0000 0.75000  0.75000  0.50308  Biso   1.000  Cu
  Cu3      1.0000 0.75000  0.75000  0.00308  Biso   1.000  Cu
  Cu4      1.0000 0.25000  0.25000  0.49692  Biso   1.000  Cu
  O1       1.0000 0.56940  0.21102  0.99773  Biso   1.000  O
  O2       1.0000 0.93060  0.28898  0.99773  Biso   1.000  O
  O3       1.0000 0.43060  0.71102  0.50227  Biso   1.000  O
  O4       1.0000 0.06940  0.78898  0.50227  Biso   1.000  O
  O5       1.0000 0.43060  0.78898  0.00227  Biso   1.000  O
  O6       1.0000 0.06940  0.71102  0.00227  Biso   1.000  O
  O7       1.0000 0.56940  0.28898  0.49773  Biso   1.000  O
  O8       1.0000 0.93060  0.21102  0.49773  Biso   1.000  O
  N1       1.0000 0.25000  0.25000  0.90491  Biso   1.000  N
  N2       1.0000 0.75000  0.75000  0.59509  Biso   1.000  N
  N3       1.0000 0.75000  0.75000  0.09509  Biso   1.000  N
  N4       1.0000 0.25000  0.25000  0.40491  Biso   1.000  N
  C1       1.0000 0.39480  0.26828  0.87479  Biso   1.000  C
  C2       1.0000 0.10520  0.23172  0.87479  Biso   1.000  C
  C3       1.0000 0.60520  0.76828  0.62521  Biso   1.000  C
  C4       1.0000 0.89480  0.73172  0.62521  Biso   1.000  C
  C5       1.0000 0.60520  0.73172  0.12521  Biso   1.000  C
  C6       1.0000 0.89480  0.76828  0.12521  Biso   1.000  C
  C7       1.0000 0.39480  0.23172  0.37479  Biso   1.000  C
  C8       1.0000 0.10520  0.26828  0.37479  Biso   1.000  C
  H1       1.0000 0.49860  0.28230  0.89680  Biso   1.000  H
  H2       1.0000 0.00140  0.21770  0.89680  Biso   1.000  H
  H3       1.0000 0.50140  0.78230  0.60320  Biso   1.000  H
  H4       1.0000 0.99860  0.71770  0.60320  Biso   1.000  H
  H5       1.0000 0.50140  0.71770  0.10320  Biso   1.000  H
  H6       1.0000 0.99860  0.78230  0.10320  Biso   1.000  H
  H7       1.0000 0.49860  0.21770  0.39680  Biso   1.000  H
  H8       1.0000 0.00140  0.28230  0.39680  Biso   1.000  H
  C9       1.0000 0.40370  0.26815  0.81276  Biso   1.000  C
  C10      1.0000 0.09630  0.23185  0.81276  Biso   1.000  C
  C11      1.0000 0.59630  0.76815  0.68724  Biso   1.000  C
  C12      1.0000 0.90370  0.73185  0.68724  Biso   1.000  C
  C13      1.0000 0.59630  0.73185  0.18724  Biso   1.000  C
  C14      1.0000 0.90370  0.76815  0.18724  Biso   1.000  C
  C15      1.0000 0.40370  0.23185  0.31276  Biso   1.000  C
  C16      1.0000 0.09630  0.26815  0.31276  Biso   1.000  C
  H9       1.0000 0.51270  0.28020  0.79260  Biso   1.000  H
  H10      1.0000 0.98730  0.21980  0.79260  Biso   1.000  H
  H11      1.0000 0.48730  0.78020  0.70740  Biso   1.000  H
  H12      1.0000 0.01270  0.71980  0.70740  Biso   1.000  H
  H13      1.0000 0.48730  0.71980  0.20740  Biso   1.000  H
  H14      1.0000 0.01270  0.78020  0.20740  Biso   1.000  H
  H15      1.0000 0.51270  0.21980  0.29260  Biso   1.000  H
  H16      1.0000 0.98730  0.28020  0.29260  Biso   1.000  H
  C17      1.0000 0.25000  0.25000  0.78030  Biso   1.000  C
  C18      1.0000 0.75000  0.75000  0.71970  Biso   1.000  C
  C19      1.0000 0.75000  0.75000  0.21970  Biso   1.000  C
  C20      1.0000 0.25000  0.25000  0.28030  Biso   1.000  C
  C21      1.0000 0.25000  0.25000  0.71370  Biso   1.000  C
  C22      1.0000 0.75000  0.75000  0.78630  Biso   1.000  C
  C23      1.0000 0.75000  0.75000  0.28630  Biso   1.000  C
  C24      1.0000 0.25000  0.25000  0.21370  Biso   1.000  C
  C25      1.0000 0.33220  0.29859  0.68128  Biso   1.000  C
  C26      1.0000 0.16780  0.20141  0.68128  Biso   1.000  C
  C27      1.0000 0.66780  0.79859  0.81872  Biso   1.000  C
  C28      1.0000 0.83220  0.70141  0.81872  Biso   1.000  C
  C29      1.0000 0.66780  0.70141  0.31872  Biso   1.000  C
  C30      1.0000 0.83220  0.79859  0.31872  Biso   1.000  C
  C31      1.0000 0.33220  0.20141  0.18128  Biso   1.000  C
  C32      1.0000 0.16780  0.29859  0.18128  Biso   1.000  C
  H17      1.0000 0.39200  0.33240  0.70150  Biso   1.000  H
  H18      1.0000 0.10800  0.16760  0.70150  Biso   1.000  H
  H19      1.0000 0.60800  0.83240  0.79850  Biso   1.000  H
  H20      1.0000 0.89200  0.66760  0.79850  Biso   1.000  H
  H21      1.0000 0.60800  0.66760  0.29850  Biso   1.000  H
  H22      1.0000 0.89200  0.83240  0.29850  Biso   1.000  H
  H23      1.0000 0.39200  0.16760  0.20150  Biso   1.000  H
  H24      1.0000 0.10800  0.33240  0.20150  Biso   1.000  H
  C33      1.0000 0.32550  0.29705  0.61964  Biso   1.000  C
  C34      1.0000 0.17450  0.20295  0.61964  Biso   1.000  C
  C35      1.0000 0.67450  0.79705  0.88036  Biso   1.000  C
  C36      1.0000 0.82550  0.70295  0.88036  Biso   1.000  C
  C37      1.0000 0.67450  0.70295  0.38036  Biso   1.000  C
  C38      1.0000 0.82550  0.79705  0.38036  Biso   1.000  C
  C39      1.0000 0.32550  0.20295  0.11964  Biso   1.000  C
  C40      1.0000 0.17450  0.29705  0.11964  Biso   1.000  C
  H25      1.0000 0.37780  0.33150  0.59820  Biso   1.000  H
  H26      1.0000 0.12220  0.16850  0.59820  Biso   1.000  H
  H27      1.0000 0.62220  0.83150  0.90180  Biso   1.000  H
  H28      1.0000 0.87780  0.66850  0.90180  Biso   1.000  H
  H29      1.0000 0.62220  0.66850  0.40180  Biso   1.000  H
  H30      1.0000 0.87780  0.83150  0.40180  Biso   1.000  H
  H31      1.0000 0.37780  0.16850  0.09820  Biso   1.000  H
  H32      1.0000 0.12220  0.33150  0.09820  Biso   1.000  H
  N5       1.0000 0.25000  0.25000  0.58785  Biso   1.000  N
  N6       1.0000 0.75000  0.75000  0.91215  Biso   1.000  N
  N7       1.0000 0.75000  0.75000  0.41215  Biso   1.000  N
  N8       1.0000 0.25000  0.25000  0.08785  Biso   1.000  N
  N9       1.0000 0.13690  0.16170  0.99460  Biso   1.000  N
  N10      1.0000 0.36310  0.33830  0.99460  Biso   1.000  N
  N11      1.0000 0.86310  0.66170  0.50540  Biso   1.000  N
  N12      1.0000 0.63690  0.83830  0.50540  Biso   1.000  N
  N13      1.0000 0.86310  0.83830  0.00540  Biso   1.000  N
  N14      1.0000 0.63690  0.66170  0.00540  Biso   1.000  N
  N15      1.0000 0.13690  0.33830  0.49460  Biso   1.000  N
  N16      1.0000 0.36310  0.16170  0.49460  Biso   1.000  N
  C41      1.0000 0.00370  0.14260  0.03300  Biso   1.000  C
  C42      1.0000 0.49630  0.35740  0.03300  Biso   1.000  C
  C43      1.0000 0.99630  0.64260  0.46700  Biso   1.000  C
  C44      1.0000 0.50370  0.85740  0.46700  Biso   1.000  C
  C45      1.0000 0.99630  0.85740  0.96700  Biso   1.000  C
  C46      1.0000 0.50370  0.64260  0.96700  Biso   1.000  C
  C47      1.0000 0.00370  0.35740  0.53300  Biso   1.000  C
  C48      1.0000 0.49630  0.14260  0.53300  Biso   1.000  C
  H33      1.0000 0.95420  0.17270  0.06030  Biso   1.000  H
  H34      1.0000 0.54580  0.32730  0.06030  Biso   1.000  H
  H35      1.0000 0.04580  0.67270  0.43970  Biso   1.000  H
  H36      1.0000 0.45420  0.82730  0.43970  Biso   1.000  H
  H37      1.0000 0.04580  0.82730  0.93970  Biso   1.000  H
  H38      1.0000 0.45420  0.67270  0.93970  Biso   1.000  H
  H39      1.0000 0.95420  0.32730  0.56030  Biso   1.000  H
  H40      1.0000 0.54580  0.17270  0.56030  Biso   1.000  H
  C49      1.0000 0.93650  0.08120  0.03420  Biso   1.000  C
  C50      1.0000 0.56350  0.41880  0.03420  Biso   1.000  C
  C51      1.0000 0.06350  0.58120  0.46580  Biso   1.000  C
  C52      1.0000 0.43650  0.91880  0.46580  Biso   1.000  C
  C53      1.0000 0.06350  0.91880  0.96580  Biso   1.000  C
  C54      1.0000 0.43650  0.58120  0.96580  Biso   1.000  C
  C55      1.0000 0.93650  0.41880  0.53420  Biso   1.000  C
  C56      1.0000 0.56350  0.08120  0.53420  Biso   1.000  C
  H41      1.0000 0.84270  0.06980  0.06170  Biso   1.000  H
  H42      1.0000 0.65730  0.43020  0.06170  Biso   1.000  H
  H43      1.0000 0.15730  0.56980  0.43830  Biso   1.000  H
  H44      1.0000 0.34270  0.93020  0.43830  Biso   1.000  H
  H45      1.0000 0.15730  0.93020  0.93830  Biso   1.000  H
  H46      1.0000 0.34270  0.56980  0.93830  Biso   1.000  H
  H47      1.0000 0.84270  0.43020  0.56170  Biso   1.000  H
  H48      1.0000 0.65730  0.06980  0.56170  Biso   1.000  H
  C57      1.0000 0.00800  0.03650  0.99470  Biso   1.000  C
  C58      1.0000 0.49200  0.46350  0.99470  Biso   1.000  C
  C59      1.0000 0.99200  0.53650  0.50530  Biso   1.000  C
  C60      1.0000 0.50800  0.96350  0.50530  Biso   1.000  C
  C61      1.0000 0.99200  0.96350  0.00530  Biso   1.000  C
  C62      1.0000 0.50800  0.53650  0.00530  Biso   1.000  C
  C63      1.0000 0.00800  0.46350  0.49470  Biso   1.000  C
  C64      1.0000 0.49200  0.03650  0.49470  Biso   1.000  C
  C65      1.0000 0.14270  0.05700  0.95580  Biso   1.000  C
  C66      1.0000 0.35730  0.44300  0.95580  Biso   1.000  C
  C67      1.0000 0.85730  0.55700  0.54420  Biso   1.000  C
  C68      1.0000 0.64270  0.94300  0.54420  Biso   1.000  C
  C69      1.0000 0.85730  0.94300  0.04420  Biso   1.000  C
  C70      1.0000 0.64270  0.55700  0.04420  Biso   1.000  C
  C71      1.0000 0.14270  0.44300  0.45580  Biso   1.000  C
  C72      1.0000 0.35730  0.05700  0.45580  Biso   1.000  C
  H49      1.0000 0.19300  0.02770  0.92790  Biso   1.000  H
  H50      1.0000 0.30700  0.47230  0.92790  Biso   1.000  H
  H51      1.0000 0.80700  0.52770  0.57210  Biso   1.000  H
  H52      1.0000 0.69300  0.97230  0.57210  Biso   1.000  H
  H53      1.0000 0.80700  0.97230  0.07210  Biso   1.000  H
  H54      1.0000 0.69300  0.52770  0.07210  Biso   1.000  H
  H55      1.0000 0.19300  0.47230  0.42790  Biso   1.000  H
  H56      1.0000 0.30700  0.02770  0.42790  Biso   1.000  H
  C73      1.0000 0.20700  0.11850  0.95590  Biso   1.000  C
  C74      1.0000 0.29300  0.38150  0.95590  Biso   1.000  C
  C75      1.0000 0.79300  0.61850  0.54410  Biso   1.000  C
  C76      1.0000 0.70700  0.88150  0.54410  Biso   1.000  C
  C77      1.0000 0.79300  0.88150  0.04410  Biso   1.000  C
  C78      1.0000 0.70700  0.61850  0.04410  Biso   1.000  C
  C79      1.0000 0.20700  0.38150  0.45590  Biso   1.000  C
  C80      1.0000 0.29300  0.11850  0.45590  Biso   1.000  C
  H57      1.0000 0.30100  0.13050  0.92880  Biso   1.000  H
  H58      1.0000 0.19900  0.36950  0.92880  Biso   1.000  H
  H59      1.0000 0.69900  0.63050  0.57120  Biso   1.000  H
  H60      1.0000 0.80100  0.86950  0.57120  Biso   1.000  H
  H61      1.0000 0.69900  0.86950  0.07120  Biso   1.000  H
  H62      1.0000 0.80100  0.63050  0.07120  Biso   1.000  H
  H63      1.0000 0.30100  0.36950  0.42880  Biso   1.000  H
  H64      1.0000 0.19900  0.13050  0.42880  Biso   1.000  H
  C81      1.0000 0.06290  0.02910  0.00470  Biso   1.000  C
  C82      1.0000 0.43710  0.47090  0.00470  Biso   1.000  C
  C83      1.0000 0.93710  0.52910  0.49530  Biso   1.000  C
  C84      1.0000 0.56290  0.97090  0.49530  Biso   1.000  C
  C85      1.0000 0.93710  0.97090  0.99530  Biso   1.000  C
  C86      1.0000 0.56290  0.52910  0.99530  Biso   1.000  C
  C87      1.0000 0.06290  0.47090  0.50470  Biso   1.000  C
  C88      1.0000 0.43710  0.02910  0.50470  Biso   1.000  C
  C89      1.0000 0.22500  0.04510  0.97780  Biso   1.000  C
  C90      1.0000 0.27500  0.45490  0.97780  Biso   1.000  C
  C91      1.0000 0.77500  0.54510  0.52220  Biso   1.000  C
  C92      1.0000 0.72500  0.95490  0.52220  Biso   1.000  C
  C93      1.0000 0.77500  0.95490  0.02220  Biso   1.000  C
  C94      1.0000 0.72500  0.54510  0.02220  Biso   1.000  C
  C95      1.0000 0.22500  0.45490  0.47780  Biso   1.000  C
  C96      1.0000 0.27500  0.04510  0.47780  Biso   1.000  C
  H65      1.0000 0.29910  0.01310  0.96020  Biso   1.000  H
  H66      1.0000 0.20090  0.48690  0.96020  Biso   1.000  H
  H67      1.0000 0.70090  0.51310  0.53980  Biso   1.000  H
  H68      1.0000 0.79910  0.98690  0.53980  Biso   1.000  H
  H69      1.0000 0.70090  0.98690  0.03980  Biso   1.000  H
  H70      1.0000 0.79910  0.51310  0.03980  Biso   1.000  H
  H71      1.0000 0.29910  0.48690  0.46020  Biso   1.000  H
  H72      1.0000 0.20090  0.01310  0.46020  Biso   1.000  H
  C97      1.0000 0.28090  0.10720  0.97610  Biso   1.000  C
  C98      1.0000 0.21910  0.39280  0.97610  Biso   1.000  C
  C99      1.0000 0.71910  0.60720  0.52390  Biso   1.000  C
  C100     1.0000 0.78090  0.89280  0.52390  Biso   1.000  C
  C101     1.0000 0.71910  0.89280  0.02390  Biso   1.000  C
  C102     1.0000 0.78090  0.60720  0.02390  Biso   1.000  C
  C103     1.0000 0.28090  0.39280  0.47610  Biso   1.000  C
  C104     1.0000 0.21910  0.10720  0.47610  Biso   1.000  C
  H73      1.0000 0.39400  0.11630  0.95700  Biso   1.000  H
  H74      1.0000 0.10600  0.38370  0.95700  Biso   1.000  H
  H75      1.0000 0.60600  0.61630  0.54300  Biso   1.000  H
  H76      1.0000 0.89400  0.88370  0.54300  Biso   1.000  H
  H77      1.0000 0.60600  0.88370  0.04300  Biso   1.000  H
  H78      1.0000 0.89400  0.61630  0.04300  Biso   1.000  H
  H79      1.0000 0.39400  0.38370  0.45700  Biso   1.000  H
  H80      1.0000 0.10600  0.11630  0.45700  Biso   1.000  H
  C105     1.0000 0.02530  0.14080  0.02630  Biso   1.000  C
  C106     1.0000 0.47470  0.35920  0.02630  Biso   1.000  C
  C107     1.0000 0.97470  0.64080  0.47370  Biso   1.000  C
  C108     1.0000 0.52530  0.85920  0.47370  Biso   1.000  C
  C109     1.0000 0.97470  0.85920  0.97370  Biso   1.000  C
  C110     1.0000 0.52530  0.64080  0.97370  Biso   1.000  C
  C111     1.0000 0.02530  0.35920  0.52630  Biso   1.000  C
  C112     1.0000 0.47470  0.14080  0.52630  Biso   1.000  C
  H81      1.0000 0.95260  0.17350  0.04330  Biso   1.000  H
  H82      1.0000 0.54740  0.32650  0.04330  Biso   1.000  H
  H83      1.0000 0.04740  0.67350  0.45670  Biso   1.000  H
  H84      1.0000 0.45260  0.82650  0.45670  Biso   1.000  H
  H85      1.0000 0.04740  0.82650  0.95670  Biso   1.000  H
  H86      1.0000 0.45260  0.67350  0.95670  Biso   1.000  H
  H87      1.0000 0.95260  0.32650  0.54330  Biso   1.000  H
  H88      1.0000 0.54740  0.17350  0.54330  Biso   1.000  H
  C113     1.0000 0.96400  0.07870  0.02930  Biso   1.000  C
  C114     1.0000 0.53600  0.42130  0.02930  Biso   1.000  C
  C115     1.0000 0.03600  0.57870  0.47070  Biso   1.000  C
  C116     1.0000 0.46400  0.92130  0.47070  Biso   1.000  C
  C117     1.0000 0.03600  0.92130  0.97070  Biso   1.000  C
  C118     1.0000 0.46400  0.57870  0.97070  Biso   1.000  C
  C119     1.0000 0.96400  0.42130  0.52930  Biso   1.000  C
  C120     1.0000 0.53600  0.07870  0.52930  Biso   1.000  C
  H89      1.0000 0.85060  0.06990  0.04870  Biso   1.000  H
  H90      1.0000 0.64940  0.43010  0.04870  Biso   1.000  H
  H91      1.0000 0.14940  0.56990  0.45130  Biso   1.000  H
  H92      1.0000 0.35060  0.93010  0.45130  Biso   1.000  H
  H93      1.0000 0.14940  0.93010  0.95130  Biso   1.000  H
  H94      1.0000 0.35060  0.56990  0.95130  Biso   1.000  H
  H95      1.0000 0.85060  0.43010  0.54870  Biso   1.000  H
  H96      1.0000 0.64940  0.06990  0.54870  Biso   1.000  H
  N17      1.0000 0.18600  0.15650  0.99970  Biso   1.000  N
  N18      1.0000 0.31400  0.34350  0.99970  Biso   1.000  N
  N19      1.0000 0.81400  0.65650  0.50030  Biso   1.000  N
  N20      1.0000 0.68600  0.84350  0.50030  Biso   1.000  N
  N21      1.0000 0.81400  0.84350  0.00030  Biso   1.000  N
  N22      1.0000 0.68600  0.65650  0.00030  Biso   1.000  N
  N23      1.0000 0.18600  0.34350  0.49970  Biso   1.000  N
  N24      1.0000 0.31400  0.15650  0.49970  Biso   1.000  N
