data_image0
_cell_length_a       10.6161
_cell_length_b       16.34
_cell_length_c       18.84
_cell_angle_alpha    90
_cell_angle_beta     90
_cell_angle_gamma    90

_symmetry_space_group_name_H-M    "P 1"
_symmetry_int_tables_number       1

loop_
  _symmetry_equiv_pos_as_xyz
  'x, y, z'

loop_
  _atom_site_label
  _atom_site_occupancy
  _atom_site_fract_x
  _atom_site_fract_y
  _atom_site_fract_z
  _atom_site_thermal_displace_type
  _atom_site_B_iso_or_equiv
  _atom_site_type_symbol
  Cu1      1.0000 0.61275  0.82394  0.52522  Biso   1.000  Cu
  Cu2      1.0000 0.88725  0.17606  0.02522  Biso   1.000  Cu
  Cu3      1.0000 0.38725  0.32394  0.97478  Biso   1.000  Cu
  Cu4      1.0000 0.11275  0.67606  0.47478  Biso   1.000  Cu
  Cu5      1.0000 0.38725  0.17606  0.47478  Biso   1.000  Cu
  Cu6      1.0000 0.11275  0.82394  0.97478  Biso   1.000  Cu
  Cu7      1.0000 0.61275  0.67606  0.02522  Biso   1.000  Cu
  Cu8      1.0000 0.88725  0.32394  0.52522  Biso   1.000  Cu
  Cl1      1.0000 0.18935  0.06794  0.30958  Biso   1.000  Cl
  Cl2      1.0000 0.31065  0.93206  0.80958  Biso   1.000  Cl
  Cl3      1.0000 0.81065  0.56794  0.19042  Biso   1.000  Cl
  Cl4      1.0000 0.68935  0.43206  0.69042  Biso   1.000  Cl
  Cl5      1.0000 0.81065  0.93206  0.69042  Biso   1.000  Cl
  Cl6      1.0000 0.68935  0.06794  0.19042  Biso   1.000  Cl
  Cl7      1.0000 0.18935  0.43206  0.80958  Biso   1.000  Cl
  Cl8      1.0000 0.31065  0.56794  0.30958  Biso   1.000  Cl
  S1       1.0000 0.05267  0.81913  0.54866  Biso   1.000  S
  S2       1.0000 0.44733  0.18087  0.04866  Biso   1.000  S
  S3       1.0000 0.94733  0.31913  0.95134  Biso   1.000  S
  S4       1.0000 0.55267  0.68087  0.45134  Biso   1.000  S
  S5       1.0000 0.94733  0.18087  0.45134  Biso   1.000  S
  S6       1.0000 0.55267  0.81913  0.95134  Biso   1.000  S
  S7       1.0000 0.05267  0.68087  0.04866  Biso   1.000  S
  S8       1.0000 0.44733  0.31913  0.54866  Biso   1.000  S
  O1       1.0000 0.60693  0.88743  0.43961  Biso   1.000  O
  O2       1.0000 0.89307  0.11257  0.93961  Biso   1.000  O
  O3       1.0000 0.39307  0.38743  0.06039  Biso   1.000  O
  O4       1.0000 0.10693  0.61257  0.56039  Biso   1.000  O
  O5       1.0000 0.39307  0.11257  0.56039  Biso   1.000  O
  O6       1.0000 0.10693  0.88743  0.06039  Biso   1.000  O
  O7       1.0000 0.60693  0.61257  0.93961  Biso   1.000  O
  O8       1.0000 0.89307  0.38743  0.43961  Biso   1.000  O
  O9       1.0000 0.82620  0.88780  0.35639  Biso   1.000  O
  O10      1.0000 0.67380  0.11220  0.85639  Biso   1.000  O
  O11      1.0000 0.17380  0.38780  0.14361  Biso   1.000  O
  O12      1.0000 0.32620  0.61220  0.64361  Biso   1.000  O
  O13      1.0000 0.17380  0.11220  0.64361  Biso   1.000  O
  O14      1.0000 0.32620  0.88780  0.14361  Biso   1.000  O
  O15      1.0000 0.82620  0.61220  0.85639  Biso   1.000  O
  O16      1.0000 0.67380  0.38780  0.35639  Biso   1.000  O
  H1       1.0000 0.76310  0.89530  0.38070  Biso   1.000  H
  H2       1.0000 0.73690  0.10470  0.88070  Biso   1.000  H
  H3       1.0000 0.23690  0.39530  0.11930  Biso   1.000  H
  H4       1.0000 0.26310  0.60470  0.61930  Biso   1.000  H
  H5       1.0000 0.23690  0.10470  0.61930  Biso   1.000  H
  H6       1.0000 0.26310  0.89530  0.11930  Biso   1.000  H
  H7       1.0000 0.76310  0.60470  0.88070  Biso   1.000  H
  H8       1.0000 0.73690  0.39530  0.38070  Biso   1.000  H
  N1       1.0000 0.44530  0.85889  0.55445  Biso   1.000  N
  N2       1.0000 0.05470  0.14111  0.05445  Biso   1.000  N
  N3       1.0000 0.55470  0.35889  0.94555  Biso   1.000  N
  N4       1.0000 0.94530  0.64111  0.44555  Biso   1.000  N
  N5       1.0000 0.55470  0.14111  0.44555  Biso   1.000  N
  N6       1.0000 0.94530  0.85889  0.94555  Biso   1.000  N
  N7       1.0000 0.44530  0.64111  0.05445  Biso   1.000  N
  N8       1.0000 0.05470  0.35889  0.55445  Biso   1.000  N
  N9       1.0000 0.61060  0.76900  0.62094  Biso   1.000  N
  N10      1.0000 0.88940  0.23100  0.12094  Biso   1.000  N
  N11      1.0000 0.38940  0.26900  0.87906  Biso   1.000  N
  N12      1.0000 0.11060  0.73100  0.37906  Biso   1.000  N
  N13      1.0000 0.38940  0.23100  0.37906  Biso   1.000  N
  N14      1.0000 0.11060  0.76900  0.87906  Biso   1.000  N
  N15      1.0000 0.61060  0.73100  0.12094  Biso   1.000  N
  N16      1.0000 0.88940  0.26900  0.62094  Biso   1.000  N
  N17      1.0000 0.79650  0.81528  0.51730  Biso   1.000  N
  N18      1.0000 0.70350  0.18472  0.01730  Biso   1.000  N
  N19      1.0000 0.20350  0.31528  0.98270  Biso   1.000  N
  N20      1.0000 0.29650  0.68472  0.48270  Biso   1.000  N
  N21      1.0000 0.20350  0.18472  0.48270  Biso   1.000  N
  N22      1.0000 0.29650  0.81528  0.98270  Biso   1.000  N
  N23      1.0000 0.79650  0.68472  0.01730  Biso   1.000  N
  N24      1.0000 0.70350  0.31528  0.51730  Biso   1.000  N
  C1       1.0000 0.39410  0.93729  0.44894  Biso   1.000  C
  C2       1.0000 0.10590  0.06271  0.94894  Biso   1.000  C
  C3       1.0000 0.60590  0.43729  0.05106  Biso   1.000  C
  C4       1.0000 0.89410  0.56271  0.55106  Biso   1.000  C
  C5       1.0000 0.60590  0.06271  0.55106  Biso   1.000  C
  C6       1.0000 0.89410  0.93729  0.05106  Biso   1.000  C
  C7       1.0000 0.39410  0.56271  0.94894  Biso   1.000  C
  C8       1.0000 0.10590  0.43729  0.44894  Biso   1.000  C
  C9       1.0000 0.51000  0.92606  0.41289  Biso   1.000  C
  C10      1.0000 0.99000  0.07394  0.91289  Biso   1.000  C
  C11      1.0000 0.49000  0.42606  0.08711  Biso   1.000  C
  C12      1.0000 0.01000  0.57394  0.58711  Biso   1.000  C
  C13      1.0000 0.49000  0.07394  0.58711  Biso   1.000  C
  C14      1.0000 0.01000  0.92606  0.08711  Biso   1.000  C
  C15      1.0000 0.51000  0.57394  0.91289  Biso   1.000  C
  C16      1.0000 0.99000  0.42606  0.41289  Biso   1.000  C
  C17      1.0000 0.52070  0.96050  0.34421  Biso   1.000  C
  C18      1.0000 0.97930  0.03950  0.84421  Biso   1.000  C
  C19      1.0000 0.47930  0.46050  0.15579  Biso   1.000  C
  C20      1.0000 0.02070  0.53950  0.65579  Biso   1.000  C
  C21      1.0000 0.47930  0.03950  0.65579  Biso   1.000  C
  C22      1.0000 0.02070  0.96050  0.15579  Biso   1.000  C
  C23      1.0000 0.52070  0.53950  0.84421  Biso   1.000  C
  C24      1.0000 0.97930  0.46050  0.34421  Biso   1.000  C
  H9       1.0000 0.59570  0.95430  0.31930  Biso   1.000  H
  H10      1.0000 0.90430  0.04570  0.81930  Biso   1.000  H
  H11      1.0000 0.40430  0.45430  0.18070  Biso   1.000  H
  H12      1.0000 0.09570  0.54570  0.68070  Biso   1.000  H
  H13      1.0000 0.40430  0.04570  0.68070  Biso   1.000  H
  H14      1.0000 0.09570  0.95430  0.18070  Biso   1.000  H
  H15      1.0000 0.59570  0.54570  0.81930  Biso   1.000  H
  H16      1.0000 0.90430  0.45430  0.31930  Biso   1.000  H
  C25      1.0000 0.42370  0.00280  0.31338  Biso   1.000  C
  C26      1.0000 0.07630  0.99720  0.81338  Biso   1.000  C
  C27      1.0000 0.57630  0.50280  0.18662  Biso   1.000  C
  C28      1.0000 0.92370  0.49720  0.68662  Biso   1.000  C
  C29      1.0000 0.57630  0.99720  0.68662  Biso   1.000  C
  C30      1.0000 0.92370  0.00280  0.18662  Biso   1.000  C
  C31      1.0000 0.42370  0.49720  0.81338  Biso   1.000  C
  C32      1.0000 0.07630  0.50280  0.31338  Biso   1.000  C
  H17      1.0000 0.43300  0.02430  0.26800  Biso   1.000  H
  H18      1.0000 0.06700  0.97570  0.76800  Biso   1.000  H
  H19      1.0000 0.56700  0.52430  0.23200  Biso   1.000  H
  H20      1.0000 0.93300  0.47570  0.73200  Biso   1.000  H
  H21      1.0000 0.56700  0.97570  0.73200  Biso   1.000  H
  H22      1.0000 0.93300  0.02430  0.23200  Biso   1.000  H
  H23      1.0000 0.43300  0.47570  0.76800  Biso   1.000  H
  H24      1.0000 0.06700  0.52430  0.26800  Biso   1.000  H
  C33      1.0000 0.31140  0.01343  0.35018  Biso   1.000  C
  C34      1.0000 0.18860  0.98657  0.85018  Biso   1.000  C
  C35      1.0000 0.68860  0.51343  0.14982  Biso   1.000  C
  C36      1.0000 0.81140  0.48657  0.64982  Biso   1.000  C
  C37      1.0000 0.68860  0.98657  0.64982  Biso   1.000  C
  C38      1.0000 0.81140  0.01343  0.14982  Biso   1.000  C
  C39      1.0000 0.31140  0.48657  0.85018  Biso   1.000  C
  C40      1.0000 0.18860  0.51343  0.35018  Biso   1.000  C
  C41      1.0000 0.29640  0.98174  0.41662  Biso   1.000  C
  C42      1.0000 0.20360  0.01826  0.91662  Biso   1.000  C
  C43      1.0000 0.70360  0.48174  0.08338  Biso   1.000  C
  C44      1.0000 0.79640  0.51826  0.58338  Biso   1.000  C
  C45      1.0000 0.70360  0.01826  0.58338  Biso   1.000  C
  C46      1.0000 0.79640  0.98174  0.08338  Biso   1.000  C
  C47      1.0000 0.29640  0.51826  0.91662  Biso   1.000  C
  C48      1.0000 0.20360  0.48174  0.41662  Biso   1.000  C
  H25      1.0000 0.22090  0.98960  0.44070  Biso   1.000  H
  H26      1.0000 0.27910  0.01040  0.94070  Biso   1.000  H
  H27      1.0000 0.77910  0.48960  0.05930  Biso   1.000  H
  H28      1.0000 0.72090  0.51040  0.55930  Biso   1.000  H
  H29      1.0000 0.77910  0.01040  0.55930  Biso   1.000  H
  H30      1.0000 0.72090  0.98960  0.05930  Biso   1.000  H
  H31      1.0000 0.22090  0.51040  0.94070  Biso   1.000  H
  H32      1.0000 0.27910  0.48960  0.44070  Biso   1.000  H
  C49      1.0000 0.37040  0.90486  0.51864  Biso   1.000  C
  C50      1.0000 0.12960  0.09514  0.01864  Biso   1.000  C
  C51      1.0000 0.62960  0.40486  0.98136  Biso   1.000  C
  C52      1.0000 0.87040  0.59514  0.48136  Biso   1.000  C
  C53      1.0000 0.62960  0.09514  0.48136  Biso   1.000  C
  C54      1.0000 0.87040  0.90486  0.98136  Biso   1.000  C
  C55      1.0000 0.37040  0.59514  0.01864  Biso   1.000  C
  C56      1.0000 0.12960  0.40486  0.51864  Biso   1.000  C
  H33      1.0000 0.29400  0.91840  0.53970  Biso   1.000  H
  H34      1.0000 0.20600  0.08160  0.03970  Biso   1.000  H
  H35      1.0000 0.70600  0.41840  0.96030  Biso   1.000  H
  H36      1.0000 0.79400  0.58160  0.46030  Biso   1.000  H
  H37      1.0000 0.70600  0.08160  0.46030  Biso   1.000  H
  H38      1.0000 0.79400  0.91840  0.96030  Biso   1.000  H
  H39      1.0000 0.29400  0.58160  0.03970  Biso   1.000  H
  H40      1.0000 0.20600  0.41840  0.53970  Biso   1.000  H
  C57      1.0000 0.40350  0.82870  0.62336  Biso   1.000  C
  C58      1.0000 0.09650  0.17130  0.12336  Biso   1.000  C
  C59      1.0000 0.59650  0.32870  0.87664  Biso   1.000  C
  C60      1.0000 0.90350  0.67130  0.37664  Biso   1.000  C
  C61      1.0000 0.59650  0.17130  0.37664  Biso   1.000  C
  C62      1.0000 0.90350  0.82870  0.87664  Biso   1.000  C
  C63      1.0000 0.40350  0.67130  0.12336  Biso   1.000  C
  C64      1.0000 0.09650  0.32870  0.62336  Biso   1.000  C
  H41      1.0000 0.33540  0.78990  0.61690  Biso   1.000  H
  H42      1.0000 0.16460  0.21010  0.11690  Biso   1.000  H
  H43      1.0000 0.66460  0.28990  0.88310  Biso   1.000  H
  H44      1.0000 0.83540  0.71010  0.38310  Biso   1.000  H
  H45      1.0000 0.66460  0.21010  0.38310  Biso   1.000  H
  H46      1.0000 0.83540  0.78990  0.88310  Biso   1.000  H
  H47      1.0000 0.33540  0.71010  0.11690  Biso   1.000  H
  H48      1.0000 0.16460  0.28990  0.61690  Biso   1.000  H
  H49      1.0000 0.37220  0.87390  0.65160  Biso   1.000  H
  H50      1.0000 0.12780  0.12610  0.15160  Biso   1.000  H
  H51      1.0000 0.62780  0.37390  0.84840  Biso   1.000  H
  H52      1.0000 0.87220  0.62610  0.34840  Biso   1.000  H
  H53      1.0000 0.62780  0.12610  0.34840  Biso   1.000  H
  H54      1.0000 0.87220  0.87390  0.84840  Biso   1.000  H
  H55      1.0000 0.37220  0.62610  0.15160  Biso   1.000  H
  H56      1.0000 0.12780  0.37390  0.65160  Biso   1.000  H
  C65      1.0000 0.51070  0.78794  0.66142  Biso   1.000  C
  C66      1.0000 0.98930  0.21206  0.16142  Biso   1.000  C
  C67      1.0000 0.48930  0.28794  0.83858  Biso   1.000  C
  C68      1.0000 0.01070  0.71206  0.33858  Biso   1.000  C
  C69      1.0000 0.48930  0.21206  0.33858  Biso   1.000  C
  C70      1.0000 0.01070  0.78794  0.83858  Biso   1.000  C
  C71      1.0000 0.51070  0.71206  0.16142  Biso   1.000  C
  C72      1.0000 0.98930  0.28794  0.66142  Biso   1.000  C
  C73      1.0000 0.50650  0.76760  0.73254  Biso   1.000  C
  C74      1.0000 0.99350  0.23240  0.23254  Biso   1.000  C
  C75      1.0000 0.49350  0.26760  0.76746  Biso   1.000  C
  C76      1.0000 0.00650  0.73240  0.26746  Biso   1.000  C
  C77      1.0000 0.49350  0.23240  0.26746  Biso   1.000  C
  C78      1.0000 0.00650  0.76760  0.76746  Biso   1.000  C
  C79      1.0000 0.50650  0.73240  0.23254  Biso   1.000  C
  C80      1.0000 0.99350  0.26760  0.73254  Biso   1.000  C
  H57      1.0000 0.43870  0.78380  0.76040  Biso   1.000  H
  H58      1.0000 0.06130  0.21620  0.26040  Biso   1.000  H
  H59      1.0000 0.56130  0.28380  0.73960  Biso   1.000  H
  H60      1.0000 0.93870  0.71620  0.23960  Biso   1.000  H
  H61      1.0000 0.56130  0.21620  0.23960  Biso   1.000  H
  H62      1.0000 0.93870  0.78380  0.73960  Biso   1.000  H
  H63      1.0000 0.43870  0.71620  0.26040  Biso   1.000  H
  H64      1.0000 0.06130  0.28380  0.76040  Biso   1.000  H
  C81      1.0000 0.60350  0.72320  0.76170  Biso   1.000  C
  C82      1.0000 0.89650  0.27680  0.26170  Biso   1.000  C
  C83      1.0000 0.39650  0.22320  0.73830  Biso   1.000  C
  C84      1.0000 0.10350  0.77680  0.23830  Biso   1.000  C
  C85      1.0000 0.39650  0.27680  0.23830  Biso   1.000  C
  C86      1.0000 0.10350  0.72320  0.73830  Biso   1.000  C
  C87      1.0000 0.60350  0.77680  0.26170  Biso   1.000  C
  C88      1.0000 0.89650  0.22320  0.76170  Biso   1.000  C
  H65      1.0000 0.60290  0.71000  0.80970  Biso   1.000  H
  H66      1.0000 0.89710  0.29000  0.30970  Biso   1.000  H
  H67      1.0000 0.39710  0.21000  0.69030  Biso   1.000  H
  H68      1.0000 0.10290  0.79000  0.19030  Biso   1.000  H
  H69      1.0000 0.39710  0.29000  0.19030  Biso   1.000  H
  H70      1.0000 0.10290  0.71000  0.69030  Biso   1.000  H
  H71      1.0000 0.60290  0.79000  0.30970  Biso   1.000  H
  H72      1.0000 0.89710  0.21000  0.80970  Biso   1.000  H
  C89      1.0000 0.70110  0.69870  0.71920  Biso   1.000  C
  C90      1.0000 0.79890  0.30130  0.21920  Biso   1.000  C
  C91      1.0000 0.29890  0.19870  0.78080  Biso   1.000  C
  C92      1.0000 0.20110  0.80130  0.28080  Biso   1.000  C
  C93      1.0000 0.29890  0.30130  0.28080  Biso   1.000  C
  C94      1.0000 0.20110  0.69870  0.78080  Biso   1.000  C
  C95      1.0000 0.70110  0.80130  0.21920  Biso   1.000  C
  C96      1.0000 0.79890  0.19870  0.71920  Biso   1.000  C
  H73      1.0000 0.76460  0.66530  0.73690  Biso   1.000  H
  H74      1.0000 0.73540  0.33470  0.23690  Biso   1.000  H
  H75      1.0000 0.23540  0.16530  0.76310  Biso   1.000  H
  H76      1.0000 0.26460  0.83470  0.26310  Biso   1.000  H
  H77      1.0000 0.23540  0.33470  0.26310  Biso   1.000  H
  H78      1.0000 0.26460  0.66530  0.76310  Biso   1.000  H
  H79      1.0000 0.76460  0.83470  0.23690  Biso   1.000  H
  H80      1.0000 0.73540  0.16530  0.73690  Biso   1.000  H
  C97      1.0000 0.70330  0.72450  0.64979  Biso   1.000  C
  C98      1.0000 0.79670  0.27550  0.14979  Biso   1.000  C
  C99      1.0000 0.29670  0.22450  0.85021  Biso   1.000  C
  C100     1.0000 0.20330  0.77550  0.35021  Biso   1.000  C
  C101     1.0000 0.29670  0.27550  0.35021  Biso   1.000  C
  C102     1.0000 0.20330  0.72450  0.85021  Biso   1.000  C
  C103     1.0000 0.70330  0.77550  0.14979  Biso   1.000  C
  C104     1.0000 0.79670  0.22450  0.64979  Biso   1.000  C
  H81      1.0000 0.77200  0.71050  0.62170  Biso   1.000  H
  H82      1.0000 0.72800  0.28950  0.12170  Biso   1.000  H
  H83      1.0000 0.22800  0.21050  0.87830  Biso   1.000  H
  H84      1.0000 0.27200  0.78950  0.37830  Biso   1.000  H
  H85      1.0000 0.22800  0.28950  0.37830  Biso   1.000  H
  H86      1.0000 0.27200  0.71050  0.87830  Biso   1.000  H
  H87      1.0000 0.77200  0.78950  0.12170  Biso   1.000  H
  H88      1.0000 0.72800  0.21050  0.62170  Biso   1.000  H
  C105     1.0000 0.90250  0.81747  0.53080  Biso   1.000  C
  C106     1.0000 0.59750  0.18253  0.03080  Biso   1.000  C
  C107     1.0000 0.09750  0.31747  0.96920  Biso   1.000  C
  C108     1.0000 0.40250  0.68253  0.46920  Biso   1.000  C
  C109     1.0000 0.09750  0.18253  0.46920  Biso   1.000  C
  C110     1.0000 0.40250  0.81747  0.96920  Biso   1.000  C
  C111     1.0000 0.90250  0.68253  0.03080  Biso   1.000  C
  C112     1.0000 0.59750  0.31747  0.53080  Biso   1.000  C
  C113     1.0000 0.92100  0.94010  0.37840  Biso   1.000  C
  C114     1.0000 0.57900  0.05990  0.87840  Biso   1.000  C
  C115     1.0000 0.07900  0.44010  0.12160  Biso   1.000  C
  C116     1.0000 0.42100  0.55990  0.62160  Biso   1.000  C
  C117     1.0000 0.07900  0.05990  0.62160  Biso   1.000  C
  C118     1.0000 0.42100  0.94010  0.12160  Biso   1.000  C
  C119     1.0000 0.92100  0.55990  0.87840  Biso   1.000  C
  C120     1.0000 0.57900  0.44010  0.37840  Biso   1.000  C
  H89      1.0000 0.89000  0.99530  0.37890  Biso   1.000  H
  H90      1.0000 0.61000  0.00470  0.87890  Biso   1.000  H
  H91      1.0000 0.11000  0.49530  0.12110  Biso   1.000  H
  H92      1.0000 0.39000  0.50470  0.62110  Biso   1.000  H
  H93      1.0000 0.11000  0.00470  0.62110  Biso   1.000  H
  H94      1.0000 0.39000  0.99530  0.12110  Biso   1.000  H
  H95      1.0000 0.89000  0.50470  0.87890  Biso   1.000  H
  H96      1.0000 0.61000  0.49530  0.37890  Biso   1.000  H
  H97      1.0000 0.99110  0.93620  0.34640  Biso   1.000  H
  H98      1.0000 0.50890  0.06380  0.84640  Biso   1.000  H
  H99      1.0000 0.00890  0.43620  0.15360  Biso   1.000  H
  H100     1.0000 0.49110  0.56380  0.65360  Biso   1.000  H
  H101     1.0000 0.00890  0.06380  0.65360  Biso   1.000  H
  H102     1.0000 0.49110  0.93620  0.15360  Biso   1.000  H
  H103     1.0000 0.99110  0.56380  0.84640  Biso   1.000  H
  H104     1.0000 0.50890  0.43620  0.34640  Biso   1.000  H
  H105     1.0000 0.94780  0.92510  0.42530  Biso   1.000  H
  H106     1.0000 0.55220  0.07490  0.92530  Biso   1.000  H
  H107     1.0000 0.05220  0.42510  0.07470  Biso   1.000  H
  H108     1.0000 0.44780  0.57490  0.57470  Biso   1.000  H
  H109     1.0000 0.05220  0.07490  0.57470  Biso   1.000  H
  H110     1.0000 0.44780  0.92510  0.07470  Biso   1.000  H
  H111     1.0000 0.94780  0.57490  0.92530  Biso   1.000  H
  H112     1.0000 0.55220  0.42510  0.42530  Biso   1.000  H
