data_image0
_cell_length_a       12.88
_cell_length_b       21.188
_cell_length_c       15.795
_cell_angle_alpha    90
_cell_angle_beta     106.62
_cell_angle_gamma    90

_symmetry_space_group_name_H-M    "P 1"
_symmetry_int_tables_number       1

loop_
  _symmetry_equiv_pos_as_xyz
  'x, y, z'

loop_
  _atom_site_label
  _atom_site_occupancy
  _atom_site_fract_x
  _atom_site_fract_y
  _atom_site_fract_z
  _atom_site_thermal_displace_type
  _atom_site_B_iso_or_equiv
  _atom_site_type_symbol
  Cu1      1.0000 0.08431  0.83380  0.63457  Biso   1.000  Cu
  Cu2      1.0000 0.58431  0.66620  0.13457  Biso   1.000  Cu
  Cu3      1.0000 0.91569  0.16620  0.36543  Biso   1.000  Cu
  Cu4      1.0000 0.41569  0.33380  0.86543  Biso   1.000  Cu
  Cu5      1.0000 0.70721  0.84630  0.95770  Biso   1.000  Cu
  Cu6      1.0000 0.20721  0.65370  0.45770  Biso   1.000  Cu
  Cu7      1.0000 0.29279  0.15370  0.04230  Biso   1.000  Cu
  Cu8      1.0000 0.79279  0.34630  0.54230  Biso   1.000  Cu
  C1       1.0000 0.90810  0.81630  0.91810  Biso   1.000  C
  C2       1.0000 0.40810  0.68370  0.41810  Biso   1.000  C
  C3       1.0000 0.09190  0.18370  0.08190  Biso   1.000  C
  C4       1.0000 0.59190  0.31630  0.58190  Biso   1.000  C
  H1       1.0000 0.88200  0.77550  0.91860  Biso   1.000  H
  H2       1.0000 0.38200  0.72450  0.41860  Biso   1.000  H
  H3       1.0000 0.11800  0.22450  0.08140  Biso   1.000  H
  H4       1.0000 0.61800  0.27550  0.58140  Biso   1.000  H
  C5       1.0000 0.00860  0.82490  0.90240  Biso   1.000  C
  C6       1.0000 0.50860  0.67510  0.40240  Biso   1.000  C
  C7       1.0000 0.99140  0.17510  0.09760  Biso   1.000  C
  C8       1.0000 0.49140  0.32490  0.59760  Biso   1.000  C
  C9       1.0000 0.04560  0.88550  0.90150  Biso   1.000  C
  C10      1.0000 0.54560  0.61450  0.40150  Biso   1.000  C
  C11      1.0000 0.95440  0.11450  0.09850  Biso   1.000  C
  C12      1.0000 0.45440  0.38550  0.59850  Biso   1.000  C
  H5       1.0000 0.11200  0.89320  0.89120  Biso   1.000  H
  H6       1.0000 0.61200  0.60680  0.39120  Biso   1.000  H
  H7       1.0000 0.88800  0.10680  0.10880  Biso   1.000  H
  H8       1.0000 0.38800  0.39320  0.60880  Biso   1.000  H
  C13      1.0000 0.98280  0.93510  0.91630  Biso   1.000  C
  C14      1.0000 0.48280  0.56490  0.41630  Biso   1.000  C
  C15      1.0000 0.01720  0.06490  0.08370  Biso   1.000  C
  C16      1.0000 0.51720  0.43510  0.58370  Biso   1.000  C
  H9       1.0000 0.00730  0.97640  0.91660  Biso   1.000  H
  H10      1.0000 0.50730  0.52360  0.41660  Biso   1.000  H
  H11      1.0000 0.99270  0.02360  0.08340  Biso   1.000  H
  H12      1.0000 0.49270  0.47640  0.58340  Biso   1.000  H
  C17      1.0000 0.88610  0.92340  0.93040  Biso   1.000  C
  C18      1.0000 0.38610  0.57660  0.43040  Biso   1.000  C
  C19      1.0000 0.11390  0.07660  0.06960  Biso   1.000  C
  C20      1.0000 0.61390  0.42340  0.56960  Biso   1.000  C
  H13      1.0000 0.84410  0.95710  0.93900  Biso   1.000  H
  H14      1.0000 0.34410  0.54290  0.43900  Biso   1.000  H
  H15      1.0000 0.15590  0.04290  0.06100  Biso   1.000  H
  H16      1.0000 0.65590  0.45710  0.56100  Biso   1.000  H
  C21      1.0000 0.07170  0.77110  0.88940  Biso   1.000  C
  C22      1.0000 0.57170  0.72890  0.38940  Biso   1.000  C
  C23      1.0000 0.92830  0.22890  0.11060  Biso   1.000  C
  C24      1.0000 0.42830  0.27110  0.61060  Biso   1.000  C
  C25      1.0000 0.13520  0.66650  0.88610  Biso   1.000  C
  C26      1.0000 0.63520  0.83350  0.38610  Biso   1.000  C
  C27      1.0000 0.86480  0.33350  0.11390  Biso   1.000  C
  C28      1.0000 0.36480  0.16650  0.61390  Biso   1.000  C
  C29      1.0000 0.21010  0.71090  0.85640  Biso   1.000  C
  C30      1.0000 0.71010  0.78910  0.35640  Biso   1.000  C
  C31      1.0000 0.78990  0.28910  0.14360  Biso   1.000  C
  C32      1.0000 0.28990  0.21090  0.64360  Biso   1.000  C
  C33      1.0000 0.91600  0.91110  0.67210  Biso   1.000  C
  C34      1.0000 0.41600  0.58890  0.17210  Biso   1.000  C
  C35      1.0000 0.08400  0.08890  0.32790  Biso   1.000  C
  C36      1.0000 0.58400  0.41110  0.82790  Biso   1.000  C
  H17      1.0000 0.95980  0.94400  0.66390  Biso   1.000  H
  H18      1.0000 0.45980  0.55600  0.16390  Biso   1.000  H
  H19      1.0000 0.04020  0.05600  0.33610  Biso   1.000  H
  H20      1.0000 0.54020  0.44400  0.83610  Biso   1.000  H
  C37      1.0000 0.82170  0.92540  0.69230  Biso   1.000  C
  C38      1.0000 0.32170  0.57460  0.19230  Biso   1.000  C
  C39      1.0000 0.17830  0.07460  0.30770  Biso   1.000  C
  C40      1.0000 0.67830  0.42540  0.80770  Biso   1.000  C
  H21      1.0000 0.80140  0.96720  0.69560  Biso   1.000  H
  H22      1.0000 0.30140  0.53280  0.19560  Biso   1.000  H
  H23      1.0000 0.19860  0.03280  0.30440  Biso   1.000  H
  H24      1.0000 0.69860  0.46720  0.80440  Biso   1.000  H
  C41      1.0000 0.75740  0.87690  0.70770  Biso   1.000  C
  C42      1.0000 0.25740  0.62310  0.20770  Biso   1.000  C
  C43      1.0000 0.24260  0.12310  0.29230  Biso   1.000  C
  C44      1.0000 0.74260  0.37690  0.79230  Biso   1.000  C
  H25      1.0000 0.69470  0.88580  0.72350  Biso   1.000  H
  H26      1.0000 0.19470  0.61420  0.22350  Biso   1.000  H
  H27      1.0000 0.30530  0.11420  0.27650  Biso   1.000  H
  H28      1.0000 0.80530  0.38580  0.77650  Biso   1.000  H
  C45      1.0000 0.78760  0.81410  0.69930  Biso   1.000  C
  C46      1.0000 0.28760  0.68590  0.19930  Biso   1.000  C
  C47      1.0000 0.21240  0.18590  0.30070  Biso   1.000  C
  C48      1.0000 0.71240  0.31410  0.80070  Biso   1.000  C
  C49      1.0000 0.88380  0.80430  0.67540  Biso   1.000  C
  C50      1.0000 0.38380  0.69570  0.17540  Biso   1.000  C
  C51      1.0000 0.11620  0.19570  0.32460  Biso   1.000  C
  C52      1.0000 0.61620  0.30430  0.82460  Biso   1.000  C
  H29      1.0000 0.90440  0.76310  0.66730  Biso   1.000  H
  H30      1.0000 0.40440  0.73690  0.16730  Biso   1.000  H
  H31      1.0000 0.09560  0.23690  0.33270  Biso   1.000  H
  H32      1.0000 0.59560  0.26310  0.83270  Biso   1.000  H
  C53      1.0000 0.72330  0.76240  0.71320  Biso   1.000  C
  C54      1.0000 0.22330  0.73760  0.21320  Biso   1.000  C
  C55      1.0000 0.27670  0.23760  0.28680  Biso   1.000  C
  C56      1.0000 0.77670  0.26240  0.78680  Biso   1.000  C
  C57      1.0000 0.65910  0.65680  0.71760  Biso   1.000  C
  C58      1.0000 0.15910  0.84320  0.21760  Biso   1.000  C
  C59      1.0000 0.34090  0.34320  0.28240  Biso   1.000  C
  C60      1.0000 0.84090  0.15680  0.78240  Biso   1.000  C
  C61      1.0000 0.58510  0.70380  0.74910  Biso   1.000  C
  C62      1.0000 0.08510  0.79620  0.24910  Biso   1.000  C
  C63      1.0000 0.41490  0.29620  0.25090  Biso   1.000  C
  C64      1.0000 0.91490  0.20380  0.75090  Biso   1.000  C
  C65      1.0000 0.59740  0.61040  0.64760  Biso   1.000  C
  C66      1.0000 0.09740  0.88960  0.14760  Biso   1.000  C
  C67      1.0000 0.40260  0.38960  0.35240  Biso   1.000  C
  C68      1.0000 0.90260  0.11040  0.85240  Biso   1.000  C
  H33      1.0000 0.54670  0.63300  0.60110  Biso   1.000  H
  H34      1.0000 0.04670  0.86700  0.10110  Biso   1.000  H
  H35      1.0000 0.45330  0.36700  0.39890  Biso   1.000  H
  H36      1.0000 0.95330  0.13300  0.89890  Biso   1.000  H
  H37      1.0000 0.55910  0.58090  0.67380  Biso   1.000  H
  H38      1.0000 0.05910  0.91910  0.17380  Biso   1.000  H
  H39      1.0000 0.44090  0.41910  0.32620  Biso   1.000  H
  H40      1.0000 0.94090  0.08090  0.82620  Biso   1.000  H
  H41      1.0000 0.64760  0.58810  0.62380  Biso   1.000  H
  H42      1.0000 0.14760  0.91190  0.12380  Biso   1.000  H
  H43      1.0000 0.35240  0.41190  0.37620  Biso   1.000  H
  H44      1.0000 0.85240  0.08810  0.87620  Biso   1.000  H
  C69      1.0000 0.74340  0.62500  0.79370  Biso   1.000  C
  C70      1.0000 0.24340  0.87500  0.29370  Biso   1.000  C
  C71      1.0000 0.25660  0.37500  0.20630  Biso   1.000  C
  C72      1.0000 0.75660  0.12500  0.70630  Biso   1.000  C
  H45      1.0000 0.77890  0.65630  0.83610  Biso   1.000  H
  H46      1.0000 0.27890  0.84370  0.33610  Biso   1.000  H
  H47      1.0000 0.22110  0.34370  0.16390  Biso   1.000  H
  H48      1.0000 0.72110  0.15630  0.66390  Biso   1.000  H
  H49      1.0000 0.79610  0.60400  0.77120  Biso   1.000  H
  H50      1.0000 0.29610  0.89600  0.27120  Biso   1.000  H
  H51      1.0000 0.20390  0.39600  0.22880  Biso   1.000  H
  H52      1.0000 0.70390  0.10400  0.72880  Biso   1.000  H
  H53      1.0000 0.70840  0.59470  0.82150  Biso   1.000  H
  H54      1.0000 0.20840  0.90530  0.32150  Biso   1.000  H
  H55      1.0000 0.29160  0.40530  0.17850  Biso   1.000  H
  H56      1.0000 0.79160  0.09470  0.67850  Biso   1.000  H
  C73      1.0000 0.47800  0.72160  0.67460  Biso   1.000  C
  C74      1.0000 0.97800  0.77840  0.17460  Biso   1.000  C
  C75      1.0000 0.52200  0.27840  0.32540  Biso   1.000  C
  C76      1.0000 0.02200  0.22160  0.82540  Biso   1.000  C
  H57      1.0000 0.49590  0.73360  0.62180  Biso   1.000  H
  H58      1.0000 0.99590  0.76640  0.12180  Biso   1.000  H
  H59      1.0000 0.50410  0.26640  0.37820  Biso   1.000  H
  H60      1.0000 0.00410  0.23360  0.87820  Biso   1.000  H
  H61      1.0000 0.44270  0.75620  0.69430  Biso   1.000  H
  H62      1.0000 0.94270  0.74380  0.19430  Biso   1.000  H
  H63      1.0000 0.55730  0.24380  0.30570  Biso   1.000  H
  H64      1.0000 0.05730  0.25620  0.80570  Biso   1.000  H
  H65      1.0000 0.43030  0.68590  0.66230  Biso   1.000  H
  H66      1.0000 0.93030  0.81410  0.16230  Biso   1.000  H
  H67      1.0000 0.56970  0.31410  0.33770  Biso   1.000  H
  H68      1.0000 0.06970  0.18590  0.83770  Biso   1.000  H
  C77      1.0000 0.55990  0.68490  0.83400  Biso   1.000  C
  C78      1.0000 0.05990  0.81510  0.33400  Biso   1.000  C
  C79      1.0000 0.44010  0.31510  0.16600  Biso   1.000  C
  C80      1.0000 0.94010  0.18490  0.66600  Biso   1.000  C
  H69      1.0000 0.62600  0.67460  0.87830  Biso   1.000  H
  H70      1.0000 0.12600  0.82540  0.37830  Biso   1.000  H
  H71      1.0000 0.37400  0.32540  0.12170  Biso   1.000  H
  H72      1.0000 0.87400  0.17460  0.62170  Biso   1.000  H
  H73      1.0000 0.51300  0.64870  0.82310  Biso   1.000  H
  H74      1.0000 0.01300  0.85130  0.32310  Biso   1.000  H
  H75      1.0000 0.48700  0.35130  0.17690  Biso   1.000  H
  H76      1.0000 0.98700  0.14870  0.67690  Biso   1.000  H
  H77      1.0000 0.52470  0.71930  0.85430  Biso   1.000  H
  H78      1.0000 0.02470  0.78070  0.35430  Biso   1.000  H
  H79      1.0000 0.47530  0.28070  0.14570  Biso   1.000  H
  H80      1.0000 0.97530  0.21930  0.64570  Biso   1.000  H
  C81      1.0000 0.05330  0.63480  0.81030  Biso   1.000  C
  C82      1.0000 0.55330  0.86520  0.31030  Biso   1.000  C
  C83      1.0000 0.94670  0.36520  0.18970  Biso   1.000  C
  C84      1.0000 0.44670  0.13480  0.68970  Biso   1.000  C
  H81      1.0000 0.01890  0.66590  0.76720  Biso   1.000  H
  H82      1.0000 0.51890  0.83410  0.26720  Biso   1.000  H
  H83      1.0000 0.98110  0.33410  0.23280  Biso   1.000  H
  H84      1.0000 0.48110  0.16590  0.73280  Biso   1.000  H
  H85      1.0000 0.08920  0.60420  0.78360  Biso   1.000  H
  H86      1.0000 0.58920  0.89580  0.28360  Biso   1.000  H
  H87      1.0000 0.91080  0.39580  0.21640  Biso   1.000  H
  H88      1.0000 0.41080  0.10420  0.71640  Biso   1.000  H
  H89      1.0000 0.99970  0.61400  0.83190  Biso   1.000  H
  H90      1.0000 0.49970  0.88600  0.33190  Biso   1.000  H
  H91      1.0000 0.00030  0.38600  0.16810  Biso   1.000  H
  H92      1.0000 0.50030  0.11400  0.66810  Biso   1.000  H
  C85      1.0000 0.19250  0.61920  0.95760  Biso   1.000  C
  C86      1.0000 0.69250  0.88080  0.45760  Biso   1.000  C
  C87      1.0000 0.80750  0.38080  0.04240  Biso   1.000  C
  C88      1.0000 0.30750  0.11920  0.54240  Biso   1.000  C
  H93      1.0000 0.13960  0.59310  0.97270  Biso   1.000  H
  H94      1.0000 0.63960  0.90690  0.47270  Biso   1.000  H
  H95      1.0000 0.86040  0.40690  0.02730  Biso   1.000  H
  H96      1.0000 0.36040  0.09310  0.52730  Biso   1.000  H
  H97      1.0000 0.24040  0.59330  0.93590  Biso   1.000  H
  H98      1.0000 0.74040  0.90670  0.43590  Biso   1.000  H
  H99      1.0000 0.75960  0.40670  0.06410  Biso   1.000  H
  H100     1.0000 0.25960  0.09330  0.56410  Biso   1.000  H
  H101     1.0000 0.23350  0.64170  0.00910  Biso   1.000  H
  H102     1.0000 0.73350  0.85830  0.50910  Biso   1.000  H
  H103     1.0000 0.76650  0.35830  0.99090  Biso   1.000  H
  H104     1.0000 0.26650  0.14170  0.49090  Biso   1.000  H
  C89      1.0000 0.31380  0.72720  0.92920  Biso   1.000  C
  C90      1.0000 0.81380  0.77280  0.42920  Biso   1.000  C
  C91      1.0000 0.68620  0.27280  0.07080  Biso   1.000  C
  C92      1.0000 0.18620  0.22720  0.57080  Biso   1.000  C
  H105     1.0000 0.29570  0.73920  0.98180  Biso   1.000  H
  H106     1.0000 0.79570  0.76080  0.48180  Biso   1.000  H
  H107     1.0000 0.70430  0.26080  0.01820  Biso   1.000  H
  H108     1.0000 0.20430  0.23920  0.51820  Biso   1.000  H
  H109     1.0000 0.36060  0.69100  0.94130  Biso   1.000  H
  H110     1.0000 0.86060  0.80900  0.44130  Biso   1.000  H
  H111     1.0000 0.63940  0.30900  0.05870  Biso   1.000  H
  H112     1.0000 0.13940  0.19100  0.55870  Biso   1.000  H
  H113     1.0000 0.35020  0.76150  0.91000  Biso   1.000  H
  H114     1.0000 0.85020  0.73850  0.41000  Biso   1.000  H
  H115     1.0000 0.64980  0.23850  0.09000  Biso   1.000  H
  H116     1.0000 0.14980  0.26150  0.59000  Biso   1.000  H
  C93      1.0000 0.23770  0.69200  0.77250  Biso   1.000  C
  C94      1.0000 0.73770  0.80800  0.27250  Biso   1.000  C
  C95      1.0000 0.76230  0.30800  0.22750  Biso   1.000  C
  C96      1.0000 0.26230  0.19200  0.72750  Biso   1.000  C
  H117     1.0000 0.17240  0.68120  0.72760  Biso   1.000  H
  H118     1.0000 0.67240  0.81880  0.22760  Biso   1.000  H
  H119     1.0000 0.82760  0.31880  0.27240  Biso   1.000  H
  H120     1.0000 0.32760  0.18120  0.77240  Biso   1.000  H
  H121     1.0000 0.27250  0.72670  0.75250  Biso   1.000  H
  H122     1.0000 0.77250  0.77330  0.25250  Biso   1.000  H
  H123     1.0000 0.72750  0.27330  0.24750  Biso   1.000  H
  H124     1.0000 0.22750  0.22670  0.74750  Biso   1.000  H
  H125     1.0000 0.28550  0.65630  0.78450  Biso   1.000  H
  H126     1.0000 0.78550  0.84370  0.28450  Biso   1.000  H
  H127     1.0000 0.71450  0.34370  0.21550  Biso   1.000  H
  H128     1.0000 0.21450  0.15630  0.71550  Biso   1.000  H
  C97      1.0000 0.28250  0.90080  0.67420  Biso   1.000  C
  C98      1.0000 0.78250  0.59920  0.17420  Biso   1.000  C
  C99      1.0000 0.71750  0.09920  0.32580  Biso   1.000  C
  C100     1.0000 0.21750  0.40080  0.82580  Biso   1.000  C
  H129     1.0000 0.31680  0.87700  0.72730  Biso   1.000  H
  H130     1.0000 0.81680  0.62300  0.22730  Biso   1.000  H
  H131     1.0000 0.68320  0.12300  0.27270  Biso   1.000  H
  H132     1.0000 0.18320  0.37700  0.77270  Biso   1.000  H
  H133     1.0000 0.32230  0.93980  0.67610  Biso   1.000  H
  H134     1.0000 0.82230  0.56020  0.17610  Biso   1.000  H
  H135     1.0000 0.67770  0.06020  0.32390  Biso   1.000  H
  H136     1.0000 0.17770  0.43980  0.82390  Biso   1.000  H
  C101     1.0000 0.28560  0.86310  0.59400  Biso   1.000  C
  C102     1.0000 0.78560  0.63690  0.09400  Biso   1.000  C
  C103     1.0000 0.71440  0.13690  0.40600  Biso   1.000  C
  C104     1.0000 0.21440  0.36310  0.90600  Biso   1.000  C
  H137     1.0000 0.26910  0.88950  0.54170  Biso   1.000  H
  H138     1.0000 0.76910  0.61050  0.04170  Biso   1.000  H
  H139     1.0000 0.73090  0.11050  0.45830  Biso   1.000  H
  H140     1.0000 0.23090  0.38950  0.95830  Biso   1.000  H
  H141     1.0000 0.35610  0.84380  0.60230  Biso   1.000  H
  H142     1.0000 0.85610  0.65620  0.10230  Biso   1.000  H
  H143     1.0000 0.64390  0.15620  0.39770  Biso   1.000  H
  H144     1.0000 0.14390  0.34380  0.89770  Biso   1.000  H
  C105     1.0000 0.00360  0.58810  0.41140  Biso   1.000  C
  C106     1.0000 0.50360  0.91190  0.91140  Biso   1.000  C
  C107     1.0000 0.99640  0.41190  0.58860  Biso   1.000  C
  C108     1.0000 0.49640  0.08810  0.08860  Biso   1.000  C
  H145     1.0000 0.96710  0.61310  0.36010  Biso   1.000  H
  H146     1.0000 0.46710  0.88690  0.86010  Biso   1.000  H
  H147     1.0000 0.03290  0.38690  0.63990  Biso   1.000  H
  H148     1.0000 0.53290  0.11310  0.13990  Biso   1.000  H
  H149     1.0000 0.96470  0.54870  0.40900  Biso   1.000  H
  H150     1.0000 0.46470  0.95130  0.90900  Biso   1.000  H
  H151     1.0000 0.03530  0.45130  0.59100  Biso   1.000  H
  H152     1.0000 0.53530  0.04870  0.09100  Biso   1.000  H
  C109     1.0000 0.00640  0.62320  0.49440  Biso   1.000  C
  C110     1.0000 0.50640  0.87680  0.99440  Biso   1.000  C
  C111     1.0000 0.99360  0.37680  0.50560  Biso   1.000  C
  C112     1.0000 0.49360  0.12320  0.00560  Biso   1.000  C
  H153     1.0000 0.93630  0.64210  0.48970  Biso   1.000  H
  H154     1.0000 0.43630  0.85790  0.98970  Biso   1.000  H
  H155     1.0000 0.06370  0.35790  0.51030  Biso   1.000  H
  H156     1.0000 0.56370  0.14210  0.01030  Biso   1.000  H
  H157     1.0000 0.02450  0.59480  0.54470  Biso   1.000  H
  H158     1.0000 0.52450  0.90520  0.04470  Biso   1.000  H
  H159     1.0000 0.97550  0.40520  0.45530  Biso   1.000  H
  H160     1.0000 0.47550  0.09480  0.95530  Biso   1.000  H
  C113     1.0000 0.09590  0.72390  0.54840  Biso   1.000  C
  C114     1.0000 0.59590  0.77610  0.04840  Biso   1.000  C
  C115     1.0000 0.90410  0.27610  0.45160  Biso   1.000  C
  C116     1.0000 0.40410  0.22390  0.95160  Biso   1.000  C
  C117     1.0000 0.19590  0.76230  0.54750  Biso   1.000  C
  C118     1.0000 0.69590  0.73770  0.04750  Biso   1.000  C
  C119     1.0000 0.80410  0.23770  0.45250  Biso   1.000  C
  C120     1.0000 0.30410  0.26230  0.95250  Biso   1.000  C
  N1       1.0000 0.84840  0.86410  0.93230  Biso   1.000  N
  N2       1.0000 0.34840  0.63590  0.43230  Biso   1.000  N
  N3       1.0000 0.15160  0.13590  0.06770  Biso   1.000  N
  N4       1.0000 0.65160  0.36410  0.56770  Biso   1.000  N
  N5       1.0000 0.07190  0.71290  0.92330  Biso   1.000  N
  N6       1.0000 0.57190  0.78710  0.42330  Biso   1.000  N
  N7       1.0000 0.92810  0.28710  0.07670  Biso   1.000  N
  N8       1.0000 0.42810  0.21290  0.57670  Biso   1.000  N
  N9       1.0000 0.14390  0.77190  0.84260  Biso   1.000  N
  N10      1.0000 0.64390  0.72810  0.34260  Biso   1.000  N
  N11      1.0000 0.85610  0.22810  0.15740  Biso   1.000  N
  N12      1.0000 0.35610  0.27190  0.65740  Biso   1.000  N
  N13      1.0000 0.94720  0.85230  0.66360  Biso   1.000  N
  N14      1.0000 0.44720  0.64770  0.16360  Biso   1.000  N
  N15      1.0000 0.05280  0.14770  0.33640  Biso   1.000  N
  N16      1.0000 0.55280  0.35230  0.83640  Biso   1.000  N
  N17      1.0000 0.72070  0.70300  0.67800  Biso   1.000  N
  N18      1.0000 0.22070  0.79700  0.17800  Biso   1.000  N
  N19      1.0000 0.27930  0.29700  0.32200  Biso   1.000  N
  N20      1.0000 0.77930  0.20300  0.82200  Biso   1.000  N
  N21      1.0000 0.65370  0.76330  0.76160  Biso   1.000  N
  N22      1.0000 0.15370  0.73670  0.26160  Biso   1.000  N
  N23      1.0000 0.34630  0.23670  0.23840  Biso   1.000  N
  N24      1.0000 0.84630  0.26330  0.73840  Biso   1.000  N
  N25      1.0000 0.16810  0.91510  0.67100  Biso   1.000  N
  N26      1.0000 0.66810  0.58490  0.17100  Biso   1.000  N
  N27      1.0000 0.83190  0.08490  0.32900  Biso   1.000  N
  N28      1.0000 0.33190  0.41510  0.82900  Biso   1.000  N
  H161     1.0000 0.14280  0.95060  0.68240  Biso   1.000  H
  H162     1.0000 0.64280  0.54940  0.18240  Biso   1.000  H
  H163     1.0000 0.85720  0.04940  0.31760  Biso   1.000  H
  H164     1.0000 0.35720  0.45060  0.81760  Biso   1.000  H
  N29      1.0000 0.20180  0.81500  0.58690  Biso   1.000  N
  N30      1.0000 0.70180  0.68500  0.08690  Biso   1.000  N
  N31      1.0000 0.79820  0.18500  0.41310  Biso   1.000  N
  N32      1.0000 0.29820  0.31500  0.91310  Biso   1.000  N
  N33      1.0000 0.11930  0.57550  0.41210  Biso   1.000  N
  N34      1.0000 0.61930  0.92450  0.91210  Biso   1.000  N
  N35      1.0000 0.88070  0.42450  0.58790  Biso   1.000  N
  N36      1.0000 0.38070  0.07550  0.08790  Biso   1.000  N
  H165     1.0000 0.14350  0.54110  0.39590  Biso   1.000  H
  H166     1.0000 0.64350  0.95890  0.89590  Biso   1.000  H
  H167     1.0000 0.85650  0.45890  0.60410  Biso   1.000  H
  H168     1.0000 0.35650  0.04110  0.10410  Biso   1.000  H
  N37      1.0000 0.08880  0.67200  0.50520  Biso   1.000  N
  N38      1.0000 0.58880  0.82800  0.00520  Biso   1.000  N
  N39      1.0000 0.91120  0.32800  0.49480  Biso   1.000  N
  N40      1.0000 0.41120  0.17200  0.99480  Biso   1.000  N
  O1       1.0000 0.02060  0.69550  0.97860  Biso   1.000  O
  O2       1.0000 0.52060  0.80450  0.47860  Biso   1.000  O
  O3       1.0000 0.97940  0.30450  0.02140  Biso   1.000  O
  O4       1.0000 0.47940  0.19550  0.52140  Biso   1.000  O
  O5       1.0000 0.16290  0.81960  0.79710  Biso   1.000  O
  O6       1.0000 0.66290  0.68040  0.29710  Biso   1.000  O
  O7       1.0000 0.83710  0.18040  0.20290  Biso   1.000  O
  O8       1.0000 0.33710  0.31960  0.70290  Biso   1.000  O
  O9       1.0000 0.77080  0.68610  0.62330  Biso   1.000  O
  O10      1.0000 0.27080  0.81390  0.12330  Biso   1.000  O
  O11      1.0000 0.22920  0.31390  0.37670  Biso   1.000  O
  O12      1.0000 0.72920  0.18610  0.87670  Biso   1.000  O
  O13      1.0000 0.63360  0.81070  0.80560  Biso   1.000  O
  O14      1.0000 0.13360  0.68930  0.30560  Biso   1.000  O
  O15      1.0000 0.36640  0.18930  0.19440  Biso   1.000  O
  O16      1.0000 0.86640  0.31070  0.69440  Biso   1.000  O
  O17      1.0000 0.03220  0.74760  0.58890  Biso   1.000  O
  O18      1.0000 0.53220  0.75240  0.08890  Biso   1.000  O
  O19      1.0000 0.96780  0.25240  0.41110  Biso   1.000  O
  O20      1.0000 0.46780  0.24760  0.91110  Biso   1.000  O
  O21      1.0000 0.26020  0.73790  0.50640  Biso   1.000  O
  O22      1.0000 0.76020  0.76210  0.00640  Biso   1.000  O
  O23      1.0000 0.73980  0.26210  0.49360  Biso   1.000  O
  O24      1.0000 0.23980  0.23790  0.99360  Biso   1.000  O
  O25      1.0000 0.88610  0.51570  0.91340  Biso   1.000  O
  O26      1.0000 0.38610  0.98430  0.41340  Biso   1.000  O
  O27      1.0000 0.11390  0.48430  0.08660  Biso   1.000  O
  O28      1.0000 0.61390  0.01570  0.58660  Biso   1.000  O
  O29      1.0000 0.07410  0.49610  0.90290  Biso   1.000  O
  O30      1.0000 0.57410  0.00390  0.40290  Biso   1.000  O
  O31      1.0000 0.92590  0.50390  0.09710  Biso   1.000  O
  O32      1.0000 0.42590  0.99610  0.59710  Biso   1.000  O
  O33      1.0000 0.98640  0.41020  0.91630  Biso   1.000  O
  O34      1.0000 0.48640  0.08980  0.41630  Biso   1.000  O
  O35      1.0000 0.01360  0.58980  0.08370  Biso   1.000  O
  O36      1.0000 0.51360  0.91020  0.58370  Biso   1.000  O
  O37      1.0000 0.92200  0.48150  0.76820  Biso   1.000  O
  O38      1.0000 0.42200  0.01850  0.26820  Biso   1.000  O
  O39      1.0000 0.07800  0.51850  0.23180  Biso   1.000  O
  O40      1.0000 0.57800  0.98150  0.73180  Biso   1.000  O
  O41      1.0000 0.37900  0.50630  0.69480  Biso   1.000  O
  O42      1.0000 0.87900  0.99370  0.19480  Biso   1.000  O
  O43      1.0000 0.62100  0.49370  0.30520  Biso   1.000  O
  O44      1.0000 0.12100  0.00630  0.80520  Biso   1.000  O
  O45      1.0000 0.19800  0.53460  0.68410  Biso   1.000  O
  O46      1.0000 0.69800  0.96540  0.18410  Biso   1.000  O
  O47      1.0000 0.80200  0.46540  0.31590  Biso   1.000  O
  O48      1.0000 0.30200  0.03460  0.81590  Biso   1.000  O
  O49      1.0000 0.29910  0.59140  0.60860  Biso   1.000  O
  O50      1.0000 0.79910  0.90860  0.10860  Biso   1.000  O
  O51      1.0000 0.70090  0.40860  0.39140  Biso   1.000  O
  O52      1.0000 0.20090  0.09140  0.89140  Biso   1.000  O
  O53      1.0000 0.24090  0.48780  0.56230  Biso   1.000  O
  O54      1.0000 0.74090  0.01220  0.06230  Biso   1.000  O
  O55      1.0000 0.75910  0.51220  0.43770  Biso   1.000  O
  O56      1.0000 0.25910  0.98780  0.93770  Biso   1.000  O
  Cl1      1.0000 0.96000  0.46980  0.86330  Biso   1.000  Cl
  Cl2      1.0000 0.46000  0.03020  0.36330  Biso   1.000  Cl
  Cl3      1.0000 0.04000  0.53020  0.13670  Biso   1.000  Cl
  Cl4      1.0000 0.54000  0.96980  0.63670  Biso   1.000  Cl
  Cl5      1.0000 0.27990  0.53083  0.64054  Biso   1.000  Cl
  Cl6      1.0000 0.77990  0.96917  0.14054  Biso   1.000  Cl
  Cl7      1.0000 0.72010  0.46917  0.35946  Biso   1.000  Cl
  Cl8      1.0000 0.22010  0.03083  0.85946  Biso   1.000  Cl
  O57      1.0000 0.00380  0.95430  0.46560  Biso   1.000  O
  O58      1.0000 0.50380  0.54570  0.96560  Biso   1.000  O
  O59      1.0000 0.99620  0.04570  0.53440  Biso   1.000  O
  O60      1.0000 0.49620  0.45430  0.03440  Biso   1.000  O
  O61      1.0000 0.96600  0.00780  0.50410  Biso   1.000  O
  O62      1.0000 0.46600  0.49220  0.00410  Biso   1.000  O
  O63      1.0000 0.03400  0.99220  0.49590  Biso   1.000  O
  O64      1.0000 0.53400  0.50780  0.99590  Biso   1.000  O
  O65      1.0000 0.02460  0.04330  0.61450  Biso   1.000  O
  O66      1.0000 0.52460  0.45670  0.11450  Biso   1.000  O
  O67      1.0000 0.97540  0.95670  0.38550  Biso   1.000  O
  O68      1.0000 0.47540  0.54330  0.88550  Biso   1.000  O
  O69      1.0000 0.90010  0.01470  0.49970  Biso   1.000  O
  O70      1.0000 0.40010  0.48530  0.99970  Biso   1.000  O
  O71      1.0000 0.09990  0.98530  0.50030  Biso   1.000  O
  O72      1.0000 0.59990  0.51470  0.00030  Biso   1.000  O
  O73      1.0000 0.99230  0.89250  0.49470  Biso   1.000  O
  O74      1.0000 0.49230  0.60750  0.99470  Biso   1.000  O
  O75      1.0000 0.00770  0.10750  0.50530  Biso   1.000  O
  O76      1.0000 0.50770  0.39250  0.00530  Biso   1.000  O
