data_image0
_cell_length_a       8.9671
_cell_length_b       9.2622
_cell_length_c       10.6485
_cell_angle_alpha    66.876
_cell_angle_beta     85.434
_cell_angle_gamma    70.606

_symmetry_space_group_name_H-M    "P 1"
_symmetry_int_tables_number       1

loop_
  _symmetry_equiv_pos_as_xyz
  'x, y, z'

loop_
  _atom_site_label
  _atom_site_occupancy
  _atom_site_fract_x
  _atom_site_fract_y
  _atom_site_fract_z
  _atom_site_thermal_displace_type
  _atom_site_B_iso_or_equiv
  _atom_site_type_symbol
  Cu1      1.0000 0.00000  0.00000  0.00000  Biso   1.000  Cu
  S1       1.0000 0.48473  0.86411  0.19192  Biso   1.000  S
  S2       1.0000 0.51527  0.13589  0.80808  Biso   1.000  S
  S3       1.0000 0.63951  0.62631  0.05433  Biso   1.000  S
  S4       1.0000 0.36049  0.37369  0.94567  Biso   1.000  S
  O1       1.0000 0.06946  0.05900  0.81493  Biso   1.000  O
  O2       1.0000 0.93054  0.94100  0.18507  Biso   1.000  O
  O3       1.0000 0.40280  0.90920  0.62880  Biso   1.000  O
  O4       1.0000 0.59720  0.09080  0.37120  Biso   1.000  O
  O5       1.0000 0.15930  0.92800  0.61270  Biso   1.000  O
  O6       1.0000 0.84070  0.07200  0.38730  Biso   1.000  O
  O7       1.0000 0.36770  0.51220  0.34290  Biso   1.000  O
  O8       1.0000 0.63230  0.48780  0.65710  Biso   1.000  O
  O9       1.0000 0.24860  0.68410  0.43340  Biso   1.000  O
  O10      1.0000 0.75140  0.31590  0.56660  Biso   1.000  O
  O11      1.0000 0.92530  0.54040  0.80200  Biso   1.000  O
  O12      1.0000 0.07470  0.45960  0.19800  Biso   1.000  O
  O13      1.0000 0.96390  0.28910  0.93853  Biso   1.000  O
  O14      1.0000 0.03610  0.71090  0.06147  Biso   1.000  O
  N1       1.0000 0.22420  0.93200  0.07197  Biso   1.000  N
  N2       1.0000 0.77580  0.06800  0.92803  Biso   1.000  N
  N3       1.0000 0.33200  0.81880  0.02594  Biso   1.000  N
  N4       1.0000 0.66800  0.18120  0.97406  Biso   1.000  N
  N5       1.0000 0.26100  0.98290  0.62140  Biso   1.000  N
  N6       1.0000 0.73900  0.01710  0.37860  Biso   1.000  N
  N7       1.0000 0.28840  0.54720  0.42980  Biso   1.000  N
  N8       1.0000 0.71160  0.45280  0.57020  Biso   1.000  N
  N9       1.0000 0.98530  0.39190  0.83010  Biso   1.000  N
  N10      1.0000 0.01470  0.60810  0.16990  Biso   1.000  N
  C1       1.0000 0.19390  0.08030  0.22790  Biso   1.000  C
  C2       1.0000 0.80610  0.91970  0.77210  Biso   1.000  C
  H1       1.0000 0.09640  0.15390  0.17580  Biso   1.000  H
  H2       1.0000 0.90360  0.84610  0.82420  Biso   1.000  H
  H3       1.0000 0.25600  0.14420  0.23440  Biso   1.000  H
  H4       1.0000 0.74400  0.85580  0.76560  Biso   1.000  H
  H5       1.0000 0.17140  0.01510  0.31810  Biso   1.000  H
  H6       1.0000 0.82860  0.98490  0.68190  Biso   1.000  H
  C3       1.0000 0.28380  0.96830  0.15900  Biso   1.000  C
  C4       1.0000 0.71620  0.03170  0.84100  Biso   1.000  C
  C5       1.0000 0.47260  0.77130  0.08220  Biso   1.000  C
  C6       1.0000 0.52740  0.22870  0.91780  Biso   1.000  C
  C7       1.0000 0.54820  0.55270  0.95620  Biso   1.000  C
  C8       1.0000 0.45180  0.44730  0.04380  Biso   1.000  C
  H7       1.0000 0.48010  0.64720  0.88210  Biso   1.000  H
  H8       1.0000 0.51990  0.35280  0.11790  Biso   1.000  H
  H9       1.0000 0.63010  0.48770  0.91610  Biso   1.000  H
  H10      1.0000 0.36990  0.51230  0.08390  Biso   1.000  H
  C9       1.0000 0.11560  0.17570  0.73190  Biso   1.000  C
  C10      1.0000 0.88440  0.82430  0.26810  Biso   1.000  C
  C11      1.0000 0.21280  0.14930  0.62330  Biso   1.000  C
  C12      1.0000 0.78720  0.85070  0.37670  Biso   1.000  C
  C13      1.0000 0.27130  0.26440  0.52770  Biso   1.000  C
  C14      1.0000 0.72870  0.73560  0.47230  Biso   1.000  C
  H11      1.0000 0.33600  0.23880  0.46150  Biso   1.000  H
  H12      1.0000 0.66400  0.76120  0.53850  Biso   1.000  H
  C15      1.0000 0.23110  0.42010  0.53270  Biso   1.000  C
  C16      1.0000 0.76890  0.57990  0.46730  Biso   1.000  C
  C17      1.0000 0.13860  0.45870  0.63130  Biso   1.000  C
  C18      1.0000 0.86140  0.54130  0.36870  Biso   1.000  C
  H13      1.0000 0.11280  0.56410  0.63250  Biso   1.000  H
  H14      1.0000 0.88720  0.43590  0.36750  Biso   1.000  H
  C19      1.0000 0.08370  0.33930  0.72970  Biso   1.000  C
  C20      1.0000 0.91630  0.66070  0.27030  Biso   1.000  C
