data_image0
_cell_length_a       8.518
_cell_length_b       9.978
_cell_length_c       10.444
_cell_angle_alpha    108.853
_cell_angle_beta     98.761
_cell_angle_gamma    103.085

_symmetry_space_group_name_H-M    "P 1"
_symmetry_int_tables_number       1

loop_
  _symmetry_equiv_pos_as_xyz
  'x, y, z'

loop_
  _atom_site_label
  _atom_site_occupancy
  _atom_site_fract_x
  _atom_site_fract_y
  _atom_site_fract_z
  _atom_site_thermal_displace_type
  _atom_site_B_iso_or_equiv
  _atom_site_type_symbol
  Cu1      1.0000 0.00000  0.00000  0.00000  Biso   1.000  Cu
  S1       1.0000 0.91364  0.12173  0.43111  Biso   1.000  S
  S2       1.0000 0.08636  0.87827  0.56889  Biso   1.000  S
  S3       1.0000 0.27692  0.26983  0.57036  Biso   1.000  S
  S4       1.0000 0.72308  0.73017  0.42964  Biso   1.000  S
  O1       1.0000 0.91130  0.79310  0.96940  Biso   1.000  O
  O2       1.0000 0.08870  0.20690  0.03060  Biso   1.000  O
  O3       1.0000 0.58480  0.64370  0.91160  Biso   1.000  O
  O4       1.0000 0.41520  0.35630  0.08840  Biso   1.000  O
  O5       1.0000 0.58590  0.41740  0.85290  Biso   1.000  O
  O6       1.0000 0.41410  0.58260  0.14710  Biso   1.000  O
  O7       1.0000 0.83910  0.34980  0.27370  Biso   1.000  O
  O8       1.0000 0.16090  0.65020  0.72630  Biso   1.000  O
  O9       1.0000 0.09230  0.48260  0.37910  Biso   1.000  O
  O10      1.0000 0.90770  0.51740  0.62090  Biso   1.000  O
  O11      1.0000 0.33140  0.90500  0.28590  Biso   1.000  O
  O12      1.0000 0.66860  0.09500  0.71410  Biso   1.000  O
  O13      1.0000 0.24560  0.91310  0.08400  Biso   1.000  O
  O14      1.0000 0.75440  0.08690  0.91600  Biso   1.000  O
  N1       1.0000 0.64720  0.54920  0.92350  Biso   1.000  N
  N2       1.0000 0.35280  0.45080  0.07650  Biso   1.000  N
  N3       1.0000 0.96190  0.45140  0.29370  Biso   1.000  N
  N4       1.0000 0.03810  0.54860  0.70630  Biso   1.000  N
  N5       1.0000 0.22720  0.86280  0.17600  Biso   1.000  N
  N6       1.0000 0.77280  0.13720  0.82400  Biso   1.000  N
  N7       1.0000 0.98340  0.06400  0.19790  Biso   1.000  N
  N8       1.0000 0.01660  0.93600  0.80210  Biso   1.000  N
  N9       1.0000 0.13490  0.13970  0.29380  Biso   1.000  N
  N10      1.0000 0.86510  0.86030  0.70620  Biso   1.000  N
  C1       1.0000 0.80040  0.59290  0.03100  Biso   1.000  C
  C2       1.0000 0.19960  0.40710  0.96900  Biso   1.000  C
  C3       1.0000 0.80860  0.50460  0.10660  Biso   1.000  C
  C4       1.0000 0.19140  0.49540  0.89340  Biso   1.000  C
  H1       1.0000 0.72040  0.42140  0.08930  Biso   1.000  H
  H2       1.0000 0.27960  0.57860  0.91070  Biso   1.000  H
  C5       1.0000 0.95090  0.54210  0.20930  Biso   1.000  C
  C6       1.0000 0.04910  0.45790  0.79070  Biso   1.000  C
  C7       1.0000 0.08350  0.66170  0.23260  Biso   1.000  C
  C8       1.0000 0.91650  0.33830  0.76740  Biso   1.000  C
  H3       1.0000 0.17870  0.68530  0.30220  Biso   1.000  H
  H4       1.0000 0.82130  0.31470  0.69780  Biso   1.000  H
  C9       1.0000 0.07480  0.74670  0.15230  Biso   1.000  C
  C10      1.0000 0.92520  0.25330  0.84770  Biso   1.000  C
  C11      1.0000 0.93070  0.72010  0.04770  Biso   1.000  C
  C12      1.0000 0.06930  0.27990  0.95230  Biso   1.000  C
  C13      1.0000 0.68060  0.97400  0.17270  Biso   1.000  C
  C14      1.0000 0.31940  0.02600  0.82730  Biso   1.000  C
  H5       1.0000 0.67650  0.92500  0.07600  Biso   1.000  H
  H6       1.0000 0.32350  0.07500  0.92400  Biso   1.000  H
  H7       1.0000 0.62270  0.04750  0.18180  Biso   1.000  H
  H8       1.0000 0.37730  0.95250  0.81820  Biso   1.000  H
  H9       1.0000 0.62870  0.90270  0.20850  Biso   1.000  H
  H10      1.0000 0.37130  0.09730  0.79150  Biso   1.000  H
  C15      1.0000 0.85640  0.04650  0.25270  Biso   1.000  C
  C16      1.0000 0.14360  0.95350  0.74730  Biso   1.000  C
  C17      1.0000 0.11770  0.17690  0.42020  Biso   1.000  C
  C18      1.0000 0.88230  0.82310  0.57980  Biso   1.000  C
  C19      1.0000 0.45550  0.29810  0.49590  Biso   1.000  C
  C20      1.0000 0.54450  0.70190  0.50410  Biso   1.000  C
  H11      1.0000 0.55470  0.31650  0.56630  Biso   1.000  H
  H12      1.0000 0.44530  0.68350  0.43370  Biso   1.000  H
  H13      1.0000 0.44420  0.20710  0.41930  Biso   1.000  H
  H14      1.0000 0.55580  0.79290  0.58070  Biso   1.000  H
  C21      1.0000 0.48040  0.42380  0.44280  Biso   1.000  C
  C22      1.0000 0.51960  0.57620  0.55720  Biso   1.000  C
  H15      1.0000 0.38040  0.40730  0.37410  Biso   1.000  H
  H16      1.0000 0.61960  0.59270  0.62590  Biso   1.000  H
  H17      1.0000 0.57060  0.42250  0.39630  Biso   1.000  H
  H18      1.0000 0.42940  0.57750  0.60370  Biso   1.000  H
