data_image0
_cell_length_a       8.7088
_cell_length_b       11.4924
_cell_length_c       11.8448
_cell_angle_alpha    65.594
_cell_angle_beta     70.588
_cell_angle_gamma    73.989

_symmetry_space_group_name_H-M    "P 1"
_symmetry_int_tables_number       1

loop_
  _symmetry_equiv_pos_as_xyz
  'x, y, z'

loop_
  _atom_site_label
  _atom_site_occupancy
  _atom_site_fract_x
  _atom_site_fract_y
  _atom_site_fract_z
  _atom_site_thermal_displace_type
  _atom_site_B_iso_or_equiv
  _atom_site_type_symbol
  Cu1      1.0000 0.50000  0.00000  0.50000  Biso   1.000  Cu
  S1       1.0000 0.95871  0.03231  0.69528  Biso   1.000  S
  S2       1.0000 0.04129  0.96769  0.30472  Biso   1.000  S
  S3       1.0000 0.99729  0.82549  0.94680  Biso   1.000  S
  S4       1.0000 0.00271  0.17451  0.05320  Biso   1.000  S
  S5       1.0000 0.42660  0.09154  0.11444  Biso   1.000  S
  S6       1.0000 0.57340  0.90846  0.88556  Biso   1.000  S
  S7       1.0000 0.30196  0.37605  0.04862  Biso   1.000  S
  S8       1.0000 0.69804  0.62395  0.95138  Biso   1.000  S
  O1       1.0000 0.79340  0.21200  0.49340  Biso   1.000  O
  O2       1.0000 0.20660  0.78800  0.50660  Biso   1.000  O
  O3       1.0000 0.90070  0.32630  0.29850  Biso   1.000  O
  O4       1.0000 0.09930  0.67370  0.70150  Biso   1.000  O
  O5       1.0000 0.60290  0.76480  0.16510  Biso   1.000  O
  O6       1.0000 0.39710  0.23520  0.83490  Biso   1.000  O
  O7       1.0000 0.33940  0.78850  0.19280  Biso   1.000  O
  O8       1.0000 0.66060  0.21150  0.80720  Biso   1.000  O
  O9       1.0000 0.06680  0.38710  0.46260  Biso   1.000  O
  O10      1.0000 0.93320  0.61290  0.53740  Biso   1.000  O
  O11      1.0000 0.15170  0.31570  0.63340  Biso   1.000  O
  O12      1.0000 0.84830  0.68430  0.36660  Biso   1.000  O
  O13      1.0000 0.47120  0.20417  0.51540  Biso   1.000  O
  O14      1.0000 0.52880  0.79583  0.48460  Biso   1.000  O
  N1       1.0000 0.26670  0.98830  0.60720  Biso   1.000  N
  N2       1.0000 0.73330  0.01170  0.39280  Biso   1.000  N
  N3       1.0000 0.23870  0.90110  0.73190  Biso   1.000  N
  N4       1.0000 0.76130  0.09890  0.26810  Biso   1.000  N
  N5       1.0000 0.42520  0.07480  0.33400  Biso   1.000  N
  N6       1.0000 0.57480  0.92520  0.66600  Biso   1.000  N
  N7       1.0000 0.36970  0.20520  0.27440  Biso   1.000  N
  N8       1.0000 0.63030  0.79480  0.72560  Biso   1.000  N
  N9       1.0000 0.78290  0.30030  0.39220  Biso   1.000  N
  N10      1.0000 0.21710  0.69970  0.60780  Biso   1.000  N
  N11      1.0000 0.47100  0.72260  0.21410  Biso   1.000  N
  N12      1.0000 0.52900  0.27740  0.78590  Biso   1.000  N
  N13      1.0000 0.17080  0.36960  0.51850  Biso   1.000  N
  N14      1.0000 0.82920  0.63040  0.48150  Biso   1.000  N
  C1       1.0000 0.13420  0.06070  0.57550  Biso   1.000  C
  C2       1.0000 0.86580  0.93930  0.42450  Biso   1.000  C
  H1       1.0000 0.13450  0.12290  0.49450  Biso   1.000  H
  H2       1.0000 0.86550  0.87710  0.50550  Biso   1.000  H
  C3       1.0000 0.08330  0.91520  0.78930  Biso   1.000  C
  C4       1.0000 0.91670  0.08480  0.21070  Biso   1.000  C
  C5       1.0000 0.16960  0.68780  0.97720  Biso   1.000  C
  C6       1.0000 0.83040  0.31220  0.02280  Biso   1.000  C
  H3       1.0000 0.20230  0.64990  0.91150  Biso   1.000  H
  H4       1.0000 0.79770  0.35010  0.08850  Biso   1.000  H
  H5       1.0000 0.26410  0.71760  0.97610  Biso   1.000  H
  H6       1.0000 0.73590  0.28240  0.02390  Biso   1.000  H
  C7       1.0000 0.11070  0.59190  0.10300  Biso   1.000  C
  C8       1.0000 0.88930  0.40810  0.89700  Biso   1.000  C
  H7       1.0000 0.01980  0.56010  0.10080  Biso   1.000  H
  H8       1.0000 0.98020  0.43990  0.89920  Biso   1.000  H
  H9       1.0000 0.06900  0.63370  0.16610  Biso   1.000  H
  H10      1.0000 0.93100  0.36630  0.83390  Biso   1.000  H
  C9       1.0000 0.45770  0.00710  0.26310  Biso   1.000  C
  C10      1.0000 0.54230  0.99290  0.73690  Biso   1.000  C
  H11      1.0000 0.49550  0.91840  0.29120  Biso   1.000  H
  H12      1.0000 0.50450  0.08160  0.70880  Biso   1.000  H
  C11      1.0000 0.36460  0.22690  0.15800  Biso   1.000  C
  C12      1.0000 0.63540  0.77310  0.84200  Biso   1.000  C
  C13      1.0000 0.24320  0.47830  0.14410  Biso   1.000  C
  C14      1.0000 0.75680  0.52170  0.85590  Biso   1.000  C
  H13      1.0000 0.20330  0.42690  0.23340  Biso   1.000  H
  H14      1.0000 0.79670  0.57310  0.76660  Biso   1.000  H
  H15      1.0000 0.33960  0.51040  0.13630  Biso   1.000  H
  H16      1.0000 0.66040  0.48960  0.86370  Biso   1.000  H
  C15      1.0000 0.47500  0.32210  0.45420  Biso   1.000  C
  C16      1.0000 0.52500  0.67790  0.54580  Biso   1.000  C
  C17      1.0000 0.62220  0.38020  0.38320  Biso   1.000  C
  C18      1.0000 0.37780  0.61980  0.61680  Biso   1.000  C
  C19      1.0000 0.62010  0.50850  0.30680  Biso   1.000  C
  C20      1.0000 0.37990  0.49150  0.69320  Biso   1.000  C
  H17      1.0000 0.71860  0.54060  0.26130  Biso   1.000  H
  H18      1.0000 0.28140  0.45940  0.73870  Biso   1.000  H
  C21      1.0000 0.47130  0.58940  0.29800  Biso   1.000  C
  C22      1.0000 0.52870  0.41060  0.70200  Biso   1.000  C
  C23      1.0000 0.32270  0.54390  0.36620  Biso   1.000  C
  C24      1.0000 0.67730  0.45610  0.63380  Biso   1.000  C
  H19      1.0000 0.22260  0.59880  0.35970  Biso   1.000  H
  H20      1.0000 0.77740  0.40120  0.64030  Biso   1.000  H
  C25      1.0000 0.32760  0.41660  0.44300  Biso   1.000  C
  C26      1.0000 0.67240  0.58340  0.55700  Biso   1.000  C
