data_image0
_cell_length_a       13.445
_cell_length_b       20.115
_cell_length_c       9.1833
_cell_angle_alpha    90
_cell_angle_beta     90.38
_cell_angle_gamma    90

_symmetry_space_group_name_H-M    "P 1"
_symmetry_int_tables_number       1

loop_
  _symmetry_equiv_pos_as_xyz
  'x, y, z'

loop_
  _atom_site_label
  _atom_site_occupancy
  _atom_site_fract_x
  _atom_site_fract_y
  _atom_site_fract_z
  _atom_site_thermal_displace_type
  _atom_site_B_iso_or_equiv
  _atom_site_type_symbol
  C1       1.0000 0.93750  0.15490  0.32300  Biso   1.000  C
  C2       1.0000 0.06250  0.15490  0.67700  Biso   1.000  C
  C3       1.0000 0.43750  0.65490  0.32300  Biso   1.000  C
  C4       1.0000 0.56250  0.65490  0.67700  Biso   1.000  C
  C5       1.0000 0.89120  0.20530  0.22200  Biso   1.000  C
  C6       1.0000 0.10880  0.20530  0.77800  Biso   1.000  C
  C7       1.0000 0.39120  0.70530  0.22200  Biso   1.000  C
  C8       1.0000 0.60880  0.70530  0.77800  Biso   1.000  C
  C9       1.0000 0.85290  0.26390  0.28110  Biso   1.000  C
  C10      1.0000 0.14710  0.26390  0.71890  Biso   1.000  C
  C11      1.0000 0.35290  0.76390  0.28110  Biso   1.000  C
  C12      1.0000 0.64710  0.76390  0.71890  Biso   1.000  C
  C13      1.0000 0.86410  0.28290  0.43000  Biso   1.000  C
  C14      1.0000 0.13590  0.28290  0.57000  Biso   1.000  C
  C15      1.0000 0.36410  0.78290  0.43000  Biso   1.000  C
  C16      1.0000 0.63590  0.78290  0.57000  Biso   1.000  C
  H1       1.0000 0.89560  0.25380  0.49430  Biso   1.000  H
  H2       1.0000 0.10440  0.25380  0.50570  Biso   1.000  H
  H3       1.0000 0.39560  0.75380  0.49430  Biso   1.000  H
  H4       1.0000 0.60440  0.75380  0.50570  Biso   1.000  H
  C17      1.0000 0.83000  0.34210  0.48200  Biso   1.000  C
  C18      1.0000 0.17000  0.34210  0.51800  Biso   1.000  C
  C19      1.0000 0.33000  0.84210  0.48200  Biso   1.000  C
  C20      1.0000 0.67000  0.84210  0.51800  Biso   1.000  C
  H5       1.0000 0.83570  0.35320  0.58010  Biso   1.000  H
  H6       1.0000 0.16430  0.35320  0.41990  Biso   1.000  H
  H7       1.0000 0.33570  0.85320  0.58010  Biso   1.000  H
  H8       1.0000 0.66430  0.85320  0.41990  Biso   1.000  H
  C21      1.0000 0.78600  0.38570  0.38000  Biso   1.000  C
  C22      1.0000 0.21400  0.38570  0.62000  Biso   1.000  C
  C23      1.0000 0.28600  0.88570  0.38000  Biso   1.000  C
  C24      1.0000 0.71400  0.88570  0.62000  Biso   1.000  C
  H9       1.0000 0.76660  0.42700  0.41480  Biso   1.000  H
  H10      1.0000 0.23340  0.42700  0.58520  Biso   1.000  H
  H11      1.0000 0.26660  0.92700  0.41480  Biso   1.000  H
  H12      1.0000 0.73340  0.92700  0.58520  Biso   1.000  H
  C25      1.0000 0.77120  0.37340  0.24200  Biso   1.000  C
  C26      1.0000 0.22880  0.37340  0.75800  Biso   1.000  C
  C27      1.0000 0.27120  0.87340  0.24200  Biso   1.000  C
  C28      1.0000 0.72880  0.87340  0.75800  Biso   1.000  C
  H13      1.0000 0.73590  0.40310  0.18370  Biso   1.000  H
  H14      1.0000 0.26410  0.40310  0.81630  Biso   1.000  H
  H15      1.0000 0.23590  0.90310  0.18370  Biso   1.000  H
  H16      1.0000 0.76410  0.90310  0.81630  Biso   1.000  H
  C29      1.0000 0.81120  0.31140  0.18110  Biso   1.000  C
  C30      1.0000 0.18880  0.31140  0.81890  Biso   1.000  C
  C31      1.0000 0.31120  0.81140  0.18110  Biso   1.000  C
  C32      1.0000 0.68880  0.81140  0.81890  Biso   1.000  C
  C33      1.0000 0.80120  0.29700  0.03110  Biso   1.000  C
  C34      1.0000 0.19880  0.29700  0.96890  Biso   1.000  C
  C35      1.0000 0.30120  0.79700  0.03110  Biso   1.000  C
  C36      1.0000 0.69880  0.79700  0.96890  Biso   1.000  C
  C37      1.0000 0.84290  0.23860  0.98130  Biso   1.000  C
  C38      1.0000 0.15710  0.23860  0.01870  Biso   1.000  C
  C39      1.0000 0.34290  0.73860  0.98130  Biso   1.000  C
  C40      1.0000 0.65710  0.73860  0.01870  Biso   1.000  C
  C41      1.0000 0.89010  0.19590  0.08200  Biso   1.000  C
  C42      1.0000 0.10990  0.19590  0.91800  Biso   1.000  C
  C43      1.0000 0.39010  0.69590  0.08200  Biso   1.000  C
  C44      1.0000 0.60990  0.69590  0.91800  Biso   1.000  C
  H17      1.0000 0.92260  0.15860  0.04580  Biso   1.000  H
  H18      1.0000 0.07740  0.15860  0.95420  Biso   1.000  H
  H19      1.0000 0.42260  0.65860  0.04580  Biso   1.000  H
  H20      1.0000 0.57740  0.65860  0.95420  Biso   1.000  H
  C45      1.0000 0.75010  0.34360  0.93000  Biso   1.000  C
  C46      1.0000 0.24990  0.34360  0.07000  Biso   1.000  C
  C47      1.0000 0.25010  0.84360  0.93000  Biso   1.000  C
  C48      1.0000 0.74990  0.84360  0.07000  Biso   1.000  C
  C49      1.0000 0.65110  0.34120  0.92200  Biso   1.000  C
  C50      1.0000 0.34890  0.34120  0.07800  Biso   1.000  C
  C51      1.0000 0.15110  0.84120  0.92200  Biso   1.000  C
  C52      1.0000 0.84890  0.84120  0.07800  Biso   1.000  C
  C53      1.0000 0.59530  0.38870  0.83160  Biso   1.000  C
  C54      1.0000 0.40470  0.38870  0.16840  Biso   1.000  C
  C55      1.0000 0.09530  0.88870  0.83160  Biso   1.000  C
  C56      1.0000 0.90470  0.88870  0.16840  Biso   1.000  C
  H21      1.0000 0.52620  0.38700  0.82670  Biso   1.000  H
  H22      1.0000 0.47380  0.38700  0.17330  Biso   1.000  H
  H23      1.0000 0.02620  0.88700  0.82670  Biso   1.000  H
  H24      1.0000 0.97380  0.88700  0.17330  Biso   1.000  H
  C57      1.0000 0.64630  0.43510  0.75490  Biso   1.000  C
  C58      1.0000 0.35370  0.43510  0.24510  Biso   1.000  C
  C59      1.0000 0.14630  0.93510  0.75490  Biso   1.000  C
  C60      1.0000 0.85370  0.93510  0.24510  Biso   1.000  C
  C61      1.0000 0.75250  0.44130  0.76580  Biso   1.000  C
  C62      1.0000 0.24750  0.44130  0.23420  Biso   1.000  C
  C63      1.0000 0.25250  0.94130  0.76580  Biso   1.000  C
  C64      1.0000 0.74750  0.94130  0.23420  Biso   1.000  C
  C65      1.0000 0.80770  0.49470  0.69800  Biso   1.000  C
  C66      1.0000 0.19230  0.49470  0.30200  Biso   1.000  C
  C67      1.0000 0.30770  0.99470  0.69800  Biso   1.000  C
  C68      1.0000 0.69230  0.99470  0.30200  Biso   1.000  C
  H25      1.0000 0.77430  0.52860  0.64900  Biso   1.000  H
  H26      1.0000 0.22570  0.52860  0.35100  Biso   1.000  H
  H27      1.0000 0.27430  0.02860  0.64900  Biso   1.000  H
  H28      1.0000 0.72570  0.02860  0.35100  Biso   1.000  H
  C69      1.0000 0.91010  0.49500  0.70700  Biso   1.000  C
  C70      1.0000 0.08990  0.49500  0.29300  Biso   1.000  C
  C71      1.0000 0.41010  0.99500  0.70700  Biso   1.000  C
  C72      1.0000 0.58990  0.99500  0.29300  Biso   1.000  C
  H29      1.0000 0.94550  0.52920  0.66300  Biso   1.000  H
  H30      1.0000 0.05450  0.52920  0.33700  Biso   1.000  H
  H31      1.0000 0.44550  0.02920  0.66300  Biso   1.000  H
  H32      1.0000 0.55450  0.02920  0.33700  Biso   1.000  H
  C73      1.0000 0.96290  0.44310  0.78200  Biso   1.000  C
  C74      1.0000 0.03710  0.44310  0.21800  Biso   1.000  C
  C75      1.0000 0.46290  0.94310  0.78200  Biso   1.000  C
  C76      1.0000 0.53710  0.94310  0.21800  Biso   1.000  C
  H33      1.0000 0.03180  0.44010  0.77630  Biso   1.000  H
  H34      1.0000 0.96820  0.44010  0.22370  Biso   1.000  H
  H35      1.0000 0.53180  0.94010  0.77630  Biso   1.000  H
  H36      1.0000 0.46820  0.94010  0.22370  Biso   1.000  H
  C77      1.0000 0.90940  0.39810  0.86100  Biso   1.000  C
  C78      1.0000 0.09060  0.39810  0.13900  Biso   1.000  C
  C79      1.0000 0.40940  0.89810  0.86100  Biso   1.000  C
  C80      1.0000 0.59060  0.89810  0.13900  Biso   1.000  C
  H37      1.0000 0.94310  0.36890  0.92270  Biso   1.000  H
  H38      1.0000 0.05690  0.36890  0.07730  Biso   1.000  H
  H39      1.0000 0.44310  0.86890  0.92270  Biso   1.000  H
  H40      1.0000 0.55690  0.86890  0.07730  Biso   1.000  H
  C81      1.0000 0.80450  0.39480  0.85300  Biso   1.000  C
  C82      1.0000 0.19550  0.39480  0.14700  Biso   1.000  C
  C83      1.0000 0.30450  0.89480  0.85300  Biso   1.000  C
  C84      1.0000 0.69550  0.89480  0.14700  Biso   1.000  C
  C85      1.0000 0.58600  0.48190  0.65600  Biso   1.000  C
  C86      1.0000 0.41400  0.48190  0.34400  Biso   1.000  C
  C87      1.0000 0.08600  0.98190  0.65600  Biso   1.000  C
  C88      1.0000 0.91400  0.98190  0.34400  Biso   1.000  C
  O1       1.0000 0.02730  0.13660  0.29550  Biso   1.000  O
  O2       1.0000 0.97270  0.13660  0.70450  Biso   1.000  O
  O3       1.0000 0.52730  0.63660  0.29550  Biso   1.000  O
  O4       1.0000 0.47270  0.63660  0.70450  Biso   1.000  O
  O5       1.0000 0.22170  0.07380  0.32580  Biso   1.000  O
  O6       1.0000 0.77830  0.07380  0.67420  Biso   1.000  O
  O7       1.0000 0.72170  0.57380  0.32580  Biso   1.000  O
  O8       1.0000 0.27830  0.57380  0.67420  Biso   1.000  O
  O9       1.0000 0.88560  0.13050  0.42660  Biso   1.000  O
  O10      1.0000 0.11440  0.13050  0.57340  Biso   1.000  O
  O11      1.0000 0.38560  0.63050  0.42660  Biso   1.000  O
  O12      1.0000 0.61440  0.63050  0.57340  Biso   1.000  O
  O13      1.0000 0.84010  0.22740  0.83610  Biso   1.000  O
  O14      1.0000 0.15990  0.22740  0.16390  Biso   1.000  O
  O15      1.0000 0.34010  0.72740  0.83610  Biso   1.000  O
  O16      1.0000 0.65990  0.72740  0.16390  Biso   1.000  O
  H41      1.0000 0.86680  0.19170  0.81830  Biso   1.000  H
  H42      1.0000 0.13320  0.19170  0.18170  Biso   1.000  H
  H43      1.0000 0.36680  0.69170  0.81830  Biso   1.000  H
  H44      1.0000 0.63320  0.69170  0.18170  Biso   1.000  H
  O17      1.0000 0.59830  0.29360  0.99750  Biso   1.000  O
  O18      1.0000 0.40170  0.29360  0.00250  Biso   1.000  O
  O19      1.0000 0.09830  0.79360  0.99750  Biso   1.000  O
  O20      1.0000 0.90170  0.79360  0.00250  Biso   1.000  O
  H45      1.0000 0.53870  0.29840  0.98120  Biso   1.000  H
  H46      1.0000 0.46130  0.29840  0.01880  Biso   1.000  H
  H47      1.0000 0.03870  0.79840  0.98120  Biso   1.000  H
  H48      1.0000 0.96130  0.79840  0.01880  Biso   1.000  H
  O21      1.0000 0.50460  0.50190  0.70750  Biso   1.000  O
  O22      1.0000 0.49540  0.50190  0.29250  Biso   1.000  O
  O23      1.0000 0.00460  0.00190  0.70750  Biso   1.000  O
  O24      1.0000 0.99540  0.00190  0.29250  Biso   1.000  O
  O25      1.0000 0.61930  0.49410  0.53810  Biso   1.000  O
  O26      1.0000 0.38070  0.49410  0.46190  Biso   1.000  O
  O27      1.0000 0.11930  0.99410  0.53810  Biso   1.000  O
  O28      1.0000 0.88070  0.99410  0.46190  Biso   1.000  O
  Cu1      1.0000 0.07962  0.06403  0.41200  Biso   1.000  Cu
  Cu2      1.0000 0.92038  0.06403  0.58800  Biso   1.000  Cu
  Cu3      1.0000 0.57962  0.56403  0.41200  Biso   1.000  Cu
  Cu4      1.0000 0.42038  0.56403  0.58800  Biso   1.000  Cu
  H49      1.0000 0.22900  0.06900  0.25100  Biso   1.000  H
  H50      1.0000 0.77100  0.06900  0.74900  Biso   1.000  H
  H51      1.0000 0.72900  0.56900  0.25100  Biso   1.000  H
  H52      1.0000 0.27100  0.56900  0.74900  Biso   1.000  H
  O29      1.0000 0.61300  0.17900  0.15600  Biso   1.000  O
  O30      1.0000 0.38700  0.17900  0.84400  Biso   1.000  O
  O31      1.0000 0.11300  0.67900  0.15600  Biso   1.000  O
  O32      1.0000 0.88700  0.67900  0.84400  Biso   1.000  O
  O33      1.0000 0.66200  0.17100  0.55900  Biso   1.000  O
  O34      1.0000 0.33800  0.17100  0.44100  Biso   1.000  O
  O35      1.0000 0.16200  0.67100  0.55900  Biso   1.000  O
  O36      1.0000 0.83800  0.67100  0.44100  Biso   1.000  O
  O37      1.0000 0.04400  0.03400  0.02100  Biso   1.000  O
  O38      1.0000 0.95600  0.03400  0.97900  Biso   1.000  O
  O39      1.0000 0.54400  0.53400  0.02100  Biso   1.000  O
  O40      1.0000 0.45600  0.53400  0.97900  Biso   1.000  O
  O41      1.0000 0.26500  0.05230  0.03800  Biso   1.000  O
  O42      1.0000 0.73500  0.05230  0.96200  Biso   1.000  O
  O43      1.0000 0.76500  0.55230  0.03800  Biso   1.000  O
  O44      1.0000 0.23500  0.55230  0.96200  Biso   1.000  O
