data_image0
_cell_length_a       10.5497
_cell_length_b       21.4383
_cell_length_c       16.5652
_cell_angle_alpha    90
_cell_angle_beta     124.005
_cell_angle_gamma    90

_symmetry_space_group_name_H-M    "P 1"
_symmetry_int_tables_number       1

loop_
  _symmetry_equiv_pos_as_xyz
  'x, y, z'

loop_
  _atom_site_label
  _atom_site_occupancy
  _atom_site_fract_x
  _atom_site_fract_y
  _atom_site_fract_z
  _atom_site_thermal_displace_type
  _atom_site_B_iso_or_equiv
  _atom_site_type_symbol
  Cu1      1.0000 0.75697  0.69526  0.07153  Biso   1.000  Cu
  Cu2      1.0000 0.24303  0.19526  0.42847  Biso   1.000  Cu
  Cu3      1.0000 0.24303  0.30474  0.92847  Biso   1.000  Cu
  Cu4      1.0000 0.75697  0.80474  0.57153  Biso   1.000  Cu
  F1       1.0000 0.03970  0.85770  0.30340  Biso   1.000  F
  F2       1.0000 0.96030  0.35770  0.19660  Biso   1.000  F
  F3       1.0000 0.96030  0.14230  0.69660  Biso   1.000  F
  F4       1.0000 0.03970  0.64230  0.80340  Biso   1.000  F
  F5       1.0000 0.00880  0.79722  0.38930  Biso   1.000  F
  F6       1.0000 0.99120  0.29722  0.11070  Biso   1.000  F
  F7       1.0000 0.99120  0.20278  0.61070  Biso   1.000  F
  F8       1.0000 0.00880  0.70278  0.88930  Biso   1.000  F
  F9       1.0000 0.87300  0.87660  0.33130  Biso   1.000  F
  F10      1.0000 0.12700  0.37660  0.16870  Biso   1.000  F
  F11      1.0000 0.12700  0.12340  0.66870  Biso   1.000  F
  F12      1.0000 0.87300  0.62340  0.83130  Biso   1.000  F
  F13      1.0000 0.36680  0.85126  0.04950  Biso   1.000  F
  F14      1.0000 0.63320  0.35126  0.45050  Biso   1.000  F
  F15      1.0000 0.63320  0.14874  0.95050  Biso   1.000  F
  F16      1.0000 0.36680  0.64874  0.54950  Biso   1.000  F
  F17      1.0000 0.34560  0.76680  0.09440  Biso   1.000  F
  F18      1.0000 0.65440  0.26680  0.40560  Biso   1.000  F
  F19      1.0000 0.65440  0.23320  0.90560  Biso   1.000  F
  F20      1.0000 0.34560  0.73320  0.59440  Biso   1.000  F
  F21      1.0000 0.29650  0.77980  0.95950  Biso   1.000  F
  F22      1.0000 0.70350  0.27980  0.54050  Biso   1.000  F
  F23      1.0000 0.70350  0.22020  0.04050  Biso   1.000  F
  F24      1.0000 0.29650  0.72020  0.45950  Biso   1.000  F
  F25      1.0000 0.41190  0.62780  0.15160  Biso   1.000  F
  F26      1.0000 0.58810  0.12780  0.34840  Biso   1.000  F
  F27      1.0000 0.58810  0.37220  0.84840  Biso   1.000  F
  F28      1.0000 0.41190  0.87220  0.65160  Biso   1.000  F
  F29      1.0000 0.58510  0.56360  0.22620  Biso   1.000  F
  F30      1.0000 0.41490  0.06360  0.27380  Biso   1.000  F
  F31      1.0000 0.41490  0.43640  0.77380  Biso   1.000  F
  F32      1.0000 0.58510  0.93640  0.72620  Biso   1.000  F
  F33      1.0000 0.38130  0.53620  0.09730  Biso   1.000  F
  F34      1.0000 0.61870  0.03620  0.40270  Biso   1.000  F
  F35      1.0000 0.61870  0.46380  0.90270  Biso   1.000  F
  F36      1.0000 0.38130  0.96380  0.59730  Biso   1.000  F
  F37      1.0000 0.31270  0.66010  0.77070  Biso   1.000  F
  F38      1.0000 0.68730  0.16010  0.72930  Biso   1.000  F
  F39      1.0000 0.68730  0.33990  0.22930  Biso   1.000  F
  F40      1.0000 0.31270  0.83990  0.27070  Biso   1.000  F
  F41      1.0000 0.44880  0.58952  0.76670  Biso   1.000  F
  F42      1.0000 0.55120  0.08952  0.73330  Biso   1.000  F
  F43      1.0000 0.55120  0.41048  0.23330  Biso   1.000  F
  F44      1.0000 0.44880  0.91048  0.26670  Biso   1.000  F
  F45      1.0000 0.27320  0.56545  0.78570  Biso   1.000  F
  F46      1.0000 0.72680  0.06545  0.71430  Biso   1.000  F
  F47      1.0000 0.72680  0.43455  0.21430  Biso   1.000  F
  F48      1.0000 0.27320  0.93455  0.28570  Biso   1.000  F
  O1       1.0000 0.81800  0.57488  0.60370  Biso   1.000  O
  O2       1.0000 0.18200  0.07488  0.89630  Biso   1.000  O
  O3       1.0000 0.18200  0.42512  0.39630  Biso   1.000  O
  O4       1.0000 0.81800  0.92512  0.10370  Biso   1.000  O
  O5       1.0000 0.88430  0.75409  0.19893  Biso   1.000  O
  O6       1.0000 0.11570  0.25409  0.30107  Biso   1.000  O
  O7       1.0000 0.11570  0.24591  0.80107  Biso   1.000  O
  O8       1.0000 0.88430  0.74591  0.69893  Biso   1.000  O
  O9       1.0000 0.57170  0.74239  0.03507  Biso   1.000  O
  O10      1.0000 0.42830  0.24239  0.46493  Biso   1.000  O
  O11      1.0000 0.42830  0.25761  0.96493  Biso   1.000  O
  O12      1.0000 0.57170  0.75761  0.53507  Biso   1.000  O
  O13      1.0000 0.61590  0.64013  0.94090  Biso   1.000  O
  O14      1.0000 0.38410  0.14013  0.55910  Biso   1.000  O
  O15      1.0000 0.38410  0.35987  0.05910  Biso   1.000  O
  O16      1.0000 0.61590  0.85987  0.44090  Biso   1.000  O
  O17      1.0000 0.66970  0.63108  0.13128  Biso   1.000  O
  O18      1.0000 0.33030  0.13108  0.36872  Biso   1.000  O
  O19      1.0000 0.33030  0.36892  0.86872  Biso   1.000  O
  O20      1.0000 0.66970  0.86892  0.63128  Biso   1.000  O
  N1       1.0000 0.93500  0.63960  0.11890  Biso   1.000  N
  N2       1.0000 0.06500  0.13960  0.38110  Biso   1.000  N
  N3       1.0000 0.06500  0.36040  0.88110  Biso   1.000  N
  N4       1.0000 0.93500  0.86040  0.61890  Biso   1.000  N
  N5       1.0000 0.15710  0.59269  0.21110  Biso   1.000  N
  N6       1.0000 0.84290  0.09269  0.28890  Biso   1.000  N
  N7       1.0000 0.84290  0.40731  0.78890  Biso   1.000  N
  N8       1.0000 0.15710  0.90731  0.71110  Biso   1.000  N
  N9       1.0000 0.11070  0.33119  0.55470  Biso   1.000  N
  N10      1.0000 0.88930  0.83119  0.94530  Biso   1.000  N
  N11      1.0000 0.88930  0.66881  0.44530  Biso   1.000  N
  N12      1.0000 0.11070  0.16881  0.05470  Biso   1.000  N
  N13      1.0000 0.19810  0.25448  0.51000  Biso   1.000  N
  N14      1.0000 0.80190  0.75448  0.99000  Biso   1.000  N
  N15      1.0000 0.80190  0.74552  0.49000  Biso   1.000  N
  N16      1.0000 0.19810  0.24552  0.01000  Biso   1.000  N
  C1       1.0000 0.06910  0.64144  0.20140  Biso   1.000  C
  C2       1.0000 0.93090  0.14144  0.29860  Biso   1.000  C
  C3       1.0000 0.93090  0.35856  0.79860  Biso   1.000  C
  C4       1.0000 0.06910  0.85856  0.70140  Biso   1.000  C
  H1       1.0000 0.09990  0.67270  0.24780  Biso   1.000  H
  H2       1.0000 0.90010  0.17270  0.25220  Biso   1.000  H
  H3       1.0000 0.90010  0.32730  0.75220  Biso   1.000  H
  H4       1.0000 0.09990  0.82730  0.74780  Biso   1.000  H
  C5       1.0000 0.93600  0.58720  0.07260  Biso   1.000  C
  C6       1.0000 0.06400  0.08720  0.42740  Biso   1.000  C
  C7       1.0000 0.06400  0.41280  0.92740  Biso   1.000  C
  C8       1.0000 0.93600  0.91280  0.57260  Biso   1.000  C
  H5       1.0000 0.85560  0.57380  0.01150  Biso   1.000  H
  H6       1.0000 0.14440  0.07380  0.48850  Biso   1.000  H
  H7       1.0000 0.14440  0.42620  0.98850  Biso   1.000  H
  H8       1.0000 0.85560  0.92620  0.51150  Biso   1.000  H
  C9       1.0000 0.07120  0.55780  0.12860  Biso   1.000  C
  C10      1.0000 0.92880  0.05780  0.37140  Biso   1.000  C
  C11      1.0000 0.92880  0.44220  0.87140  Biso   1.000  C
  C12      1.0000 0.07120  0.94220  0.62860  Biso   1.000  C
  H9       1.0000 0.10040  0.52080  0.11400  Biso   1.000  H
  H10      1.0000 0.89960  0.02080  0.38600  Biso   1.000  H
  H11      1.0000 0.89960  0.47920  0.88600  Biso   1.000  H
  H12      1.0000 0.10040  0.97920  0.61400  Biso   1.000  H
  C13      1.0000 0.30820  0.57855  0.29230  Biso   1.000  C
  C14      1.0000 0.69180  0.07855  0.20770  Biso   1.000  C
  C15      1.0000 0.69180  0.42145  0.70770  Biso   1.000  C
  C16      1.0000 0.30820  0.92145  0.79230  Biso   1.000  C
  C17      1.0000 0.35410  0.51742  0.31440  Biso   1.000  C
  C18      1.0000 0.64590  0.01742  0.18560  Biso   1.000  C
  C19      1.0000 0.64590  0.48258  0.68560  Biso   1.000  C
  C20      1.0000 0.35410  0.98258  0.81440  Biso   1.000  C
  H13      1.0000 0.28640  0.48540  0.27770  Biso   1.000  H
  H14      1.0000 0.71360  0.98540  0.22230  Biso   1.000  H
  H15      1.0000 0.71360  0.51460  0.72230  Biso   1.000  H
  H16      1.0000 0.28640  0.01460  0.77770  Biso   1.000  H
  C21      1.0000 0.50120  0.50380  0.39130  Biso   1.000  C
  C22      1.0000 0.49880  0.00380  0.10870  Biso   1.000  C
  C23      1.0000 0.49880  0.49620  0.60870  Biso   1.000  C
  C24      1.0000 0.50120  0.99620  0.89130  Biso   1.000  C
  H17      1.0000 0.53340  0.46250  0.40520  Biso   1.000  H
  H18      1.0000 0.46660  0.96250  0.09480  Biso   1.000  H
  H19      1.0000 0.46660  0.53750  0.59480  Biso   1.000  H
  H20      1.0000 0.53340  0.03750  0.90520  Biso   1.000  H
  C25      1.0000 0.60110  0.55124  0.44780  Biso   1.000  C
  C26      1.0000 0.39890  0.05124  0.05220  Biso   1.000  C
  C27      1.0000 0.39890  0.44876  0.55220  Biso   1.000  C
  C28      1.0000 0.60110  0.94876  0.94780  Biso   1.000  C
  C29      1.0000 0.55150  0.61245  0.42610  Biso   1.000  C
  C30      1.0000 0.44850  0.11245  0.07390  Biso   1.000  C
  C31      1.0000 0.44850  0.38755  0.57390  Biso   1.000  C
  C32      1.0000 0.55150  0.88755  0.92610  Biso   1.000  C
  H21      1.0000 0.61670  0.64450  0.46510  Biso   1.000  H
  H22      1.0000 0.38330  0.14450  0.03490  Biso   1.000  H
  H23      1.0000 0.38330  0.35550  0.53490  Biso   1.000  H
  H24      1.0000 0.61670  0.85550  0.96510  Biso   1.000  H
  C33      1.0000 0.40690  0.62637  0.34770  Biso   1.000  C
  C34      1.0000 0.59310  0.12637  0.15230  Biso   1.000  C
  C35      1.0000 0.59310  0.37363  0.65230  Biso   1.000  C
  C36      1.0000 0.40690  0.87363  0.84770  Biso   1.000  C
  H25      1.0000 0.37580  0.66770  0.33200  Biso   1.000  H
  H26      1.0000 0.62420  0.16770  0.16800  Biso   1.000  H
  H27      1.0000 0.62420  0.33230  0.66800  Biso   1.000  H
  H28      1.0000 0.37580  0.83230  0.83200  Biso   1.000  H
  C37      1.0000 0.75850  0.53892  0.53490  Biso   1.000  C
  C38      1.0000 0.24150  0.03892  0.96510  Biso   1.000  C
  C39      1.0000 0.24150  0.46108  0.46510  Biso   1.000  C
  C40      1.0000 0.75850  0.96108  0.03490  Biso   1.000  C
  C41      1.0000 0.84400  0.48287  0.53760  Biso   1.000  C
  C42      1.0000 0.15600  0.98287  0.96240  Biso   1.000  C
  C43      1.0000 0.15600  0.51713  0.46240  Biso   1.000  C
  C44      1.0000 0.84400  0.01713  0.03760  Biso   1.000  C
  C45      1.0000 0.94950  0.45502  0.62660  Biso   1.000  C
  C46      1.0000 0.05050  0.95502  0.87340  Biso   1.000  C
  C47      1.0000 0.05050  0.54498  0.37340  Biso   1.000  C
  C48      1.0000 0.94950  0.04498  0.12660  Biso   1.000  C
  H29      1.0000 0.96240  0.47060  0.68320  Biso   1.000  H
  H30      1.0000 0.03760  0.97060  0.81680  Biso   1.000  H
  H31      1.0000 0.03760  0.52940  0.31680  Biso   1.000  H
  H32      1.0000 0.96240  0.02940  0.18320  Biso   1.000  H
  C49      1.0000 0.03490  0.40469  0.63220  Biso   1.000  C
  C50      1.0000 0.96510  0.90469  0.86780  Biso   1.000  C
  C51      1.0000 0.96510  0.59531  0.36780  Biso   1.000  C
  C52      1.0000 0.03490  0.09531  0.13220  Biso   1.000  C
  H33      1.0000 0.10260  0.38560  0.69190  Biso   1.000  H
  H34      1.0000 0.89740  0.88560  0.80810  Biso   1.000  H
  H35      1.0000 0.89740  0.61440  0.30810  Biso   1.000  H
  H36      1.0000 0.10260  0.11440  0.19190  Biso   1.000  H
  C53      1.0000 0.01990  0.38267  0.54890  Biso   1.000  C
  C54      1.0000 0.98010  0.88267  0.95110  Biso   1.000  C
  C55      1.0000 0.98010  0.61733  0.45110  Biso   1.000  C
  C56      1.0000 0.01990  0.11733  0.04890  Biso   1.000  C
  C57      1.0000 0.91940  0.41094  0.46020  Biso   1.000  C
  C58      1.0000 0.08060  0.91094  0.03980  Biso   1.000  C
  C59      1.0000 0.08060  0.58906  0.53980  Biso   1.000  C
  C60      1.0000 0.91940  0.08906  0.96020  Biso   1.000  C
  H37      1.0000 0.91210  0.39710  0.40450  Biso   1.000  H
  H38      1.0000 0.08790  0.89710  0.09550  Biso   1.000  H
  H39      1.0000 0.08790  0.60290  0.59550  Biso   1.000  H
  H40      1.0000 0.91210  0.10290  0.90450  Biso   1.000  H
  C61      1.0000 0.83020  0.45982  0.45470  Biso   1.000  C
  C62      1.0000 0.16980  0.95982  0.04530  Biso   1.000  C
  C63      1.0000 0.16980  0.54018  0.54530  Biso   1.000  C
  C64      1.0000 0.83020  0.04018  0.95470  Biso   1.000  C
  H41      1.0000 0.75950  0.47770  0.39450  Biso   1.000  H
  H42      1.0000 0.24050  0.97770  0.10550  Biso   1.000  H
  H43      1.0000 0.24050  0.52230  0.60550  Biso   1.000  H
  H44      1.0000 0.75950  0.02230  0.89450  Biso   1.000  H
  C65      1.0000 0.09410  0.29811  0.47990  Biso   1.000  C
  C66      1.0000 0.90590  0.79811  0.02010  Biso   1.000  C
  C67      1.0000 0.90590  0.70189  0.52010  Biso   1.000  C
  C68      1.0000 0.09410  0.20189  0.97990  Biso   1.000  C
  H45      1.0000 0.01790  0.30550  0.41480  Biso   1.000  H
  H46      1.0000 0.98210  0.80550  0.08520  Biso   1.000  H
  H47      1.0000 0.98210  0.69450  0.58520  Biso   1.000  H
  H48      1.0000 0.01790  0.19450  0.91480  Biso   1.000  H
  C69      1.0000 0.28640  0.25911  0.61000  Biso   1.000  C
  C70      1.0000 0.71360  0.75911  0.89000  Biso   1.000  C
  C71      1.0000 0.71360  0.74089  0.39000  Biso   1.000  C
  C72      1.0000 0.28640  0.24089  0.11000  Biso   1.000  C
  H49      1.0000 0.36990  0.23390  0.65180  Biso   1.000  H
  H50      1.0000 0.63010  0.73390  0.84820  Biso   1.000  H
  H51      1.0000 0.63010  0.76610  0.34820  Biso   1.000  H
  H52      1.0000 0.36990  0.26610  0.15180  Biso   1.000  H
  C73      1.0000 0.23390  0.30554  0.63810  Biso   1.000  C
  C74      1.0000 0.76610  0.80554  0.86190  Biso   1.000  C
  C75      1.0000 0.76610  0.69446  0.36190  Biso   1.000  C
  C76      1.0000 0.23390  0.19446  0.13810  Biso   1.000  C
  H53      1.0000 0.27330  0.31800  0.70170  Biso   1.000  H
  H54      1.0000 0.72670  0.81800  0.79830  Biso   1.000  H
  H55      1.0000 0.72670  0.68200  0.29830  Biso   1.000  H
  H56      1.0000 0.27330  0.18200  0.20170  Biso   1.000  H
  C77      1.0000 0.93650  0.83210  0.31210  Biso   1.000  C
  C78      1.0000 0.06350  0.33210  0.18790  Biso   1.000  C
  C79      1.0000 0.06350  0.16790  0.68790  Biso   1.000  C
  C80      1.0000 0.93650  0.66790  0.81210  Biso   1.000  C
  C81      1.0000 0.82340  0.79375  0.22080  Biso   1.000  C
  C82      1.0000 0.17660  0.29375  0.27920  Biso   1.000  C
  C83      1.0000 0.17660  0.20625  0.77920  Biso   1.000  C
  C84      1.0000 0.82340  0.70625  0.72080  Biso   1.000  C
  C85      1.0000 0.66870  0.80668  0.17410  Biso   1.000  C
  C86      1.0000 0.33130  0.30668  0.32590  Biso   1.000  C
  C87      1.0000 0.33130  0.19332  0.82590  Biso   1.000  C
  C88      1.0000 0.66870  0.69332  0.67410  Biso   1.000  C
  H57      1.0000 0.63880  0.83550  0.20240  Biso   1.000  H
  H58      1.0000 0.36120  0.33550  0.29760  Biso   1.000  H
  H59      1.0000 0.36120  0.16450  0.79760  Biso   1.000  H
  H60      1.0000 0.63880  0.66450  0.70240  Biso   1.000  H
  C89      1.0000 0.55750  0.77883  0.08810  Biso   1.000  C
  C90      1.0000 0.44250  0.27883  0.41190  Biso   1.000  C
  C91      1.0000 0.44250  0.22117  0.91190  Biso   1.000  C
  C92      1.0000 0.55750  0.72117  0.58810  Biso   1.000  C
  C93      1.0000 0.39200  0.79360  0.05030  Biso   1.000  C
  C94      1.0000 0.60800  0.29360  0.44970  Biso   1.000  C
  C95      1.0000 0.60800  0.20640  0.94970  Biso   1.000  C
  C96      1.0000 0.39200  0.70640  0.55030  Biso   1.000  C
  C97      1.0000 0.47990  0.58170  0.13790  Biso   1.000  C
  C98      1.0000 0.52010  0.08170  0.36210  Biso   1.000  C
  C99      1.0000 0.52010  0.41830  0.86210  Biso   1.000  C
  C100     1.0000 0.47990  0.91830  0.63790  Biso   1.000  C
  C101     1.0000 0.54460  0.60430  0.08150  Biso   1.000  C
  C102     1.0000 0.45540  0.10430  0.41850  Biso   1.000  C
  C103     1.0000 0.45540  0.39570  0.91850  Biso   1.000  C
  C104     1.0000 0.54460  0.89570  0.58150  Biso   1.000  C
  C105     1.0000 0.45430  0.59420  0.98040  Biso   1.000  C
  C106     1.0000 0.54570  0.09420  0.51960  Biso   1.000  C
  C107     1.0000 0.54570  0.40580  0.01960  Biso   1.000  C
  C108     1.0000 0.45430  0.90580  0.48040  Biso   1.000  C
  H61      1.0000 0.36230  0.57290  0.95350  Biso   1.000  H
  H62      1.0000 0.63770  0.07290  0.54650  Biso   1.000  H
  H63      1.0000 0.63770  0.42710  0.04650  Biso   1.000  H
  H64      1.0000 0.36230  0.92710  0.45350  Biso   1.000  H
  C109     1.0000 0.49600  0.61446  0.91970  Biso   1.000  C
  C110     1.0000 0.50400  0.11446  0.58030  Biso   1.000  C
  C111     1.0000 0.50400  0.38554  0.08030  Biso   1.000  C
  C112     1.0000 0.49600  0.88554  0.41970  Biso   1.000  C
  C113     1.0000 0.38080  0.60660  0.81030  Biso   1.000  C
  C114     1.0000 0.61920  0.10660  0.68970  Biso   1.000  C
  C115     1.0000 0.61920  0.39340  0.18970  Biso   1.000  C
  C116     1.0000 0.38080  0.89340  0.31030  Biso   1.000  C
