data_image0
_cell_length_a       10.756
_cell_length_b       9.79
_cell_length_c       18.593
_cell_angle_alpha    90
_cell_angle_beta     91.15
_cell_angle_gamma    90

_symmetry_space_group_name_H-M    "P 1"
_symmetry_int_tables_number       1

loop_
  _symmetry_equiv_pos_as_xyz
  'x, y, z'

loop_
  _atom_site_label
  _atom_site_occupancy
  _atom_site_fract_x
  _atom_site_fract_y
  _atom_site_fract_z
  _atom_site_thermal_displace_type
  _atom_site_B_iso_or_equiv
  _atom_site_type_symbol
  Cu1      1.0000 0.85901  0.92568  0.51273  Biso   1.000  Cu
  Cu2      1.0000 0.35901  0.57432  0.01273  Biso   1.000  Cu
  Cu3      1.0000 0.14099  0.07432  0.48727  Biso   1.000  Cu
  Cu4      1.0000 0.64099  0.42568  0.98727  Biso   1.000  Cu
  N1       1.0000 0.76250  0.10270  0.49543  Biso   1.000  N
  N2       1.0000 0.26250  0.39730  0.99543  Biso   1.000  N
  N3       1.0000 0.23750  0.89730  0.50457  Biso   1.000  N
  N4       1.0000 0.73750  0.60270  0.00457  Biso   1.000  N
  N5       1.0000 0.71760  0.85030  0.45185  Biso   1.000  N
  N6       1.0000 0.21760  0.64970  0.95185  Biso   1.000  N
  N7       1.0000 0.28240  0.14970  0.54815  Biso   1.000  N
  N8       1.0000 0.78240  0.35030  0.04815  Biso   1.000  N
  C1       1.0000 0.78480  0.22760  0.51910  Biso   1.000  C
  C2       1.0000 0.28480  0.27240  0.01910  Biso   1.000  C
  C3       1.0000 0.21520  0.77240  0.48090  Biso   1.000  C
  C4       1.0000 0.71520  0.72760  0.98090  Biso   1.000  C
  H1       1.0000 0.85620  0.24330  0.54690  Biso   1.000  H
  H2       1.0000 0.35620  0.25670  0.04690  Biso   1.000  H
  H3       1.0000 0.14380  0.75670  0.45310  Biso   1.000  H
  H4       1.0000 0.64380  0.74330  0.95310  Biso   1.000  H
  C5       1.0000 0.70520  0.33730  0.50390  Biso   1.000  C
  C6       1.0000 0.20520  0.16270  0.00390  Biso   1.000  C
  C7       1.0000 0.29480  0.66270  0.49610  Biso   1.000  C
  C8       1.0000 0.79480  0.83730  0.99610  Biso   1.000  C
  H5       1.0000 0.72310  0.42360  0.52230  Biso   1.000  H
  H6       1.0000 0.22310  0.07640  0.02230  Biso   1.000  H
  H7       1.0000 0.27690  0.57640  0.47770  Biso   1.000  H
  H8       1.0000 0.77690  0.92360  0.97770  Biso   1.000  H
  C9       1.0000 0.60190  0.31710  0.46230  Biso   1.000  C
  C10      1.0000 0.10190  0.18290  0.96230  Biso   1.000  C
  C11      1.0000 0.39810  0.68290  0.53770  Biso   1.000  C
  C12      1.0000 0.89810  0.81710  0.03770  Biso   1.000  C
  H9       1.0000 0.54930  0.38990  0.45140  Biso   1.000  H
  H10      1.0000 0.04930  0.11010  0.95140  Biso   1.000  H
  H11      1.0000 0.45070  0.61010  0.54860  Biso   1.000  H
  H12      1.0000 0.95070  0.88990  0.04860  Biso   1.000  H
  C13      1.0000 0.57450  0.18690  0.43573  Biso   1.000  C
  C14      1.0000 0.07450  0.31310  0.93573  Biso   1.000  C
  C15      1.0000 0.42550  0.81310  0.56427  Biso   1.000  C
  C16      1.0000 0.92550  0.68690  0.06427  Biso   1.000  C
  C17      1.0000 0.46540  0.15310  0.39250  Biso   1.000  C
  C18      1.0000 0.96540  0.34690  0.89250  Biso   1.000  C
  C19      1.0000 0.53460  0.84690  0.60750  Biso   1.000  C
  C20      1.0000 0.03460  0.65310  0.10750  Biso   1.000  C
  H13      1.0000 0.40950  0.22170  0.37950  Biso   1.000  H
  H14      1.0000 0.90950  0.27830  0.87950  Biso   1.000  H
  H15      1.0000 0.59050  0.77830  0.62050  Biso   1.000  H
  H16      1.0000 0.09050  0.72170  0.12050  Biso   1.000  H
  C21      1.0000 0.44380  0.02620  0.37090  Biso   1.000  C
  C22      1.0000 0.94380  0.47380  0.87090  Biso   1.000  C
  C23      1.0000 0.55620  0.97380  0.62910  Biso   1.000  C
  C24      1.0000 0.05620  0.52620  0.12910  Biso   1.000  C
  H17      1.0000 0.37310  0.00800  0.34300  Biso   1.000  H
  H18      1.0000 0.87310  0.49200  0.84300  Biso   1.000  H
  H19      1.0000 0.62690  0.99200  0.65700  Biso   1.000  H
  H20      1.0000 0.12690  0.50800  0.15700  Biso   1.000  H
  C25      1.0000 0.52590  0.91640  0.38934  Biso   1.000  C
  C26      1.0000 0.02590  0.58360  0.88934  Biso   1.000  C
  C27      1.0000 0.47410  0.08360  0.61066  Biso   1.000  C
  C28      1.0000 0.97410  0.41640  0.11066  Biso   1.000  C
  C29      1.0000 0.50820  0.78080  0.36969  Biso   1.000  C
  C30      1.0000 0.00820  0.71920  0.86969  Biso   1.000  C
  C31      1.0000 0.49180  0.21920  0.63031  Biso   1.000  C
  C32      1.0000 0.99180  0.28080  0.13031  Biso   1.000  C
  H21      1.0000 0.43870  0.75590  0.34210  Biso   1.000  H
  H22      1.0000 0.93870  0.74410  0.84210  Biso   1.000  H
  H23      1.0000 0.56130  0.24410  0.65790  Biso   1.000  H
  H24      1.0000 0.06130  0.25590  0.15790  Biso   1.000  H
  C33      1.0000 0.59200  0.68470  0.39061  Biso   1.000  C
  C34      1.0000 0.09200  0.81530  0.89061  Biso   1.000  C
  C35      1.0000 0.40800  0.31530  0.60939  Biso   1.000  C
  C36      1.0000 0.90800  0.18470  0.10939  Biso   1.000  C
  H25      1.0000 0.57990  0.59400  0.37750  Biso   1.000  H
  H26      1.0000 0.07990  0.90600  0.87750  Biso   1.000  H
  H27      1.0000 0.42010  0.40600  0.62250  Biso   1.000  H
  H28      1.0000 0.92010  0.09400  0.12250  Biso   1.000  H
  C37      1.0000 0.69620  0.72170  0.43171  Biso   1.000  C
  C38      1.0000 0.19620  0.77830  0.93171  Biso   1.000  C
  C39      1.0000 0.30380  0.27830  0.56829  Biso   1.000  C
  C40      1.0000 0.80380  0.22170  0.06829  Biso   1.000  C
  H29      1.0000 0.75270  0.65440  0.44560  Biso   1.000  H
  H30      1.0000 0.25270  0.84560  0.94560  Biso   1.000  H
  H31      1.0000 0.24730  0.34560  0.55440  Biso   1.000  H
  H32      1.0000 0.74730  0.15440  0.05440  Biso   1.000  H
  C41      1.0000 0.63370  0.94640  0.43129  Biso   1.000  C
  C42      1.0000 0.13370  0.55360  0.93129  Biso   1.000  C
  C43      1.0000 0.36630  0.05360  0.56871  Biso   1.000  C
  C44      1.0000 0.86630  0.44640  0.06871  Biso   1.000  C
  C45      1.0000 0.65700  0.08190  0.45472  Biso   1.000  C
  C46      1.0000 0.15700  0.41810  0.95472  Biso   1.000  C
  C47      1.0000 0.34300  0.91810  0.54528  Biso   1.000  C
  C48      1.0000 0.84300  0.58190  0.04528  Biso   1.000  C
  C49      1.0000 0.95300  0.04170  0.63667  Biso   1.000  C
  C50      1.0000 0.45300  0.45830  0.13667  Biso   1.000  C
  C51      1.0000 0.04700  0.95830  0.36333  Biso   1.000  C
  C52      1.0000 0.54700  0.54170  0.86333  Biso   1.000  C
  C53      1.0000 0.04030  0.12980  0.68193  Biso   1.000  C
  C54      1.0000 0.54030  0.37020  0.18193  Biso   1.000  C
  C55      1.0000 0.95970  0.87020  0.31807  Biso   1.000  C
  C56      1.0000 0.45970  0.62980  0.81807  Biso   1.000  C
  H33      1.0000 0.99370  0.17590  0.71890  Biso   1.000  H
  H34      1.0000 0.49370  0.32410  0.21890  Biso   1.000  H
  H35      1.0000 0.00630  0.82410  0.28110  Biso   1.000  H
  H36      1.0000 0.50630  0.67590  0.78110  Biso   1.000  H
  H37      1.0000 0.07740  0.19900  0.65180  Biso   1.000  H
  H38      1.0000 0.57740  0.30100  0.15180  Biso   1.000  H
  H39      1.0000 0.92260  0.80100  0.34820  Biso   1.000  H
  H40      1.0000 0.42260  0.69900  0.84820  Biso   1.000  H
  C57      1.0000 0.14290  0.04310  0.71717  Biso   1.000  C
  C58      1.0000 0.64290  0.45690  0.21717  Biso   1.000  C
  C59      1.0000 0.85710  0.95690  0.28283  Biso   1.000  C
  C60      1.0000 0.35710  0.54310  0.78283  Biso   1.000  C
  H41      1.0000 0.10600  0.97410  0.74750  Biso   1.000  H
  H42      1.0000 0.60600  0.52590  0.24750  Biso   1.000  H
  H43      1.0000 0.89400  0.02590  0.25250  Biso   1.000  H
  H44      1.0000 0.39400  0.47410  0.75250  Biso   1.000  H
  H45      1.0000 0.18960  0.99690  0.68030  Biso   1.000  H
  H46      1.0000 0.68960  0.50310  0.18030  Biso   1.000  H
  H47      1.0000 0.81040  0.00310  0.31970  Biso   1.000  H
  H48      1.0000 0.31040  0.49690  0.81970  Biso   1.000  H
  C61      1.0000 0.23060  0.13250  0.76251  Biso   1.000  C
  C62      1.0000 0.73060  0.36750  0.26251  Biso   1.000  C
  C63      1.0000 0.76940  0.86750  0.23749  Biso   1.000  C
  C64      1.0000 0.26940  0.63250  0.73749  Biso   1.000  C
  H49      1.0000 0.26730  0.20070  0.73160  Biso   1.000  H
  H50      1.0000 0.76730  0.29930  0.23160  Biso   1.000  H
  H51      1.0000 0.73270  0.79930  0.26840  Biso   1.000  H
  H52      1.0000 0.23270  0.70070  0.76840  Biso   1.000  H
  H53      1.0000 0.18260  0.18010  0.79830  Biso   1.000  H
  H54      1.0000 0.68260  0.31990  0.29830  Biso   1.000  H
  H55      1.0000 0.81740  0.81990  0.20170  Biso   1.000  H
  H56      1.0000 0.31740  0.68010  0.70170  Biso   1.000  H
  C65      1.0000 0.33420  0.05350  0.80050  Biso   1.000  C
  C66      1.0000 0.83420  0.44650  0.30050  Biso   1.000  C
  C67      1.0000 0.66580  0.94650  0.19950  Biso   1.000  C
  C68      1.0000 0.16580  0.55350  0.69950  Biso   1.000  C
  H57      1.0000 0.29820  0.99010  0.83430  Biso   1.000  H
  H58      1.0000 0.79820  0.50990  0.33430  Biso   1.000  H
  H59      1.0000 0.70180  0.00990  0.16570  Biso   1.000  H
  H60      1.0000 0.20180  0.49010  0.66570  Biso   1.000  H
  H61      1.0000 0.37920  0.00080  0.76530  Biso   1.000  H
  H62      1.0000 0.87920  0.49920  0.26530  Biso   1.000  H
  H63      1.0000 0.62080  0.99920  0.23470  Biso   1.000  H
  H64      1.0000 0.12080  0.50080  0.73470  Biso   1.000  H
  C69      1.0000 0.42440  0.14680  0.84047  Biso   1.000  C
  C70      1.0000 0.92440  0.35320  0.34047  Biso   1.000  C
  C71      1.0000 0.57560  0.85320  0.15953  Biso   1.000  C
  C72      1.0000 0.07560  0.64680  0.65953  Biso   1.000  C
  H65      1.0000 0.37780  0.20910  0.87020  Biso   1.000  H
  H66      1.0000 0.87780  0.29090  0.37020  Biso   1.000  H
  H67      1.0000 0.62220  0.79090  0.12980  Biso   1.000  H
  H68      1.0000 0.12220  0.70910  0.62980  Biso   1.000  H
  H69      1.0000 0.46930  0.20080  0.80580  Biso   1.000  H
  H70      1.0000 0.96930  0.29920  0.30580  Biso   1.000  H
  H71      1.0000 0.53070  0.79920  0.19420  Biso   1.000  H
  H72      1.0000 0.03070  0.70080  0.69420  Biso   1.000  H
  C73      1.0000 0.51720  0.06980  0.88770  Biso   1.000  C
  C74      1.0000 0.01720  0.43020  0.38770  Biso   1.000  C
  C75      1.0000 0.48280  0.93020  0.11230  Biso   1.000  C
  C76      1.0000 0.98280  0.56980  0.61230  Biso   1.000  C
  H73      1.0000 0.47330  0.02010  0.92440  Biso   1.000  H
  H74      1.0000 0.97330  0.47990  0.42440  Biso   1.000  H
  H75      1.0000 0.52670  0.97990  0.07560  Biso   1.000  H
  H76      1.0000 0.02670  0.52010  0.57560  Biso   1.000  H
  H77      1.0000 0.56140  0.00410  0.85870  Biso   1.000  H
  H78      1.0000 0.06140  0.49590  0.35870  Biso   1.000  H
  H79      1.0000 0.43860  0.99590  0.14130  Biso   1.000  H
  H80      1.0000 0.93860  0.50410  0.64130  Biso   1.000  H
  C77      1.0000 0.60930  0.16640  0.92302  Biso   1.000  C
  C78      1.0000 0.10930  0.33360  0.42302  Biso   1.000  C
  C79      1.0000 0.39070  0.83360  0.07698  Biso   1.000  C
  C80      1.0000 0.89070  0.66640  0.57698  Biso   1.000  C
  O1       1.0000 0.98398  0.02010  0.57174  Biso   1.000  O
  O2       1.0000 0.48398  0.47990  0.07174  Biso   1.000  O
  O3       1.0000 0.01602  0.97990  0.42826  Biso   1.000  O
  O4       1.0000 0.51602  0.52010  0.92826  Biso   1.000  O
  O5       1.0000 0.85790  0.99460  0.66182  Biso   1.000  O
  O6       1.0000 0.35790  0.50540  0.16182  Biso   1.000  O
  O7       1.0000 0.14210  0.00540  0.33818  Biso   1.000  O
  O8       1.0000 0.64210  0.49460  0.83818  Biso   1.000  O
  O9       1.0000 0.71990  0.15880  0.90861  Biso   1.000  O
  O10      1.0000 0.21990  0.34120  0.40861  Biso   1.000  O
  O11      1.0000 0.28010  0.84120  0.09139  Biso   1.000  O
  O12      1.0000 0.78010  0.65880  0.59139  Biso   1.000  O
  O13      1.0000 0.56380  0.25080  0.96727  Biso   1.000  O
  O14      1.0000 0.06380  0.24920  0.46727  Biso   1.000  O
  O15      1.0000 0.43620  0.74920  0.03273  Biso   1.000  O
  O16      1.0000 0.93620  0.75080  0.53273  Biso   1.000  O
  O17      1.0000 0.85910  0.99420  0.81890  Biso   1.000  O
  O18      1.0000 0.35910  0.50580  0.31890  Biso   1.000  O
  O19      1.0000 0.14090  0.00580  0.18110  Biso   1.000  O
  O20      1.0000 0.64090  0.49420  0.68110  Biso   1.000  O
  O21      1.0000 0.25750  0.72950  0.25950  Biso   1.000  O
  O22      1.0000 0.75750  0.77050  0.75950  Biso   1.000  O
  O23      1.0000 0.74250  0.27050  0.74050  Biso   1.000  O
  O24      1.0000 0.24250  0.22950  0.24050  Biso   1.000  O
  H81      1.0000 0.85980  0.02020  0.86260  Biso   1.000  H
  H82      1.0000 0.35980  0.47980  0.36260  Biso   1.000  H
  H83      1.0000 0.14020  0.97980  0.13740  Biso   1.000  H
  H84      1.0000 0.64020  0.52020  0.63740  Biso   1.000  H
  H85      1.0000 0.77470  0.93250  0.81390  Biso   1.000  H
  H86      1.0000 0.27470  0.56750  0.31390  Biso   1.000  H
  H87      1.0000 0.22530  0.06750  0.18610  Biso   1.000  H
  H88      1.0000 0.72530  0.43250  0.68610  Biso   1.000  H
