data_image0
_cell_length_a       21.155
_cell_length_b       6.867
_cell_length_c       17.533
_cell_angle_alpha    90
_cell_angle_beta     91.69
_cell_angle_gamma    90

_symmetry_space_group_name_H-M    "P 1"
_symmetry_int_tables_number       1

loop_
  _symmetry_equiv_pos_as_xyz
  'x, y, z'

loop_
  _atom_site_label
  _atom_site_occupancy
  _atom_site_fract_x
  _atom_site_fract_y
  _atom_site_fract_z
  _atom_site_thermal_displace_type
  _atom_site_B_iso_or_equiv
  _atom_site_type_symbol
  Cu1      1.0000 0.24927  0.26365  0.25167  Biso   1.000  Cu
  Cu2      1.0000 0.75072  0.26365  0.24833  Biso   1.000  Cu
  Cu3      1.0000 0.74928  0.76365  0.25167  Biso   1.000  Cu
  Cu4      1.0000 0.25072  0.76365  0.24833  Biso   1.000  Cu
  Cu5      1.0000 0.75072  0.73635  0.74833  Biso   1.000  Cu
  Cu6      1.0000 0.24927  0.73635  0.75167  Biso   1.000  Cu
  Cu7      1.0000 0.25072  0.23635  0.74833  Biso   1.000  Cu
  Cu8      1.0000 0.74928  0.23635  0.75167  Biso   1.000  Cu
  C1       1.0000 0.41038  0.51270  0.33833  Biso   1.000  C
  C2       1.0000 0.58962  0.51270  0.16167  Biso   1.000  C
  C3       1.0000 0.91038  0.01270  0.33833  Biso   1.000  C
  C4       1.0000 0.08962  0.01270  0.16167  Biso   1.000  C
  C5       1.0000 0.58962  0.48730  0.66167  Biso   1.000  C
  C6       1.0000 0.41038  0.48730  0.83833  Biso   1.000  C
  C7       1.0000 0.08962  0.98730  0.66167  Biso   1.000  C
  C8       1.0000 0.91038  0.98730  0.83833  Biso   1.000  C
  N1       1.0000 0.59332  0.51030  0.43858  Biso   1.000  N
  N2       1.0000 0.40668  0.51030  0.06142  Biso   1.000  N
  N3       1.0000 0.09332  0.01030  0.43858  Biso   1.000  N
  N4       1.0000 0.90668  0.01030  0.06142  Biso   1.000  N
  N5       1.0000 0.40668  0.48970  0.56142  Biso   1.000  N
  N6       1.0000 0.59332  0.48970  0.93858  Biso   1.000  N
  N7       1.0000 0.90668  0.98970  0.56142  Biso   1.000  N
  N8       1.0000 0.09332  0.98970  0.93858  Biso   1.000  N
  O1       1.0000 0.71719  0.34880  0.37341  Biso   1.000  O
  O2       1.0000 0.28281  0.34880  0.12659  Biso   1.000  O
  O3       1.0000 0.21719  0.84880  0.37341  Biso   1.000  O
  O4       1.0000 0.78281  0.84880  0.12659  Biso   1.000  O
  O5       1.0000 0.28281  0.65120  0.62659  Biso   1.000  O
  O6       1.0000 0.71719  0.65120  0.87341  Biso   1.000  O
  O7       1.0000 0.78281  0.15120  0.62659  Biso   1.000  O
  O8       1.0000 0.21719  0.15120  0.87341  Biso   1.000  O
  N9       1.0000 0.37931  0.67510  0.31819  Biso   1.000  N
  N10      1.0000 0.62069  0.67510  0.18181  Biso   1.000  N
  N11      1.0000 0.87931  0.17510  0.31819  Biso   1.000  N
  N12      1.0000 0.12069  0.17510  0.18181  Biso   1.000  N
  N13      1.0000 0.62069  0.32490  0.68181  Biso   1.000  N
  N14      1.0000 0.37931  0.32490  0.81819  Biso   1.000  N
  N15      1.0000 0.12069  0.82490  0.68181  Biso   1.000  N
  N16      1.0000 0.87931  0.82490  0.81819  Biso   1.000  N
  C9       1.0000 0.47450  0.51240  0.37250  Biso   1.000  C
  C10      1.0000 0.52550  0.51240  0.12750  Biso   1.000  C
  C11      1.0000 0.97450  0.01240  0.37250  Biso   1.000  C
  C12      1.0000 0.02550  0.01240  0.12750  Biso   1.000  C
  C13      1.0000 0.52550  0.48760  0.62750  Biso   1.000  C
  C14      1.0000 0.47450  0.48760  0.87250  Biso   1.000  C
  C15      1.0000 0.02550  0.98760  0.62750  Biso   1.000  C
  C16      1.0000 0.97450  0.98760  0.87250  Biso   1.000  C
  O9       1.0000 0.71766  0.67280  0.37504  Biso   1.000  O
  O10      1.0000 0.28234  0.67280  0.12496  Biso   1.000  O
  O11      1.0000 0.21766  0.17280  0.37504  Biso   1.000  O
  O12      1.0000 0.78234  0.17280  0.12496  Biso   1.000  O
  O13      1.0000 0.28234  0.32720  0.62496  Biso   1.000  O
  O14      1.0000 0.71766  0.32720  0.87504  Biso   1.000  O
  O15      1.0000 0.78234  0.82720  0.62496  Biso   1.000  O
  O16      1.0000 0.21766  0.82720  0.87504  Biso   1.000  O
  O17      1.0000 0.21154  0.48920  0.95750  Biso   1.000  O
  O18      1.0000 0.78846  0.48920  0.54250  Biso   1.000  O
  O19      1.0000 0.71154  0.98920  0.95750  Biso   1.000  O
  O20      1.0000 0.28846  0.98920  0.54250  Biso   1.000  O
  O21      1.0000 0.78846  0.51080  0.04250  Biso   1.000  O
  O22      1.0000 0.21154  0.51080  0.45750  Biso   1.000  O
  O23      1.0000 0.28846  0.01080  0.04250  Biso   1.000  O
  O24      1.0000 0.71154  0.01080  0.45750  Biso   1.000  O
  C17      1.0000 0.50901  0.68220  0.37880  Biso   1.000  C
  C18      1.0000 0.49099  0.68220  0.12120  Biso   1.000  C
  C19      1.0000 0.00901  0.18220  0.37880  Biso   1.000  C
  C20      1.0000 0.99099  0.18220  0.12120  Biso   1.000  C
  C21      1.0000 0.49099  0.31780  0.62120  Biso   1.000  C
  C22      1.0000 0.50901  0.31780  0.87880  Biso   1.000  C
  C23      1.0000 0.99099  0.81780  0.62120  Biso   1.000  C
  C24      1.0000 0.00901  0.81780  0.87880  Biso   1.000  C
  H1       1.0000 0.49210  0.79880  0.36040  Biso   1.000  H
  H2       1.0000 0.50790  0.79880  0.13960  Biso   1.000  H
  H3       1.0000 0.99210  0.29880  0.36040  Biso   1.000  H
  H4       1.0000 0.00790  0.29880  0.13960  Biso   1.000  H
  H5       1.0000 0.50790  0.20120  0.63960  Biso   1.000  H
  H6       1.0000 0.49210  0.20120  0.86040  Biso   1.000  H
  H7       1.0000 0.00790  0.70120  0.63960  Biso   1.000  H
  H8       1.0000 0.99210  0.70120  0.86040  Biso   1.000  H
  N17      1.0000 0.32391  0.61020  0.29086  Biso   1.000  N
  N18      1.0000 0.67609  0.61020  0.20914  Biso   1.000  N
  N19      1.0000 0.82391  0.11020  0.29086  Biso   1.000  N
  N20      1.0000 0.17609  0.11020  0.20914  Biso   1.000  N
  N21      1.0000 0.67609  0.38980  0.70914  Biso   1.000  N
  N22      1.0000 0.32391  0.38980  0.79086  Biso   1.000  N
  N23      1.0000 0.17609  0.88980  0.70914  Biso   1.000  N
  N24      1.0000 0.82391  0.88980  0.79086  Biso   1.000  N
  N25      1.0000 0.32242  0.41750  0.29429  Biso   1.000  N
  N26      1.0000 0.67758  0.41750  0.20571  Biso   1.000  N
  N27      1.0000 0.82242  0.91750  0.29429  Biso   1.000  N
  N28      1.0000 0.17758  0.91750  0.20571  Biso   1.000  N
  N29      1.0000 0.67758  0.58250  0.70571  Biso   1.000  N
  N30      1.0000 0.32242  0.58250  0.79429  Biso   1.000  N
  N31      1.0000 0.17758  0.08250  0.70571  Biso   1.000  N
  N32      1.0000 0.82242  0.08250  0.79429  Biso   1.000  N
  O25      1.0000 0.38805  0.00070  0.94840  Biso   1.000  O
  O26      1.0000 0.61195  0.00070  0.55160  Biso   1.000  O
  O27      1.0000 0.88805  0.50070  0.94840  Biso   1.000  O
  O28      1.0000 0.11195  0.50070  0.55160  Biso   1.000  O
  O29      1.0000 0.61195  0.99930  0.05160  Biso   1.000  O
  O30      1.0000 0.38805  0.99930  0.44840  Biso   1.000  O
  O31      1.0000 0.11195  0.49930  0.05160  Biso   1.000  O
  O32      1.0000 0.88805  0.49930  0.44840  Biso   1.000  O
  C25      1.0000 0.56865  0.67790  0.41240  Biso   1.000  C
  C26      1.0000 0.43135  0.67790  0.08760  Biso   1.000  C
  C27      1.0000 0.06865  0.17790  0.41240  Biso   1.000  C
  C28      1.0000 0.93135  0.17790  0.08760  Biso   1.000  C
  C29      1.0000 0.43135  0.32210  0.58760  Biso   1.000  C
  C30      1.0000 0.56865  0.32210  0.91240  Biso   1.000  C
  C31      1.0000 0.93135  0.82210  0.58760  Biso   1.000  C
  C32      1.0000 0.06865  0.82210  0.91240  Biso   1.000  C
  H9       1.0000 0.59200  0.79230  0.41710  Biso   1.000  H
  H10      1.0000 0.40800  0.79230  0.08290  Biso   1.000  H
  H11      1.0000 0.09200  0.29230  0.41710  Biso   1.000  H
  H12      1.0000 0.90800  0.29230  0.08290  Biso   1.000  H
  H13      1.0000 0.40800  0.20770  0.58290  Biso   1.000  H
  H14      1.0000 0.59200  0.20770  0.91710  Biso   1.000  H
  H15      1.0000 0.90800  0.70770  0.58290  Biso   1.000  H
  H16      1.0000 0.09200  0.70770  0.91710  Biso   1.000  H
  N33      1.0000 0.37688  0.35140  0.32412  Biso   1.000  N
  N34      1.0000 0.62312  0.35140  0.17588  Biso   1.000  N
  N35      1.0000 0.87688  0.85140  0.32412  Biso   1.000  N
  N36      1.0000 0.12312  0.85140  0.17588  Biso   1.000  N
  N37      1.0000 0.62312  0.64860  0.67588  Biso   1.000  N
  N38      1.0000 0.37688  0.64860  0.82412  Biso   1.000  N
  N39      1.0000 0.12312  0.14860  0.67588  Biso   1.000  N
  N40      1.0000 0.87688  0.14860  0.82412  Biso   1.000  N
  C33      1.0000 0.56091  0.34490  0.43280  Biso   1.000  C
  C34      1.0000 0.43909  0.34490  0.06720  Biso   1.000  C
  C35      1.0000 0.06091  0.84490  0.43280  Biso   1.000  C
  C36      1.0000 0.93909  0.84490  0.06720  Biso   1.000  C
  C37      1.0000 0.43909  0.65510  0.56720  Biso   1.000  C
  C38      1.0000 0.56091  0.65510  0.93280  Biso   1.000  C
  C39      1.0000 0.93909  0.15510  0.56720  Biso   1.000  C
  C40      1.0000 0.06091  0.15510  0.93280  Biso   1.000  C
  H17      1.0000 0.57880  0.23000  0.45130  Biso   1.000  H
  H18      1.0000 0.42120  0.23000  0.04870  Biso   1.000  H
  H19      1.0000 0.07880  0.73000  0.45130  Biso   1.000  H
  H20      1.0000 0.92120  0.73000  0.04870  Biso   1.000  H
  H21      1.0000 0.42120  0.77000  0.54870  Biso   1.000  H
  H22      1.0000 0.57880  0.77000  0.95130  Biso   1.000  H
  H23      1.0000 0.92120  0.27000  0.54870  Biso   1.000  H
  H24      1.0000 0.07880  0.27000  0.95130  Biso   1.000  H
  N41      1.0000 0.19993  0.51540  0.25785  Biso   1.000  N
  N42      1.0000 0.80007  0.51540  0.24215  Biso   1.000  N
  N43      1.0000 0.69993  0.01540  0.25785  Biso   1.000  N
  N44      1.0000 0.30007  0.01540  0.24215  Biso   1.000  N
  N45      1.0000 0.80007  0.48460  0.74215  Biso   1.000  N
  N46      1.0000 0.19993  0.48460  0.75785  Biso   1.000  N
  N47      1.0000 0.30007  0.98460  0.74215  Biso   1.000  N
  N48      1.0000 0.69993  0.98460  0.75785  Biso   1.000  N
  C41      1.0000 0.50096  0.34180  0.39950  Biso   1.000  C
  C42      1.0000 0.49904  0.34180  0.10050  Biso   1.000  C
  C43      1.0000 0.00096  0.84180  0.39950  Biso   1.000  C
  C44      1.0000 0.99904  0.84180  0.10050  Biso   1.000  C
  C45      1.0000 0.49904  0.65820  0.60050  Biso   1.000  C
  C46      1.0000 0.50096  0.65820  0.89950  Biso   1.000  C
  C47      1.0000 0.99904  0.15820  0.60050  Biso   1.000  C
  C48      1.0000 0.00096  0.15820  0.89950  Biso   1.000  C
  H25      1.0000 0.47860  0.22540  0.39530  Biso   1.000  H
  H26      1.0000 0.52140  0.22540  0.10470  Biso   1.000  H
  H27      1.0000 0.97860  0.72540  0.39530  Biso   1.000  H
  H28      1.0000 0.02140  0.72540  0.10470  Biso   1.000  H
  H29      1.0000 0.52140  0.77460  0.60470  Biso   1.000  H
  H30      1.0000 0.47860  0.77460  0.89530  Biso   1.000  H
  H31      1.0000 0.02140  0.27460  0.60470  Biso   1.000  H
  H32      1.0000 0.97860  0.27460  0.89530  Biso   1.000  H
  N49      1.0000 0.14666  0.52070  0.28084  Biso   1.000  N
  N50      1.0000 0.85334  0.52070  0.21916  Biso   1.000  N
  N51      1.0000 0.64666  0.02070  0.28084  Biso   1.000  N
  N52      1.0000 0.35334  0.02070  0.21916  Biso   1.000  N
  N53      1.0000 0.85334  0.47930  0.71916  Biso   1.000  N
  N54      1.0000 0.14666  0.47930  0.78084  Biso   1.000  N
  N55      1.0000 0.35334  0.97930  0.71916  Biso   1.000  N
  N56      1.0000 0.64666  0.97930  0.78084  Biso   1.000  N
  C49      1.0000 0.65973  0.50910  0.46958  Biso   1.000  C
  C50      1.0000 0.34027  0.50910  0.03042  Biso   1.000  C
  C51      1.0000 0.15973  0.00910  0.46958  Biso   1.000  C
  C52      1.0000 0.84027  0.00910  0.03042  Biso   1.000  C
  C53      1.0000 0.34027  0.49090  0.53042  Biso   1.000  C
  C54      1.0000 0.65973  0.49090  0.96958  Biso   1.000  C
  C55      1.0000 0.84027  0.99090  0.53042  Biso   1.000  C
  C56      1.0000 0.15973  0.99090  0.96958  Biso   1.000  C
  H33      1.0000 0.66730  0.39360  0.50040  Biso   1.000  H
  H34      1.0000 0.33270  0.39360  0.99960  Biso   1.000  H
  H35      1.0000 0.16730  0.89360  0.50040  Biso   1.000  H
  H36      1.0000 0.83270  0.89360  0.99960  Biso   1.000  H
  H37      1.0000 0.33270  0.60640  0.49960  Biso   1.000  H
  H38      1.0000 0.66730  0.60640  0.00040  Biso   1.000  H
  H39      1.0000 0.83270  0.10640  0.49960  Biso   1.000  H
  H40      1.0000 0.16730  0.10640  0.00040  Biso   1.000  H
  H41      1.0000 0.66760  0.62300  0.50120  Biso   1.000  H
  H42      1.0000 0.33240  0.62300  0.99880  Biso   1.000  H
  H43      1.0000 0.16760  0.12300  0.50120  Biso   1.000  H
  H44      1.0000 0.83240  0.12300  0.99880  Biso   1.000  H
  H45      1.0000 0.33240  0.37700  0.49880  Biso   1.000  H
  H46      1.0000 0.66760  0.37700  0.00120  Biso   1.000  H
  H47      1.0000 0.83240  0.87700  0.49880  Biso   1.000  H
  H48      1.0000 0.16760  0.87700  0.00120  Biso   1.000  H
  N57      1.0000 0.09589  0.52760  0.30190  Biso   1.000  N
  N58      1.0000 0.90411  0.52760  0.19810  Biso   1.000  N
  N59      1.0000 0.59589  0.02760  0.30190  Biso   1.000  N
  N60      1.0000 0.40411  0.02760  0.19810  Biso   1.000  N
  N61      1.0000 0.90411  0.47240  0.69810  Biso   1.000  N
  N62      1.0000 0.09589  0.47240  0.80190  Biso   1.000  N
  N63      1.0000 0.40411  0.97240  0.69810  Biso   1.000  N
  N64      1.0000 0.59589  0.97240  0.80190  Biso   1.000  N
  C57      1.0000 0.70351  0.51020  0.40050  Biso   1.000  C
  C58      1.0000 0.29649  0.51020  0.09950  Biso   1.000  C
  C59      1.0000 0.20351  0.01020  0.40050  Biso   1.000  C
  C60      1.0000 0.79649  0.01020  0.09950  Biso   1.000  C
  C61      1.0000 0.29649  0.48980  0.59950  Biso   1.000  C
  C62      1.0000 0.70351  0.48980  0.90050  Biso   1.000  C
  C63      1.0000 0.79649  0.98980  0.59950  Biso   1.000  C
  C64      1.0000 0.20351  0.98980  0.90050  Biso   1.000  C
  H49      1.0000 0.21500  0.57800  0.93200  Biso   1.000  H
  H50      1.0000 0.78500  0.57800  0.56800  Biso   1.000  H
  H51      1.0000 0.71500  0.07800  0.93200  Biso   1.000  H
  H52      1.0000 0.28500  0.07800  0.56800  Biso   1.000  H
  H53      1.0000 0.78500  0.42200  0.06800  Biso   1.000  H
  H54      1.0000 0.21500  0.42200  0.43200  Biso   1.000  H
  H55      1.0000 0.28500  0.92200  0.06800  Biso   1.000  H
  H56      1.0000 0.71500  0.92200  0.43200  Biso   1.000  H
  H57      1.0000 0.21400  0.40200  0.93100  Biso   1.000  H
  H58      1.0000 0.78600  0.40200  0.56900  Biso   1.000  H
  H59      1.0000 0.71400  0.90200  0.93100  Biso   1.000  H
  H60      1.0000 0.28600  0.90200  0.56900  Biso   1.000  H
  H61      1.0000 0.78600  0.59800  0.06900  Biso   1.000  H
  H62      1.0000 0.21400  0.59800  0.43100  Biso   1.000  H
  H63      1.0000 0.28600  0.09800  0.06900  Biso   1.000  H
  H64      1.0000 0.71400  0.09800  0.43100  Biso   1.000  H
  H65      1.0000 0.38200  0.99900  0.90400  Biso   1.000  H
  H66      1.0000 0.61800  0.99900  0.59600  Biso   1.000  H
  H67      1.0000 0.88200  0.49900  0.90400  Biso   1.000  H
  H68      1.0000 0.11800  0.49900  0.59600  Biso   1.000  H
  H69      1.0000 0.61800  0.00100  0.09600  Biso   1.000  H
  H70      1.0000 0.38200  0.00100  0.40400  Biso   1.000  H
  H71      1.0000 0.11800  0.50100  0.09600  Biso   1.000  H
  H72      1.0000 0.88200  0.50100  0.40400  Biso   1.000  H
  H73      1.0000 0.35400  0.00700  0.97500  Biso   1.000  H
  H74      1.0000 0.64600  0.00700  0.52500  Biso   1.000  H
  H75      1.0000 0.85400  0.50700  0.97500  Biso   1.000  H
  H76      1.0000 0.14600  0.50700  0.52500  Biso   1.000  H
  H77      1.0000 0.64600  0.99300  0.02500  Biso   1.000  H
  H78      1.0000 0.35400  0.99300  0.47500  Biso   1.000  H
  H79      1.0000 0.14600  0.49300  0.02500  Biso   1.000  H
  H80      1.0000 0.85400  0.49300  0.47500  Biso   1.000  H
