data_image0
_cell_length_a       15.286
_cell_length_b       10.143
_cell_length_c       10.49
_cell_angle_alpha    90
_cell_angle_beta     93.77
_cell_angle_gamma    90

_symmetry_space_group_name_H-M    "P 1"
_symmetry_int_tables_number       1

loop_
  _symmetry_equiv_pos_as_xyz
  'x, y, z'

loop_
  _atom_site_label
  _atom_site_occupancy
  _atom_site_fract_x
  _atom_site_fract_y
  _atom_site_fract_z
  _atom_site_thermal_displace_type
  _atom_site_B_iso_or_equiv
  _atom_site_type_symbol
  Cu1      1.0000 0.36353  0.05035  0.78080  Biso   1.000  Cu
  Cu2      1.0000 0.36353  0.94965  0.28080  Biso   1.000  Cu
  Cu3      1.0000 0.86353  0.55035  0.78080  Biso   1.000  Cu
  Cu4      1.0000 0.86353  0.44965  0.28080  Biso   1.000  Cu
  N1       1.0000 0.31420  0.20120  0.67580  Biso   1.000  N
  N2       1.0000 0.31420  0.79880  0.17580  Biso   1.000  N
  N3       1.0000 0.81420  0.70120  0.67580  Biso   1.000  N
  N4       1.0000 0.81420  0.29880  0.17580  Biso   1.000  N
  N5       1.0000 0.41900  0.20170  0.88410  Biso   1.000  N
  N6       1.0000 0.41900  0.79830  0.38410  Biso   1.000  N
  N7       1.0000 0.91900  0.70170  0.88410  Biso   1.000  N
  N8       1.0000 0.91900  0.29830  0.38410  Biso   1.000  N
  O1       1.0000 0.52630  0.94500  0.75800  Biso   1.000  O
  O2       1.0000 0.52630  0.05500  0.25800  Biso   1.000  O
  O3       1.0000 0.02630  0.44500  0.75800  Biso   1.000  O
  O4       1.0000 0.02630  0.55500  0.25800  Biso   1.000  O
  O5       1.0000 0.42070  0.92090  0.89560  Biso   1.000  O
  O6       1.0000 0.42070  0.07910  0.39560  Biso   1.000  O
  O7       1.0000 0.92070  0.42090  0.89560  Biso   1.000  O
  O8       1.0000 0.92070  0.57910  0.39560  Biso   1.000  O
  O9       1.0000 0.70630  0.55500  0.30370  Biso   1.000  O
  O10      1.0000 0.70630  0.44500  0.80370  Biso   1.000  O
  O11      1.0000 0.20630  0.05500  0.30370  Biso   1.000  O
  O12      1.0000 0.20630  0.94500  0.80370  Biso   1.000  O
  O13      1.0000 0.80780  0.57690  0.16810  Biso   1.000  O
  O14      1.0000 0.80780  0.42310  0.66810  Biso   1.000  O
  O15      1.0000 0.30780  0.07690  0.16810  Biso   1.000  O
  O16      1.0000 0.30780  0.92310  0.66810  Biso   1.000  O
  C1       1.0000 0.25930  0.19810  0.57760  Biso   1.000  C
  C2       1.0000 0.25930  0.80190  0.07760  Biso   1.000  C
  C3       1.0000 0.75930  0.69810  0.57760  Biso   1.000  C
  C4       1.0000 0.75930  0.30190  0.07760  Biso   1.000  C
  H1       1.0000 0.24070  0.11600  0.54710  Biso   1.000  H
  H2       1.0000 0.24070  0.88400  0.04710  Biso   1.000  H
  H3       1.0000 0.74070  0.61600  0.54710  Biso   1.000  H
  H4       1.0000 0.74070  0.38400  0.04710  Biso   1.000  H
  C5       1.0000 0.22600  0.30830  0.51420  Biso   1.000  C
  C6       1.0000 0.22600  0.69170  0.01420  Biso   1.000  C
  C7       1.0000 0.72600  0.80830  0.51420  Biso   1.000  C
  C8       1.0000 0.72600  0.19170  0.01420  Biso   1.000  C
  H5       1.0000 0.19300  0.29870  0.43710  Biso   1.000  H
  H6       1.0000 0.19300  0.70130  0.93710  Biso   1.000  H
  H7       1.0000 0.69300  0.79870  0.43710  Biso   1.000  H
  H8       1.0000 0.69300  0.20130  0.93710  Biso   1.000  H
  C9       1.0000 0.24120  0.43230  0.56420  Biso   1.000  C
  C10      1.0000 0.24120  0.56770  0.06420  Biso   1.000  C
  C11      1.0000 0.74120  0.93230  0.56420  Biso   1.000  C
  C12      1.0000 0.74120  0.06770  0.06420  Biso   1.000  C
  H9       1.0000 0.21180  0.50610  0.53070  Biso   1.000  H
  H10      1.0000 0.21180  0.49390  0.03070  Biso   1.000  H
  H11      1.0000 0.71180  0.00610  0.53070  Biso   1.000  H
  H12      1.0000 0.71180  0.99390  0.03070  Biso   1.000  H
  C13      1.0000 0.30240  0.44140  0.66680  Biso   1.000  C
  C14      1.0000 0.30240  0.55860  0.16680  Biso   1.000  C
  C15      1.0000 0.80240  0.94140  0.66680  Biso   1.000  C
  C16      1.0000 0.80240  0.05860  0.16680  Biso   1.000  C
  C17      1.0000 0.33880  0.56280  0.73540  Biso   1.000  C
  C18      1.0000 0.33880  0.43720  0.23540  Biso   1.000  C
  C19      1.0000 0.83880  0.06280  0.73540  Biso   1.000  C
  C20      1.0000 0.83880  0.93720  0.23540  Biso   1.000  C
  H13      1.0000 0.31930  0.64460  0.70540  Biso   1.000  H
  H14      1.0000 0.31930  0.35540  0.20540  Biso   1.000  H
  H15      1.0000 0.81930  0.14460  0.70540  Biso   1.000  H
  H16      1.0000 0.81930  0.85540  0.20540  Biso   1.000  H
  C21      1.0000 0.39820  0.56020  0.83820  Biso   1.000  C
  C22      1.0000 0.39820  0.43980  0.33820  Biso   1.000  C
  C23      1.0000 0.89820  0.06020  0.83820  Biso   1.000  C
  C24      1.0000 0.89820  0.93980  0.33820  Biso   1.000  C
  H17      1.0000 0.42040  0.63760  0.87510  Biso   1.000  H
  H18      1.0000 0.42040  0.36240  0.37510  Biso   1.000  H
  H19      1.0000 0.92040  0.13760  0.87510  Biso   1.000  H
  H20      1.0000 0.92040  0.86240  0.37510  Biso   1.000  H
  C25      1.0000 0.42370  0.44070  0.88430  Biso   1.000  C
  C26      1.0000 0.42370  0.55930  0.38430  Biso   1.000  C
  C27      1.0000 0.92370  0.94070  0.88430  Biso   1.000  C
  C28      1.0000 0.92370  0.05930  0.38430  Biso   1.000  C
  C29      1.0000 0.47990  0.43260  0.99690  Biso   1.000  C
  C30      1.0000 0.47990  0.56740  0.49690  Biso   1.000  C
  C31      1.0000 0.97990  0.93260  0.99690  Biso   1.000  C
  C32      1.0000 0.97990  0.06740  0.49690  Biso   1.000  C
  H21      1.0000 0.49810  0.51030  0.03760  Biso   1.000  H
  H22      1.0000 0.49810  0.48970  0.53760  Biso   1.000  H
  H23      1.0000 0.99810  0.01030  0.03760  Biso   1.000  H
  H24      1.0000 0.99810  0.98970  0.53760  Biso   1.000  H
  C33      1.0000 0.50820  0.31590  0.04750  Biso   1.000  C
  C34      1.0000 0.50820  0.68410  0.54750  Biso   1.000  C
  C35      1.0000 0.00820  0.81590  0.04750  Biso   1.000  C
  C36      1.0000 0.00820  0.18410  0.54750  Biso   1.000  C
  H25      1.0000 0.55110  0.31300  0.11460  Biso   1.000  H
  H26      1.0000 0.55110  0.68700  0.61460  Biso   1.000  H
  H27      1.0000 0.05110  0.81300  0.11460  Biso   1.000  H
  H28      1.0000 0.05110  0.18700  0.61460  Biso   1.000  H
  C37      1.0000 0.47060  0.19860  0.99510  Biso   1.000  C
  C38      1.0000 0.47060  0.80140  0.49510  Biso   1.000  C
  C39      1.0000 0.97060  0.69860  0.99510  Biso   1.000  C
  C40      1.0000 0.97060  0.30140  0.49510  Biso   1.000  C
  H29      1.0000 0.48120  0.11870  0.03690  Biso   1.000  H
  H30      1.0000 0.48120  0.88130  0.53690  Biso   1.000  H
  H31      1.0000 0.98120  0.61870  0.03690  Biso   1.000  H
  H32      1.0000 0.98120  0.38130  0.53690  Biso   1.000  H
  C41      1.0000 0.39640  0.32090  0.84030  Biso   1.000  C
  C42      1.0000 0.39640  0.67910  0.34030  Biso   1.000  C
  C43      1.0000 0.89640  0.82090  0.84030  Biso   1.000  C
  C44      1.0000 0.89640  0.17910  0.34030  Biso   1.000  C
  C45      1.0000 0.33730  0.32240  0.72940  Biso   1.000  C
  C46      1.0000 0.33730  0.67760  0.22940  Biso   1.000  C
  C47      1.0000 0.83730  0.82240  0.72940  Biso   1.000  C
  C48      1.0000 0.83730  0.17760  0.22940  Biso   1.000  C
  C49      1.0000 0.50060  0.90220  0.86220  Biso   1.000  C
  C50      1.0000 0.50060  0.09780  0.36220  Biso   1.000  C
  C51      1.0000 0.00060  0.40220  0.86220  Biso   1.000  C
  C52      1.0000 0.00060  0.59780  0.36220  Biso   1.000  C
  C53      1.0000 0.55630  0.82360  0.94600  Biso   1.000  C
  C54      1.0000 0.55630  0.17640  0.44600  Biso   1.000  C
  C55      1.0000 0.05630  0.32360  0.94600  Biso   1.000  C
  C56      1.0000 0.05630  0.67640  0.44600  Biso   1.000  C
  C57      1.0000 0.53650  0.80200  0.07500  Biso   1.000  C
  C58      1.0000 0.53650  0.19800  0.57500  Biso   1.000  C
  C59      1.0000 0.03650  0.30200  0.07500  Biso   1.000  C
  C60      1.0000 0.03650  0.69800  0.57500  Biso   1.000  C
  H33      1.0000 0.48430  0.83460  0.10340  Biso   1.000  H
  H34      1.0000 0.48430  0.16540  0.60340  Biso   1.000  H
  H35      1.0000 0.98430  0.33460  0.10340  Biso   1.000  H
  H36      1.0000 0.98430  0.66540  0.60340  Biso   1.000  H
  C61      1.0000 0.59270  0.73410  0.15830  Biso   1.000  C
  C62      1.0000 0.59270  0.26590  0.65830  Biso   1.000  C
  C63      1.0000 0.09270  0.23410  0.15830  Biso   1.000  C
  C64      1.0000 0.09270  0.76590  0.65830  Biso   1.000  C
  H37      1.0000 0.58020  0.72400  0.24330  Biso   1.000  H
  H38      1.0000 0.58020  0.27600  0.74330  Biso   1.000  H
  H39      1.0000 0.08020  0.22400  0.24330  Biso   1.000  H
  H40      1.0000 0.08020  0.77600  0.74330  Biso   1.000  H
  C65      1.0000 0.66900  0.68020  0.11370  Biso   1.000  C
  C66      1.0000 0.66900  0.31980  0.61370  Biso   1.000  C
  C67      1.0000 0.16900  0.18020  0.11370  Biso   1.000  C
  C68      1.0000 0.16900  0.81980  0.61370  Biso   1.000  C
  C69      1.0000 0.68890  0.69700  0.99200  Biso   1.000  C
  C70      1.0000 0.68890  0.30300  0.49200  Biso   1.000  C
  C71      1.0000 0.18890  0.19700  0.99200  Biso   1.000  C
  C72      1.0000 0.18890  0.80300  0.49200  Biso   1.000  C
  H41      1.0000 0.73950  0.65920  0.96360  Biso   1.000  H
  H42      1.0000 0.73950  0.34080  0.46360  Biso   1.000  H
  H43      1.0000 0.23950  0.15920  0.96360  Biso   1.000  H
  H44      1.0000 0.23950  0.84080  0.46360  Biso   1.000  H
  C73      1.0000 0.63360  0.77150  0.90730  Biso   1.000  C
  C74      1.0000 0.63360  0.22850  0.40730  Biso   1.000  C
  C75      1.0000 0.13360  0.27150  0.90730  Biso   1.000  C
  C76      1.0000 0.13360  0.72850  0.40730  Biso   1.000  C
  H45      1.0000 0.64930  0.78580  0.82430  Biso   1.000  H
  H46      1.0000 0.64930  0.21420  0.32430  Biso   1.000  H
  H47      1.0000 0.14930  0.28580  0.82430  Biso   1.000  H
  H48      1.0000 0.14930  0.71420  0.32430  Biso   1.000  H
  C77      1.0000 0.73250  0.59870  0.20810  Biso   1.000  C
  C78      1.0000 0.73250  0.40130  0.70810  Biso   1.000  C
  C79      1.0000 0.23250  0.09870  0.20810  Biso   1.000  C
  C80      1.0000 0.23250  0.90130  0.70810  Biso   1.000  C
