data_image0
_cell_length_a       15.286
_cell_length_b       10.143
_cell_length_c       10.49
_cell_angle_alpha    90
_cell_angle_beta     93.77
_cell_angle_gamma    90

_symmetry_space_group_name_H-M    "P 1"
_symmetry_int_tables_number       1

loop_
  _symmetry_equiv_pos_as_xyz
  'x, y, z'

loop_
  _atom_site_label
  _atom_site_occupancy
  _atom_site_fract_x
  _atom_site_fract_y
  _atom_site_fract_z
  _atom_site_thermal_displace_type
  _atom_site_B_iso_or_equiv
  _atom_site_type_symbol
  Cu1      1.0000 0.00000  0.05035  0.25000  Biso   1.000  Cu
  Cu2      1.0000 0.50000  0.55035  0.25000  Biso   1.000  Cu
  Cu3      1.0000 0.00000  0.94965  0.75000  Biso   1.000  Cu
  Cu4      1.0000 0.50000  0.44965  0.75000  Biso   1.000  Cu
  N1       1.0000 0.94760  0.20145  0.14585  Biso   1.000  N
  N2       1.0000 0.05240  0.20145  0.35415  Biso   1.000  N
  N3       1.0000 0.44760  0.70145  0.14585  Biso   1.000  N
  N4       1.0000 0.55240  0.70145  0.35415  Biso   1.000  N
  N5       1.0000 0.05240  0.79855  0.85415  Biso   1.000  N
  N6       1.0000 0.94760  0.79855  0.64585  Biso   1.000  N
  N7       1.0000 0.55240  0.29855  0.85415  Biso   1.000  N
  N8       1.0000 0.44760  0.29855  0.64585  Biso   1.000  N
  O1       1.0000 0.16000  0.94500  0.22715  Biso   1.000  O
  O2       1.0000 0.84000  0.94500  0.27285  Biso   1.000  O
  O3       1.0000 0.66000  0.44500  0.22715  Biso   1.000  O
  O4       1.0000 0.34000  0.44500  0.27285  Biso   1.000  O
  O5       1.0000 0.84000  0.05500  0.77285  Biso   1.000  O
  O6       1.0000 0.16000  0.05500  0.72715  Biso   1.000  O
  O7       1.0000 0.34000  0.55500  0.77285  Biso   1.000  O
  O8       1.0000 0.66000  0.55500  0.72715  Biso   1.000  O
  O9       1.0000 0.05645  0.92200  0.36375  Biso   1.000  O
  O10      1.0000 0.94355  0.92200  0.13625  Biso   1.000  O
  O11      1.0000 0.55645  0.42200  0.36375  Biso   1.000  O
  O12      1.0000 0.44355  0.42200  0.13625  Biso   1.000  O
  O13      1.0000 0.94355  0.07800  0.63625  Biso   1.000  O
  O14      1.0000 0.05645  0.07800  0.86375  Biso   1.000  O
  O15      1.0000 0.44355  0.57800  0.63625  Biso   1.000  O
  O16      1.0000 0.55645  0.57800  0.86375  Biso   1.000  O
  C1       1.0000 0.89435  0.19835  0.04125  Biso   1.000  C
  C2       1.0000 0.10565  0.19835  0.45875  Biso   1.000  C
  C3       1.0000 0.39435  0.69835  0.04125  Biso   1.000  C
  C4       1.0000 0.60565  0.69835  0.45875  Biso   1.000  C
  C5       1.0000 0.10565  0.80165  0.95875  Biso   1.000  C
  C6       1.0000 0.89435  0.80165  0.54125  Biso   1.000  C
  C7       1.0000 0.60565  0.30165  0.95875  Biso   1.000  C
  C8       1.0000 0.39435  0.30165  0.54125  Biso   1.000  C
  H1       1.0000 0.87975  0.11735  0.00510  Biso   1.000  H
  H2       1.0000 0.12025  0.11735  0.49490  Biso   1.000  H
  H3       1.0000 0.37975  0.61735  0.00510  Biso   1.000  H
  H4       1.0000 0.62025  0.61735  0.49490  Biso   1.000  H
  H5       1.0000 0.12025  0.88265  0.99490  Biso   1.000  H
  H6       1.0000 0.87975  0.88265  0.50510  Biso   1.000  H
  H7       1.0000 0.62025  0.38265  0.99490  Biso   1.000  H
  H8       1.0000 0.37975  0.38265  0.50510  Biso   1.000  H
  C9       1.0000 0.85890  0.31210  0.98335  Biso   1.000  C
  C10      1.0000 0.14110  0.31210  0.51665  Biso   1.000  C
  C11      1.0000 0.35890  0.81210  0.98335  Biso   1.000  C
  C12      1.0000 0.64110  0.81210  0.51665  Biso   1.000  C
  C13      1.0000 0.14110  0.68790  0.01665  Biso   1.000  C
  C14      1.0000 0.85890  0.68790  0.48335  Biso   1.000  C
  C15      1.0000 0.64110  0.18790  0.01665  Biso   1.000  C
  C16      1.0000 0.35890  0.18790  0.48335  Biso   1.000  C
  H9       1.0000 0.82095  0.30585  0.91125  Biso   1.000  H
  H10      1.0000 0.17905  0.30585  0.58875  Biso   1.000  H
  H11      1.0000 0.32095  0.80585  0.91125  Biso   1.000  H
  H12      1.0000 0.67905  0.80585  0.58875  Biso   1.000  H
  H13      1.0000 0.17905  0.69415  0.08875  Biso   1.000  H
  H14      1.0000 0.82095  0.69415  0.41125  Biso   1.000  H
  H15      1.0000 0.67905  0.19415  0.08875  Biso   1.000  H
  H16      1.0000 0.32095  0.19415  0.41125  Biso   1.000  H
  C17      1.0000 0.88065  0.43245  0.03365  Biso   1.000  C
  C18      1.0000 0.11935  0.43245  0.46635  Biso   1.000  C
  C19      1.0000 0.38065  0.93245  0.03365  Biso   1.000  C
  C20      1.0000 0.61935  0.93245  0.46635  Biso   1.000  C
  C21      1.0000 0.11935  0.56755  0.96635  Biso   1.000  C
  C22      1.0000 0.88065  0.56755  0.53365  Biso   1.000  C
  C23      1.0000 0.61935  0.06755  0.96635  Biso   1.000  C
  C24      1.0000 0.38065  0.06755  0.53365  Biso   1.000  C
  H17      1.0000 0.85685  0.50820  0.99655  Biso   1.000  H
  H18      1.0000 0.14315  0.50820  0.50345  Biso   1.000  H
  H19      1.0000 0.35685  0.00820  0.99655  Biso   1.000  H
  H20      1.0000 0.64315  0.00820  0.50345  Biso   1.000  H
  H21      1.0000 0.14315  0.49180  0.00345  Biso   1.000  H
  H22      1.0000 0.85685  0.49180  0.49655  Biso   1.000  H
  H23      1.0000 0.64315  0.99180  0.00345  Biso   1.000  H
  H24      1.0000 0.35685  0.99180  0.49655  Biso   1.000  H
  C25      1.0000 0.93935  0.44105  0.14125  Biso   1.000  C
  C26      1.0000 0.06065  0.44105  0.35875  Biso   1.000  C
  C27      1.0000 0.43935  0.94105  0.14125  Biso   1.000  C
  C28      1.0000 0.56065  0.94105  0.35875  Biso   1.000  C
  C29      1.0000 0.06065  0.55895  0.85875  Biso   1.000  C
  C30      1.0000 0.93935  0.55895  0.64125  Biso   1.000  C
  C31      1.0000 0.56065  0.05895  0.85875  Biso   1.000  C
  C32      1.0000 0.43935  0.05895  0.64125  Biso   1.000  C
  C33      1.0000 0.97030  0.56150  0.19860  Biso   1.000  C
  C34      1.0000 0.02970  0.56150  0.30140  Biso   1.000  C
  C35      1.0000 0.47030  0.06150  0.19860  Biso   1.000  C
  C36      1.0000 0.52970  0.06150  0.30140  Biso   1.000  C
  C37      1.0000 0.02970  0.43850  0.80140  Biso   1.000  C
  C38      1.0000 0.97030  0.43850  0.69860  Biso   1.000  C
  C39      1.0000 0.52970  0.93850  0.80140  Biso   1.000  C
  C40      1.0000 0.47030  0.93850  0.69860  Biso   1.000  C
  H25      1.0000 0.94945  0.64110  0.16515  Biso   1.000  H
  H26      1.0000 0.05055  0.64110  0.33485  Biso   1.000  H
  H27      1.0000 0.44945  0.14110  0.16515  Biso   1.000  H
  H28      1.0000 0.55055  0.14110  0.33485  Biso   1.000  H
  H29      1.0000 0.05055  0.35890  0.83485  Biso   1.000  H
  H30      1.0000 0.94945  0.35890  0.66515  Biso   1.000  H
  H31      1.0000 0.55055  0.85890  0.83485  Biso   1.000  H
  H32      1.0000 0.44945  0.85890  0.66515  Biso   1.000  H
  C41      1.0000 0.97045  0.32165  0.19455  Biso   1.000  C
  C42      1.0000 0.02955  0.32165  0.30545  Biso   1.000  C
  C43      1.0000 0.47045  0.82165  0.19455  Biso   1.000  C
  C44      1.0000 0.52955  0.82165  0.30545  Biso   1.000  C
  C45      1.0000 0.02955  0.67835  0.80545  Biso   1.000  C
  C46      1.0000 0.97045  0.67835  0.69455  Biso   1.000  C
  C47      1.0000 0.52955  0.17835  0.80545  Biso   1.000  C
  C48      1.0000 0.47045  0.17835  0.69455  Biso   1.000  C
  C49      1.0000 0.13405  0.90175  0.32705  Biso   1.000  C
  C50      1.0000 0.86595  0.90175  0.17295  Biso   1.000  C
  C51      1.0000 0.63405  0.40175  0.32705  Biso   1.000  C
  C52      1.0000 0.36595  0.40175  0.17295  Biso   1.000  C
  C53      1.0000 0.86595  0.09825  0.67295  Biso   1.000  C
  C54      1.0000 0.13405  0.09825  0.82705  Biso   1.000  C
  C55      1.0000 0.36595  0.59825  0.67295  Biso   1.000  C
  C56      1.0000 0.63405  0.59825  0.82705  Biso   1.000  C
  C57      1.0000 0.19365  0.82170  0.41615  Biso   1.000  C
  C58      1.0000 0.80635  0.82170  0.08385  Biso   1.000  C
  C59      1.0000 0.69365  0.32170  0.41615  Biso   1.000  C
  C60      1.0000 0.30635  0.32170  0.08385  Biso   1.000  C
  C61      1.0000 0.80635  0.17830  0.58385  Biso   1.000  C
  C62      1.0000 0.19365  0.17830  0.91615  Biso   1.000  C
  C63      1.0000 0.30635  0.67830  0.58385  Biso   1.000  C
  C64      1.0000 0.69365  0.67830  0.91615  Biso   1.000  C
  C65      1.0000 0.17380  0.80250  0.54150  Biso   1.000  C
  C66      1.0000 0.82620  0.80250  0.95850  Biso   1.000  C
  C67      1.0000 0.67380  0.30250  0.54150  Biso   1.000  C
  C68      1.0000 0.32620  0.30250  0.95850  Biso   1.000  C
  C69      1.0000 0.82620  0.19750  0.45850  Biso   1.000  C
  C70      1.0000 0.17380  0.19750  0.04150  Biso   1.000  C
  C71      1.0000 0.32620  0.69750  0.45850  Biso   1.000  C
  C72      1.0000 0.67380  0.69750  0.04150  Biso   1.000  C
  H33      1.0000 0.12240  0.83770  0.56990  Biso   1.000  H
  H34      1.0000 0.87760  0.83770  0.93010  Biso   1.000  H
  H35      1.0000 0.62240  0.33770  0.56990  Biso   1.000  H
  H36      1.0000 0.37760  0.33770  0.93010  Biso   1.000  H
  H37      1.0000 0.87760  0.16230  0.43010  Biso   1.000  H
  H38      1.0000 0.12240  0.16230  0.06990  Biso   1.000  H
  H39      1.0000 0.37760  0.66230  0.43010  Biso   1.000  H
  H40      1.0000 0.62240  0.66230  0.06990  Biso   1.000  H
  C73      1.0000 0.27045  0.76870  0.37450  Biso   1.000  C
  C74      1.0000 0.72955  0.76870  0.12550  Biso   1.000  C
  C75      1.0000 0.77045  0.26870  0.37450  Biso   1.000  C
  C76      1.0000 0.22955  0.26870  0.12550  Biso   1.000  C
  C77      1.0000 0.72955  0.23130  0.62550  Biso   1.000  C
  C78      1.0000 0.27045  0.23130  0.87450  Biso   1.000  C
  C79      1.0000 0.22955  0.73130  0.62550  Biso   1.000  C
  C80      1.0000 0.77045  0.73130  0.87450  Biso   1.000  C
  H41      1.0000 0.28455  0.78090  0.29050  Biso   1.000  H
  H42      1.0000 0.71545  0.78090  0.20950  Biso   1.000  H
  H43      1.0000 0.78455  0.28090  0.29050  Biso   1.000  H
  H44      1.0000 0.21545  0.28090  0.20950  Biso   1.000  H
  H45      1.0000 0.71545  0.21910  0.70950  Biso   1.000  H
  H46      1.0000 0.28455  0.21910  0.79050  Biso   1.000  H
  H47      1.0000 0.21545  0.71910  0.70950  Biso   1.000  H
  H48      1.0000 0.78455  0.71910  0.79050  Biso   1.000  H
