data_image0
_cell_length_a       6.5487
_cell_length_b       11.6471
_cell_length_c       14.3225
_cell_angle_alpha    70.136
_cell_angle_beta     89.399
_cell_angle_gamma    88.768

_symmetry_space_group_name_H-M    "P 1"
_symmetry_int_tables_number       1

loop_
  _symmetry_equiv_pos_as_xyz
  'x, y, z'

loop_
  _atom_site_label
  _atom_site_occupancy
  _atom_site_fract_x
  _atom_site_fract_y
  _atom_site_fract_z
  _atom_site_thermal_displace_type
  _atom_site_B_iso_or_equiv
  _atom_site_type_symbol
  C1       1.0000 0.13200  0.48700  0.49750  Biso   1.000  C
  C2       1.0000 0.86800  0.51300  0.50250  Biso   1.000  C
  H1       1.0000 0.21950  0.43270  0.54770  Biso   1.000  H
  H2       1.0000 0.78050  0.56730  0.45230  Biso   1.000  H
  Cl1      1.0000 0.26900  0.55920  0.40730  Biso   1.000  Cl
  Cl2      1.0000 0.73100  0.44080  0.59270  Biso   1.000  Cl
  Cu1      1.0000 0.00000  0.00000  0.00000  Biso   1.000  Cu
  C3       1.0000 0.08230  0.92400  0.21560  Biso   1.000  C
  C4       1.0000 0.91770  0.07600  0.78440  Biso   1.000  C
  H3       1.0000 0.94630  0.90140  0.21930  Biso   1.000  H
  H4       1.0000 0.05370  0.09860  0.78070  Biso   1.000  H
  C5       1.0000 0.18880  0.89950  0.30220  Biso   1.000  C
  C6       1.0000 0.81120  0.10050  0.69780  Biso   1.000  C
  H5       1.0000 0.12560  0.85970  0.36270  Biso   1.000  H
  H6       1.0000 0.87440  0.14030  0.63730  Biso   1.000  H
  C7       1.0000 0.39010  0.93380  0.30000  Biso   1.000  C
  C8       1.0000 0.60990  0.06620  0.70000  Biso   1.000  C
  C9       1.0000 0.47350  0.99510  0.20740  Biso   1.000  C
  C10      1.0000 0.52650  0.00490  0.79260  Biso   1.000  C
  H7       1.0000 0.60690  0.02260  0.20190  Biso   1.000  H
  H8       1.0000 0.39310  0.97740  0.79810  Biso   1.000  H
  C11      1.0000 0.35650  0.01500  0.12340  Biso   1.000  C
  C12      1.0000 0.64350  0.98500  0.87660  Biso   1.000  C
  H9       1.0000 0.41500  0.05570  0.06180  Biso   1.000  H
  H10      1.0000 0.58500  0.94430  0.93820  Biso   1.000  H
  C13      1.0000 0.50250  0.90310  0.39060  Biso   1.000  C
  C14      1.0000 0.49750  0.09690  0.60940  Biso   1.000  C
  C15      1.0000 0.58240  0.87060  0.46970  Biso   1.000  C
  C16      1.0000 0.41760  0.12940  0.53030  Biso   1.000  C
  C17      1.0000 0.66340  0.81890  0.56890  Biso   1.000  C
  C18      1.0000 0.33660  0.18110  0.43110  Biso   1.000  C
  C19      1.0000 0.55760  0.72650  0.63910  Biso   1.000  C
  C20      1.0000 0.44240  0.27350  0.36090  Biso   1.000  C
  H11      1.0000 0.43470  0.70050  0.62200  Biso   1.000  H
  H12      1.0000 0.56530  0.29950  0.37800  Biso   1.000  H
  C21      1.0000 0.63270  0.67320  0.73350  Biso   1.000  C
  C22      1.0000 0.36730  0.32680  0.26650  Biso   1.000  C
  H13      1.0000 0.56180  0.61070  0.77960  Biso   1.000  H
  H14      1.0000 0.43820  0.38930  0.22040  Biso   1.000  H
  C23      1.0000 0.81150  0.71220  0.75950  Biso   1.000  C
  C24      1.0000 0.18850  0.28780  0.24050  Biso   1.000  C
  H15      1.0000 0.86120  0.67610  0.82370  Biso   1.000  H
  H16      1.0000 0.13880  0.32390  0.17630  Biso   1.000  H
  C25      1.0000 0.91900  0.80410  0.69230  Biso   1.000  C
  C26      1.0000 0.08100  0.19590  0.30770  Biso   1.000  C
  H17      1.0000 0.04110  0.82920  0.71090  Biso   1.000  H
  H18      1.0000 0.95890  0.17080  0.28910  Biso   1.000  H
  C27      1.0000 0.84500  0.86000  0.59560  Biso   1.000  C
  C28      1.0000 0.15500  0.14000  0.40440  Biso   1.000  C
  C29      1.0000 0.95380  0.95840  0.52730  Biso   1.000  C
  C30      1.0000 0.04620  0.04160  0.47270  Biso   1.000  C
  C31      1.0000 0.14650  0.74320  0.00730  Biso   1.000  C
  C32      1.0000 0.85350  0.25680  0.99270  Biso   1.000  C
  C33      1.0000 0.99050  0.68770  0.07500  Biso   1.000  C
  C34      1.0000 0.00950  0.31230  0.92500  Biso   1.000  C
  H19      1.0000 0.98760  0.60280  0.10030  Biso   1.000  H
  H20      1.0000 0.01240  0.39720  0.89970  Biso   1.000  H
  C35      1.0000 0.84240  0.75230  0.10570  Biso   1.000  C
  C36      1.0000 0.15760  0.24770  0.89430  Biso   1.000  C
  C37      1.0000 0.29020  0.65770  0.97580  Biso   1.000  C
  C38      1.0000 0.70980  0.34230  0.02420  Biso   1.000  C
  C39      1.0000 0.69090  0.68030  0.18580  Biso   1.000  C
  C40      1.0000 0.30910  0.31970  0.81420  Biso   1.000  C
  N1       1.0000 0.16450  0.97880  0.12603  Biso   1.000  N
  N2       1.0000 0.83550  0.02120  0.87397  Biso   1.000  N
  O1       1.0000 0.18290  0.85240  0.96817  Biso   1.000  O
  O2       1.0000 0.81710  0.14760  0.03183  Biso   1.000  O
  O3       1.0000 0.81100  0.86530  0.07938  Biso   1.000  O
  O4       1.0000 0.18900  0.13470  0.92062  Biso   1.000  O
  F1       1.0000 0.47740  0.69440  0.96140  Biso   1.000  F
  F2       1.0000 0.52260  0.30560  0.03860  Biso   1.000  F
  F3       1.0000 0.23120  0.64960  0.89220  Biso   1.000  F
  F4       1.0000 0.76880  0.35040  0.10780  Biso   1.000  F
  F5       1.0000 0.30250  0.54680  0.04060  Biso   1.000  F
  F6       1.0000 0.69750  0.45320  0.95940  Biso   1.000  F
  F7       1.0000 0.72440  0.69970  0.26942  Biso   1.000  F
  F8       1.0000 0.27560  0.30030  0.73058  Biso   1.000  F
  F9       1.0000 0.49850  0.71770  0.16060  Biso   1.000  F
  F10      1.0000 0.50150  0.28230  0.83940  Biso   1.000  F
  F11      1.0000 0.70030  0.56170  0.20380  Biso   1.000  F
  F12      1.0000 0.29970  0.43830  0.79620  Biso   1.000  F
  Cl3      1.0000 0.97300  0.40680  0.45880  Biso   1.000  Cl
  Cl4      1.0000 0.02700  0.59320  0.54120  Biso   1.000  Cl
