data_image0
_cell_length_a       11.133
_cell_length_b       13.153
_cell_length_c       14.333
_cell_angle_alpha    62.71
_cell_angle_beta     79.18
_cell_angle_gamma    68.17

_symmetry_space_group_name_H-M    "P 1"
_symmetry_int_tables_number       1

loop_
  _symmetry_equiv_pos_as_xyz
  'x, y, z'

loop_
  _atom_site_label
  _atom_site_occupancy
  _atom_site_fract_x
  _atom_site_fract_y
  _atom_site_fract_z
  _atom_site_thermal_displace_type
  _atom_site_B_iso_or_equiv
  _atom_site_type_symbol
  Cu1      1.0000 0.00000  0.50000  0.50000  Biso   1.000  Cu
  O1       1.0000 0.02629  0.62004  0.36350  Biso   1.000  O
  O2       1.0000 0.97371  0.37996  0.63650  Biso   1.000  O
  C1       1.0000 0.08277  0.78248  0.23503  Biso   1.000  C
  C2       1.0000 0.91723  0.21752  0.76497  Biso   1.000  C
  F1       1.0000 0.98396  0.82361  0.17609  Biso   1.000  F
  F2       1.0000 0.01604  0.17639  0.82391  Biso   1.000  F
  F3       1.0000 0.18087  0.71722  0.19915  Biso   1.000  F
  F4       1.0000 0.81913  0.28278  0.80085  Biso   1.000  F
  F5       1.0000 0.11280  0.87824  0.21695  Biso   1.000  F
  F6       1.0000 0.88720  0.12176  0.78305  Biso   1.000  F
  C3       1.0000 0.05409  0.71008  0.34914  Biso   1.000  C
  C4       1.0000 0.94591  0.28992  0.65086  Biso   1.000  C
  C5       1.0000 0.05910  0.74984  0.42179  Biso   1.000  C
  C6       1.0000 0.94090  0.25016  0.57821  Biso   1.000  C
  H1       1.0000 0.08620  0.81640  0.39980  Biso   1.000  H
  H2       1.0000 0.91380  0.18360  0.60020  Biso   1.000  H
  C7       1.0000 0.02409  0.69207  0.52962  Biso   1.000  C
  C8       1.0000 0.97591  0.30793  0.47038  Biso   1.000  C
  O3       1.0000 0.99079  0.59980  0.56821  Biso   1.000  O
  O4       1.0000 0.00921  0.40020  0.43179  Biso   1.000  O
  C9       1.0000 0.02920  0.74267  0.60038  Biso   1.000  C
  C10      1.0000 0.97080  0.25733  0.39962  Biso   1.000  C
  C11      1.0000 0.06750  0.83812  0.58175  Biso   1.000  C
  C12      1.0000 0.93250  0.16188  0.41825  Biso   1.000  C
  H3       1.0000 0.09730  0.88500  0.51690  Biso   1.000  H
  H4       1.0000 0.90270  0.11500  0.48310  Biso   1.000  H
  C13      1.0000 0.05650  0.85660  0.67220  Biso   1.000  C
  C14      1.0000 0.94350  0.14340  0.32780  Biso   1.000  C
  H5       1.0000 0.07890  0.91730  0.67380  Biso   1.000  H
  H6       1.0000 0.92110  0.08270  0.32620  Biso   1.000  H
  C15      1.0000 0.01130  0.77970  0.75480  Biso   1.000  C
  C16      1.0000 0.98870  0.22030  0.24520  Biso   1.000  C
  H7       1.0000 0.99740  0.78080  0.82040  Biso   1.000  H
  H8       1.0000 0.00260  0.21920  0.17960  Biso   1.000  H
  S1       1.0000 0.98116  0.67770  0.72769  Biso   1.000  S
  S2       1.0000 0.01884  0.32230  0.27231  Biso   1.000  S
  Cu2      1.0000 0.50000  0.50000  0.00000  Biso   1.000  Cu
  O5       1.0000 0.34354  0.66762  0.97810  Biso   1.000  O
  O6       1.0000 0.65646  0.33238  0.02190  Biso   1.000  O
  C17      1.0000 0.24830  0.87186  0.92579  Biso   1.000  C
  C18      1.0000 0.75170  0.12814  0.07421  Biso   1.000  C
  F7       1.0000 0.13958  0.85758  0.96075  Biso   1.000  F
  F8       1.0000 0.86042  0.14242  0.03925  Biso   1.000  F
  F9       1.0000 0.23996  0.92747  0.82331  Biso   1.000  F
  F10      1.0000 0.76004  0.07253  0.17669  Biso   1.000  F
  F11      1.0000 0.24865  0.95646  0.94816  Biso   1.000  F
  F12      1.0000 0.75135  0.04354  0.05184  Biso   1.000  F
  C19      1.0000 0.36510  0.76113  0.95902  Biso   1.000  C
  C20      1.0000 0.63490  0.23887  0.04098  Biso   1.000  C
  C21      1.0000 0.48180  0.77493  0.96379  Biso   1.000  C
  C22      1.0000 0.51820  0.22507  0.03621  Biso   1.000  C
  H9       1.0000 0.47880  0.85170  0.95140  Biso   1.000  H
  H10      1.0000 0.52120  0.14830  0.04860  Biso   1.000  H
  C23      1.0000 0.60090  0.68605  0.98509  Biso   1.000  C
  C24      1.0000 0.39910  0.31395  0.01491  Biso   1.000  C
  O7       1.0000 0.62537  0.57808  0.00055  Biso   1.000  O
  O8       1.0000 0.37463  0.42192  0.99945  Biso   1.000  O
  C25      1.0000 0.71530  0.71337  0.99404  Biso   1.000  C
  C26      1.0000 0.28470  0.28663  0.00596  Biso   1.000  C
  C27      1.0000 0.71628  0.83975  0.97822  Biso   1.000  C
  C28      1.0000 0.28372  0.16025  0.02178  Biso   1.000  C
  H11      1.0000 0.65090  0.91440  0.95860  Biso   1.000  H
  H12      1.0000 0.34910  0.08560  0.04140  Biso   1.000  H
  C29      1.0000 0.85290  0.80360  0.00411  Biso   1.000  C
  C30      1.0000 0.14710  0.19640  0.99589  Biso   1.000  C
  H13      1.0000 0.88650  0.85980  0.00180  Biso   1.000  H
  H14      1.0000 0.11350  0.14020  0.99820  Biso   1.000  H
  C31      1.0000 0.92550  0.69007  0.03050  Biso   1.000  C
  C32      1.0000 0.07450  0.30993  0.96950  Biso   1.000  C
  H15      1.0000 0.01160  0.66160  0.04880  Biso   1.000  H
  H16      1.0000 0.98840  0.33840  0.95120  Biso   1.000  H
  S3       1.0000 0.85490  0.60296  0.02903  Biso   1.000  S
  S4       1.0000 0.14510  0.39704  0.97097  Biso   1.000  S
  O9       1.0000 0.76321  0.55572  0.50151  Biso   1.000  O
  O10      1.0000 0.23679  0.44428  0.49849  Biso   1.000  O
  N1       1.0000 0.65885  0.63579  0.45985  Biso   1.000  N
  N2       1.0000 0.34115  0.36421  0.54015  Biso   1.000  N
  C33      1.0000 0.64232  0.69802  0.34328  Biso   1.000  C
  C34      1.0000 0.35768  0.30198  0.65672  Biso   1.000  C
  C35      1.0000 0.69710  0.80190  0.30530  Biso   1.000  C
  C36      1.0000 0.30290  0.19810  0.69470  Biso   1.000  C
  H17      1.0000 0.78960  0.76970  0.31050  Biso   1.000  H
  H18      1.0000 0.21040  0.23030  0.68950  Biso   1.000  H
  H19      1.0000 0.66190  0.84530  0.34820  Biso   1.000  H
  H20      1.0000 0.33810  0.15470  0.65180  Biso   1.000  H
  H21      1.0000 0.67400  0.85590  0.23360  Biso   1.000  H
  H22      1.0000 0.32600  0.14410  0.76640  Biso   1.000  H
  C37      1.0000 0.71920  0.61090  0.29529  Biso   1.000  C
  C38      1.0000 0.28080  0.38910  0.70471  Biso   1.000  C
  H23      1.0000 0.80990  0.59100  0.30320  Biso   1.000  H
  H24      1.0000 0.19010  0.40900  0.69680  Biso   1.000  H
  H25      1.0000 0.70030  0.64800  0.22200  Biso   1.000  H
  H26      1.0000 0.29970  0.35200  0.77800  Biso   1.000  H
  H27      1.0000 0.69600  0.53850  0.33020  Biso   1.000  H
  H28      1.0000 0.30400  0.46150  0.66980  Biso   1.000  H
  C39      1.0000 0.49350  0.74076  0.33806  Biso   1.000  C
  C40      1.0000 0.50650  0.25924  0.66194  Biso   1.000  C
  C41      1.0000 0.43210  0.86330  0.24825  Biso   1.000  C
  C42      1.0000 0.56790  0.13670  0.75175  Biso   1.000  C
  H29      1.0000 0.33990  0.88180  0.25170  Biso   1.000  H
  H30      1.0000 0.66010  0.11820  0.74830  Biso   1.000  H
  H31      1.0000 0.46520  0.86030  0.18240  Biso   1.000  H
  H32      1.0000 0.53480  0.13970  0.81760  Biso   1.000  H
  H33      1.0000 0.45250  0.92480  0.25420  Biso   1.000  H
  H34      1.0000 0.54750  0.07520  0.74580  Biso   1.000  H
  C43      1.0000 0.44520  0.64509  0.34128  Biso   1.000  C
  C44      1.0000 0.55480  0.35491  0.65872  Biso   1.000  C
  H35      1.0000 0.35250  0.67540  0.33790  Biso   1.000  H
  H36      1.0000 0.64750  0.32460  0.66210  Biso   1.000  H
  H37      1.0000 0.47130  0.57330  0.40540  Biso   1.000  H
  H38      1.0000 0.52870  0.42670  0.59460  Biso   1.000  H
  H39      1.0000 0.48130  0.62620  0.28260  Biso   1.000  H
  H40      1.0000 0.51870  0.37380  0.71740  Biso   1.000  H
  N3       1.0000 0.45537  0.74458  0.44169  Biso   1.000  N
  N4       1.0000 0.54463  0.25542  0.55831  Biso   1.000  N
  O11      1.0000 0.33910  0.80237  0.45872  Biso   1.000  O
  O12      1.0000 0.66090  0.19763  0.54128  Biso   1.000  O
  C45      1.0000 0.55003  0.67440  0.51156  Biso   1.000  C
  C46      1.0000 0.44997  0.32560  0.48844  Biso   1.000  C
  C47      1.0000 0.53898  0.64084  0.62321  Biso   1.000  C
  C48      1.0000 0.46102  0.35916  0.37679  Biso   1.000  C
  C49      1.0000 0.42018  0.65452  0.67502  Biso   1.000  C
  C50      1.0000 0.57982  0.34548  0.32498  Biso   1.000  C
  H41      1.0000 0.34470  0.69090  0.63710  Biso   1.000  H
  H42      1.0000 0.65530  0.30910  0.36290  Biso   1.000  H
  C51      1.0000 0.41290  0.61500  0.78166  Biso   1.000  C
  C52      1.0000 0.58710  0.38500  0.21834  Biso   1.000  C
  H43      1.0000 0.33160  0.62460  0.81440  Biso   1.000  H
  H44      1.0000 0.66840  0.37540  0.18560  Biso   1.000  H
  N5       1.0000 0.51643  0.56358  0.84088  Biso   1.000  N
  N6       1.0000 0.48357  0.43642  0.15912  Biso   1.000  N
  C53      1.0000 0.63200  0.55127  0.79084  Biso   1.000  C
  C54      1.0000 0.36800  0.44873  0.20916  Biso   1.000  C
  H45      1.0000 0.70550  0.51630  0.83090  Biso   1.000  H
  H46      1.0000 0.29450  0.48370  0.16910  Biso   1.000  H
  C55      1.0000 0.64849  0.58674  0.68529  Biso   1.000  C
  C56      1.0000 0.35151  0.41326  0.31471  Biso   1.000  C
  H47      1.0000 0.73110  0.57530  0.65480  Biso   1.000  H
  H48      1.0000 0.26890  0.42470  0.34520  Biso   1.000  H
  C57      1.0000 0.35200  0.09340  0.39100  Biso   1.000  C
  C58      1.0000 0.64800  0.90660  0.60900  Biso   1.000  C
  H49      1.0000 0.27900  0.13900  0.34500  Biso   1.000  H
  H50      1.0000 0.72100  0.86100  0.65500  Biso   1.000  H
  C59      1.0000 0.32910  0.02980  0.49690  Biso   1.000  C
  C60      1.0000 0.67090  0.97020  0.50310  Biso   1.000  C
  H51      1.0000 0.27400  0.02900  0.51400  Biso   1.000  H
  H52      1.0000 0.72600  0.97100  0.48600  Biso   1.000  H
  C61      1.0000 0.43550  0.96360  0.56820  Biso   1.000  C
  C62      1.0000 0.56450  0.03640  0.43180  Biso   1.000  C
  H53      1.0000 0.42100  0.93100  0.63000  Biso   1.000  H
  H54      1.0000 0.57900  0.06900  0.37000  Biso   1.000  H
  C63      1.0000 0.56120  0.95940  0.53840  Biso   1.000  C
  C64      1.0000 0.43880  0.04060  0.46160  Biso   1.000  C
  H55      1.0000 0.64900  0.90600  0.59100  Biso   1.000  H
  H56      1.0000 0.35100  0.09400  0.40900  Biso   1.000  H
  C65      1.0000 0.58530  0.02540  0.43410  Biso   1.000  C
  C66      1.0000 0.41470  0.97460  0.56590  Biso   1.000  C
  H57      1.0000 0.66600  0.03200  0.41300  Biso   1.000  H
  H58      1.0000 0.33400  0.96800  0.58700  Biso   1.000  H
  C67      1.0000 0.48620  0.08420  0.36300  Biso   1.000  C
  C68      1.0000 0.51380  0.91580  0.63700  Biso   1.000  C
  H59      1.0000 0.50200  0.09900  0.31200  Biso   1.000  H
  H60      1.0000 0.49800  0.90100  0.68800  Biso   1.000  H
