data_image0
_cell_length_a       5.1014
_cell_length_b       7.6067
_cell_length_c       10.291
_cell_angle_alpha    72.38
_cell_angle_beta     86.796
_cell_angle_gamma    84.447

_symmetry_space_group_name_H-M    "P 1"
_symmetry_int_tables_number       1

loop_
  _symmetry_equiv_pos_as_xyz
  'x, y, z'

loop_
  _atom_site_label
  _atom_site_occupancy
  _atom_site_fract_x
  _atom_site_fract_y
  _atom_site_fract_z
  _atom_site_thermal_displace_type
  _atom_site_B_iso_or_equiv
  _atom_site_type_symbol
  U1       1.0000 0.00000  0.00000  0.00000  Biso   1.000  U
  Cu1      1.0000 0.50000  0.00000  0.50000  Biso   1.000  Cu
  O1       1.0000 0.24510  0.96920  0.12200  Biso   1.000  O
  O2       1.0000 0.75490  0.03080  0.87800  Biso   1.000  O
  O3       1.0000 0.17180  0.26040  0.86620  Biso   1.000  O
  O4       1.0000 0.82820  0.73960  0.13380  Biso   1.000  O
  O5       1.0000 0.31180  0.39860  0.65330  Biso   1.000  O
  O6       1.0000 0.68820  0.60140  0.34670  Biso   1.000  O
  O7       1.0000 0.26090  0.80880  0.89250  Biso   1.000  O
  O8       1.0000 0.73910  0.19120  0.10750  Biso   1.000  O
  O9       1.0000 0.26890  0.96850  0.67070  Biso   1.000  O
  O10      1.0000 0.73110  0.03150  0.32930  Biso   1.000  O
  C1       1.0000 0.15960  0.38580  0.75180  Biso   1.000  C
  C2       1.0000 0.84040  0.61420  0.24820  Biso   1.000  C
  C3       1.0000 0.93310  0.53160  0.73620  Biso   1.000  C
  C4       1.0000 0.06690  0.46840  0.26380  Biso   1.000  C
  C5       1.0000 0.73540  0.56560  0.82530  Biso   1.000  C
  C6       1.0000 0.26460  0.43440  0.17470  Biso   1.000  C
  H1       1.0000 0.70600  0.49870  0.91610  Biso   1.000  H
  H2       1.0000 0.29400  0.50130  0.08390  Biso   1.000  H
  C7       1.0000 0.59040  0.72330  0.74740  Biso   1.000  C
  C8       1.0000 0.40960  0.27670  0.25260  Biso   1.000  C
  C9       1.0000 0.35360  0.84050  0.77220  Biso   1.000  C
  C10      1.0000 0.64640  0.15950  0.22780  Biso   1.000  C
  N1       1.0000 0.69480  0.78100  0.62020  Biso   1.000  N
  N2       1.0000 0.30520  0.21900  0.37980  Biso   1.000  N
  N3       1.0000 0.90500  0.66440  0.61540  Biso   1.000  N
  N4       1.0000 0.09500  0.33560  0.38460  Biso   1.000  N
  H3       1.0000 0.00810  0.67260  0.54510  Biso   1.000  H
  H4       1.0000 0.99190  0.32740  0.45490  Biso   1.000  H
  O11      1.0000 0.74040  0.20130  0.58810  Biso   1.000  O
  O12      1.0000 0.25960  0.79870  0.41190  Biso   1.000  O
