data_image0
_cell_length_a       9.6813
_cell_length_b       10.3897
_cell_length_c       10.7623
_cell_angle_alpha    71.088
_cell_angle_beta     64.816
_cell_angle_gamma    63.731

_symmetry_space_group_name_H-M    "P 1"
_symmetry_int_tables_number       1

loop_
  _symmetry_equiv_pos_as_xyz
  'x, y, z'

loop_
  _atom_site_label
  _atom_site_occupancy
  _atom_site_fract_x
  _atom_site_fract_y
  _atom_site_fract_z
  _atom_site_thermal_displace_type
  _atom_site_B_iso_or_equiv
  _atom_site_type_symbol
  C1       1.0000 0.83780  0.74560  0.57520  Biso   1.000  C
  C2       1.0000 0.16220  0.25440  0.42480  Biso   1.000  C
  C3       1.0000 0.74110  0.89610  0.61010  Biso   1.000  C
  C4       1.0000 0.25890  0.10390  0.38990  Biso   1.000  C
  C5       1.0000 0.81870  0.97440  0.62150  Biso   1.000  C
  C6       1.0000 0.18130  0.02560  0.37850  Biso   1.000  C
  H1       1.0000 0.93250  0.93300  0.60710  Biso   1.000  H
  H2       1.0000 0.06750  0.06700  0.39290  Biso   1.000  H
  C7       1.0000 0.72890  0.11370  0.65410  Biso   1.000  C
  C8       1.0000 0.27110  0.88630  0.34590  Biso   1.000  C
  H3       1.0000 0.78150  0.16810  0.66120  Biso   1.000  H
  H4       1.0000 0.21850  0.83190  0.33880  Biso   1.000  H
  C9       1.0000 0.56200  0.17340  0.67620  Biso   1.000  C
  C10      1.0000 0.43800  0.82660  0.32380  Biso   1.000  C
  H5       1.0000 0.50050  0.26800  0.70030  Biso   1.000  H
  H6       1.0000 0.49950  0.73200  0.29970  Biso   1.000  H
  C11      1.0000 0.48550  0.09660  0.66360  Biso   1.000  C
  C12      1.0000 0.51450  0.90340  0.33640  Biso   1.000  C
  H7       1.0000 0.37170  0.13850  0.67760  Biso   1.000  H
  H8       1.0000 0.62830  0.86150  0.32240  Biso   1.000  H
  C13      1.0000 0.57440  0.95770  0.63030  Biso   1.000  C
  C14      1.0000 0.42560  0.04230  0.36970  Biso   1.000  C
  H9       1.0000 0.52150  0.90460  0.62130  Biso   1.000  H
  H10      1.0000 0.47850  0.09540  0.37870  Biso   1.000  H
  C15      1.0000 0.04890  0.62970  0.24950  Biso   1.000  C
  C16      1.0000 0.95110  0.37030  0.75050  Biso   1.000  C
  C17      1.0000 0.07310  0.71240  0.10260  Biso   1.000  C
  C18      1.0000 0.92690  0.28760  0.89740  Biso   1.000  C
  C19      1.0000 0.17060  0.79580  0.04770  Biso   1.000  C
  C20      1.0000 0.82940  0.20420  0.95230  Biso   1.000  C
  H11      1.0000 0.22130  0.80210  0.10310  Biso   1.000  H
  H12      1.0000 0.77870  0.19790  0.89690  Biso   1.000  H
  C21      1.0000 0.19490  0.87020  0.91230  Biso   1.000  C
  C22      1.0000 0.80510  0.12980  0.08770  Biso   1.000  C
  H13      1.0000 0.26120  0.92810  0.87530  Biso   1.000  H
  H14      1.0000 0.73880  0.07190  0.12470  Biso   1.000  H
  C23      1.0000 0.12230  0.86040  0.83020  Biso   1.000  C
  C24      1.0000 0.87770  0.13960  0.16980  Biso   1.000  C
  H15      1.0000 0.13970  0.91050  0.73690  Biso   1.000  H
  H16      1.0000 0.86030  0.08950  0.26310  Biso   1.000  H
  C25      1.0000 0.02510  0.77750  0.88530  Biso   1.000  C
  C26      1.0000 0.97490  0.22250  0.11470  Biso   1.000  C
  H17      1.0000 0.97530  0.77050  0.82960  Biso   1.000  H
  H18      1.0000 0.02470  0.22950  0.17040  Biso   1.000  H
  C27      1.0000 0.99900  0.70400  0.02150  Biso   1.000  C
  C28      1.0000 0.00100  0.29600  0.97850  Biso   1.000  C
  H19      1.0000 0.93050  0.64810  0.05910  Biso   1.000  H
  H20      1.0000 0.06950  0.35190  0.94090  Biso   1.000  H
  C29      1.0000 0.35670  0.56260  0.59120  Biso   1.000  C
  C30      1.0000 0.64330  0.43740  0.40880  Biso   1.000  C
  H21      1.0000 0.25580  0.61080  0.65580  Biso   1.000  H
  H22      1.0000 0.74420  0.38920  0.34420  Biso   1.000  H
  C31      1.0000 0.49990  0.55740  0.59430  Biso   1.000  C
  C32      1.0000 0.50010  0.44260  0.40570  Biso   1.000  C
  H23      1.0000 0.49520  0.59670  0.66500  Biso   1.000  H
  H24      1.0000 0.50480  0.40330  0.33500  Biso   1.000  H
  Cu1      1.0000 0.13042  0.50795  0.49840  Biso   1.000  Cu
  Cu2      1.0000 0.86958  0.49205  0.50160  Biso   1.000  Cu
  N1       1.0000 0.35590  0.50060  0.49800  Biso   1.000  N
  N2       1.0000 0.64410  0.49940  0.50200  Biso   1.000  N
  O1       1.0000 0.98740  0.69480  0.55960  Biso   1.000  O
  O2       1.0000 0.01260  0.30520  0.44040  Biso   1.000  O
  O3       1.0000 0.76330  0.68160  0.56290  Biso   1.000  O
  O4       1.0000 0.23670  0.31840  0.43710  Biso   1.000  O
  O5       1.0000 0.15080  0.60590  0.30430  Biso   1.000  O
  O6       1.0000 0.84920  0.39410  0.69570  Biso   1.000  O
  O7       1.0000 0.92710  0.59210  0.30760  Biso   1.000  O
  O8       1.0000 0.07290  0.40790  0.69240  Biso   1.000  O
  C33      1.0000 0.64400  0.70600  0.95800  Biso   1.000  C
  C34      1.0000 0.35600  0.29400  0.04200  Biso   1.000  C
  H25      1.0000 0.57510  0.70120  0.91440  Biso   1.000  H
  H26      1.0000 0.42490  0.29880  0.08560  Biso   1.000  H
  H27      1.0000 0.75790  0.67810  0.89280  Biso   1.000  H
  H28      1.0000 0.24210  0.32190  0.10720  Biso   1.000  H
  C35      1.0000 0.59020  0.85500  0.97730  Biso   1.000  C
  C36      1.0000 0.40980  0.14500  0.02270  Biso   1.000  C
  H29      1.0000 0.47060  0.89520  0.01320  Biso   1.000  H
  H30      1.0000 0.52940  0.10480  0.98680  Biso   1.000  H
  H31      1.0000 0.62990  0.91390  0.88780  Biso   1.000  H
  H32      1.0000 0.37010  0.08610  0.11220  Biso   1.000  H
  H33      1.0000 0.63380  0.85640  0.04380  Biso   1.000  H
  H34      1.0000 0.36620  0.14360  0.95620  Biso   1.000  H
  O9       1.0000 0.63760  0.60370  0.08300  Biso   1.000  O
  O10      1.0000 0.36240  0.39630  0.91700  Biso   1.000  O
  H35      1.0000 0.59030  0.55030  0.08790  Biso   1.000  H
  H36      1.0000 0.40970  0.44970  0.91210  Biso   1.000  H
  C37      1.0000 0.55870  0.57880  0.01390  Biso   1.000  C
  C38      1.0000 0.44130  0.42120  0.98610  Biso   1.000  C
  H37      1.0000 0.62320  0.48530  0.05850  Biso   1.000  H
  H38      1.0000 0.37680  0.51470  0.94150  Biso   1.000  H
  H39      1.0000 0.45170  0.61840  0.08500  Biso   1.000  H
  H40      1.0000 0.54830  0.38160  0.91500  Biso   1.000  H
  C39      1.0000 0.64400  0.68000  0.96100  Biso   1.000  C
  C40      1.0000 0.35600  0.32000  0.03900  Biso   1.000  C
  H41      1.0000 0.75790  0.63320  0.90580  Biso   1.000  H
  H42      1.0000 0.24210  0.36680  0.09420  Biso   1.000  H
  H43      1.0000 0.64190  0.71090  0.03960  Biso   1.000  H
  H44      1.0000 0.35810  0.28910  0.96040  Biso   1.000  H
  H45      1.0000 0.59080  0.76600  0.90280  Biso   1.000  H
  H46      1.0000 0.40920  0.23400  0.09720  Biso   1.000  H
  O11      1.0000 0.53480  0.55520  0.90340  Biso   1.000  O
  O12      1.0000 0.46520  0.44480  0.09660  Biso   1.000  O
  H47      1.0000 0.62580  0.52060  0.84370  Biso   1.000  H
  H48      1.0000 0.37420  0.47940  0.15630  Biso   1.000  H
