data_image0
_cell_length_a       11.285
_cell_length_b       18.167
_cell_length_c       16.144
_cell_angle_alpha    90
_cell_angle_beta     106.753
_cell_angle_gamma    90

_symmetry_space_group_name_H-M    "P 1"
_symmetry_int_tables_number       1

loop_
  _symmetry_equiv_pos_as_xyz
  'x, y, z'

loop_
  _atom_site_label
  _atom_site_occupancy
  _atom_site_fract_x
  _atom_site_fract_y
  _atom_site_fract_z
  _atom_site_thermal_displace_type
  _atom_site_B_iso_or_equiv
  _atom_site_type_symbol
  Cu1      1.0000 0.94356  0.04859  0.75194  Biso   1.000  Cu
  Cu2      1.0000 0.55644  0.54859  0.74806  Biso   1.000  Cu
  Cu3      1.0000 0.05644  0.95141  0.24806  Biso   1.000  Cu
  Cu4      1.0000 0.44356  0.45141  0.25194  Biso   1.000  Cu
  Cu5      1.0000 0.75684  0.77098  0.18708  Biso   1.000  Cu
  Cu6      1.0000 0.74316  0.27098  0.31292  Biso   1.000  Cu
  Cu7      1.0000 0.24316  0.22902  0.81292  Biso   1.000  Cu
  Cu8      1.0000 0.25684  0.72902  0.68708  Biso   1.000  Cu
  N1       1.0000 0.07650  0.98781  0.82835  Biso   1.000  N
  N2       1.0000 0.42350  0.48781  0.67165  Biso   1.000  N
  N3       1.0000 0.92350  0.01219  0.17165  Biso   1.000  N
  N4       1.0000 0.57650  0.51219  0.32835  Biso   1.000  N
  N5       1.0000 0.60950  0.82418  0.10778  Biso   1.000  N
  N6       1.0000 0.89050  0.32418  0.39222  Biso   1.000  N
  N7       1.0000 0.39050  0.17582  0.89222  Biso   1.000  N
  N8       1.0000 0.10950  0.67582  0.60778  Biso   1.000  N
  N9       1.0000 0.66930  0.76431  0.27934  Biso   1.000  N
  N10      1.0000 0.83070  0.26431  0.22066  Biso   1.000  N
  N11      1.0000 0.33070  0.23569  0.72066  Biso   1.000  N
  N12      1.0000 0.16930  0.73569  0.77934  Biso   1.000  N
  N13      1.0000 0.35200  0.72915  0.59736  Biso   1.000  N
  N14      1.0000 0.14800  0.22915  0.90264  Biso   1.000  N
  N15      1.0000 0.64800  0.27085  0.40264  Biso   1.000  N
  N16      1.0000 0.85200  0.77085  0.09736  Biso   1.000  N
  N17      1.0000 0.82700  0.12225  0.67450  Biso   1.000  N
  N18      1.0000 0.67300  0.62225  0.82550  Biso   1.000  N
  N19      1.0000 0.17300  0.87775  0.32550  Biso   1.000  N
  N20      1.0000 0.32700  0.37775  0.17450  Biso   1.000  N
  O1       1.0000 0.92710  0.99483  0.64509  Biso   1.000  O
  O2       1.0000 0.57290  0.49483  0.85491  Biso   1.000  O
  O3       1.0000 0.07290  0.00517  0.35491  Biso   1.000  O
  O4       1.0000 0.42710  0.50517  0.14509  Biso   1.000  O
  O5       1.0000 0.81160  0.98784  0.50891  Biso   1.000  O
  O6       1.0000 0.68840  0.48784  0.99109  Biso   1.000  O
  O7       1.0000 0.18840  0.01216  0.49109  Biso   1.000  O
  O8       1.0000 0.31160  0.51216  0.00891  Biso   1.000  O
  O9       1.0000 0.90320  0.09961  0.84609  Biso   1.000  O
  O10      1.0000 0.59680  0.59961  0.65391  Biso   1.000  O
  O11      1.0000 0.09680  0.90039  0.15391  Biso   1.000  O
  O12      1.0000 0.40320  0.40039  0.34609  Biso   1.000  O
  O13      1.0000 0.76820  0.17761  0.87381  Biso   1.000  O
  O14      1.0000 0.73180  0.67761  0.62619  Biso   1.000  O
  O15      1.0000 0.23180  0.82239  0.12619  Biso   1.000  O
  O16      1.0000 0.26820  0.32239  0.37381  Biso   1.000  O
  O17      1.0000 0.08818  0.13001  0.74343  Biso   1.000  O
  O18      1.0000 0.41182  0.63001  0.75657  Biso   1.000  O
  O19      1.0000 0.91182  0.86999  0.25657  Biso   1.000  O
  O20      1.0000 0.58818  0.36999  0.24343  Biso   1.000  O
  O21      1.0000 0.08213  0.25019  0.72265  Biso   1.000  O
  O22      1.0000 0.41787  0.75019  0.77735  Biso   1.000  O
  O23      1.0000 0.91787  0.74981  0.27735  Biso   1.000  O
  O24      1.0000 0.58213  0.24981  0.22265  Biso   1.000  O
  O25      1.0000 0.69300  0.65341  0.13479  Biso   1.000  O
  O26      1.0000 0.80700  0.15341  0.36521  Biso   1.000  O
  O27      1.0000 0.30700  0.34659  0.86521  Biso   1.000  O
  O28      1.0000 0.19300  0.84659  0.63479  Biso   1.000  O
  O29      1.0000 0.60410  0.91420  0.83020  Biso   1.000  O
  O30      1.0000 0.89590  0.41420  0.66980  Biso   1.000  O
  O31      1.0000 0.39590  0.08580  0.16980  Biso   1.000  O
  O32      1.0000 0.10410  0.58580  0.33020  Biso   1.000  O
  O33      1.0000 0.60310  0.96570  0.71020  Biso   1.000  O
  O34      1.0000 0.89690  0.46570  0.78980  Biso   1.000  O
  O35      1.0000 0.39690  0.03430  0.28980  Biso   1.000  O
  O36      1.0000 0.10310  0.53430  0.21020  Biso   1.000  O
  O37      1.0000 0.78130  0.95160  0.80430  Biso   1.000  O
  O38      1.0000 0.71870  0.45160  0.69570  Biso   1.000  O
  O39      1.0000 0.21870  0.04840  0.19570  Biso   1.000  O
  O40      1.0000 0.28130  0.54840  0.30430  Biso   1.000  O
  O41      1.0000 0.68300  0.85010  0.75290  Biso   1.000  O
  O42      1.0000 0.81700  0.35010  0.74710  Biso   1.000  O
  O43      1.0000 0.31700  0.14990  0.24710  Biso   1.000  O
  O44      1.0000 0.18300  0.64990  0.25290  Biso   1.000  O
  O45      1.0000 0.67020  0.02250  0.34420  Biso   1.000  O
  O46      1.0000 0.82980  0.52250  0.15580  Biso   1.000  O
  O47      1.0000 0.32980  0.97750  0.65580  Biso   1.000  O
  O48      1.0000 0.17020  0.47750  0.84420  Biso   1.000  O
  O49      1.0000 0.67320  0.31344  0.88380  Biso   1.000  O
  O50      1.0000 0.82680  0.81344  0.61620  Biso   1.000  O
  O51      1.0000 0.32680  0.68656  0.11620  Biso   1.000  O
  O52      1.0000 0.17320  0.18656  0.38380  Biso   1.000  O
  O53      1.0000 0.53250  0.36541  0.98735  Biso   1.000  O
  O54      1.0000 0.96750  0.86541  0.51265  Biso   1.000  O
  O55      1.0000 0.46750  0.63459  0.01265  Biso   1.000  O
  O56      1.0000 0.03250  0.13459  0.48735  Biso   1.000  O
  C1       1.0000 0.16990  0.96614  0.79880  Biso   1.000  C
  C2       1.0000 0.33010  0.46614  0.70120  Biso   1.000  C
  C3       1.0000 0.83010  0.03386  0.20120  Biso   1.000  C
  C4       1.0000 0.66990  0.53386  0.29880  Biso   1.000  C
  H1       1.0000 0.16320  0.97270  0.74050  Biso   1.000  H
  H2       1.0000 0.33680  0.47270  0.75950  Biso   1.000  H
  H3       1.0000 0.83680  0.02730  0.25950  Biso   1.000  H
  H4       1.0000 0.66320  0.52730  0.24050  Biso   1.000  H
  C5       1.0000 0.27590  0.93441  0.85148  Biso   1.000  C
  C6       1.0000 0.22410  0.43441  0.64852  Biso   1.000  C
  C7       1.0000 0.72410  0.06559  0.14852  Biso   1.000  C
  C8       1.0000 0.77590  0.56559  0.35148  Biso   1.000  C
  H5       1.0000 0.33870  0.91910  0.82860  Biso   1.000  H
  H6       1.0000 0.16130  0.41910  0.67140  Biso   1.000  H
  H7       1.0000 0.66130  0.08090  0.17140  Biso   1.000  H
  H8       1.0000 0.83870  0.58090  0.32860  Biso   1.000  H
  C9       1.0000 0.28830  0.92543  0.93913  Biso   1.000  C
  C10      1.0000 0.21170  0.42543  0.56087  Biso   1.000  C
  C11      1.0000 0.71170  0.07457  0.06087  Biso   1.000  C
  C12      1.0000 0.78830  0.57457  0.43913  Biso   1.000  C
  C13      1.0000 0.19060  0.94756  0.96913  Biso   1.000  C
  C14      1.0000 0.30940  0.44756  0.53087  Biso   1.000  C
  C15      1.0000 0.80940  0.05244  0.03087  Biso   1.000  C
  C16      1.0000 0.69060  0.55244  0.46913  Biso   1.000  C
  H9       1.0000 0.19490  0.94190  0.02720  Biso   1.000  H
  H10      1.0000 0.30510  0.44190  0.47280  Biso   1.000  H
  H11      1.0000 0.80510  0.05810  0.97280  Biso   1.000  H
  H12      1.0000 0.69490  0.55810  0.52720  Biso   1.000  H
  C17      1.0000 0.08760  0.97795  0.91226  Biso   1.000  C
  C18      1.0000 0.41240  0.47795  0.58774  Biso   1.000  C
  C19      1.0000 0.91240  0.02205  0.08774  Biso   1.000  C
  C20      1.0000 0.58760  0.52205  0.41226  Biso   1.000  C
  H13      1.0000 0.02240  0.99230  0.93310  Biso   1.000  H
  H14      1.0000 0.47760  0.49230  0.56690  Biso   1.000  H
  H15      1.0000 0.97760  0.00770  0.06690  Biso   1.000  H
  H16      1.0000 0.52240  0.50770  0.43310  Biso   1.000  H
  C21      1.0000 0.55770  0.88300  0.13284  Biso   1.000  C
  C22      1.0000 0.94230  0.38300  0.36716  Biso   1.000  C
  C23      1.0000 0.44230  0.11700  0.86716  Biso   1.000  C
  C24      1.0000 0.05770  0.61700  0.63284  Biso   1.000  C
  H17      1.0000 0.59300  0.90150  0.18820  Biso   1.000  H
  H18      1.0000 0.90700  0.40150  0.31180  Biso   1.000  H
  H19      1.0000 0.40700  0.09850  0.81180  Biso   1.000  H
  H20      1.0000 0.09300  0.59850  0.68820  Biso   1.000  H
  C25      1.0000 0.45450  0.91757  0.08064  Biso   1.000  C
  C26      1.0000 0.04550  0.41757  0.41936  Biso   1.000  C
  C27      1.0000 0.54550  0.08243  0.91936  Biso   1.000  C
  C28      1.0000 0.95450  0.58243  0.58064  Biso   1.000  C
  H21      1.0000 0.42070  0.95800  0.10100  Biso   1.000  H
  H22      1.0000 0.07930  0.45800  0.39900  Biso   1.000  H
  H23      1.0000 0.57930  0.04200  0.89900  Biso   1.000  H
  H24      1.0000 0.92070  0.54200  0.60100  Biso   1.000  H
  C29      1.0000 0.40130  0.89164  0.99746  Biso   1.000  C
  C30      1.0000 0.09870  0.39164  0.50254  Biso   1.000  C
  C31      1.0000 0.59870  0.10836  0.00254  Biso   1.000  C
  C32      1.0000 0.90130  0.60836  0.49746  Biso   1.000  C
  C33      1.0000 0.45680  0.83170  0.97071  Biso   1.000  C
  C34      1.0000 0.04320  0.33170  0.52929  Biso   1.000  C
  C35      1.0000 0.54320  0.16830  0.02929  Biso   1.000  C
  C36      1.0000 0.95680  0.66830  0.47071  Biso   1.000  C
  H25      1.0000 0.42550  0.81340  0.91490  Biso   1.000  H
  H26      1.0000 0.07450  0.31340  0.58510  Biso   1.000  H
  H27      1.0000 0.57450  0.18660  0.08510  Biso   1.000  H
  H28      1.0000 0.92550  0.68660  0.41490  Biso   1.000  H
  C37      1.0000 0.55840  0.79958  0.02718  Biso   1.000  C
  C38      1.0000 0.94160  0.29958  0.47282  Biso   1.000  C
  C39      1.0000 0.44160  0.20042  0.97282  Biso   1.000  C
  C40      1.0000 0.05840  0.70042  0.52718  Biso   1.000  C
  H29      1.0000 0.59340  0.75880  0.00860  Biso   1.000  H
  H30      1.0000 0.90660  0.25880  0.49140  Biso   1.000  H
  H31      1.0000 0.40660  0.24120  0.99140  Biso   1.000  H
  H32      1.0000 0.09340  0.74120  0.50860  Biso   1.000  H
  C41      1.0000 0.70520  0.80260  0.35293  Biso   1.000  C
  C42      1.0000 0.79480  0.30260  0.14707  Biso   1.000  C
  C43      1.0000 0.29480  0.19740  0.64707  Biso   1.000  C
  C44      1.0000 0.20520  0.69740  0.85293  Biso   1.000  C
  H33      1.0000 0.77190  0.83470  0.36120  Biso   1.000  H
  H34      1.0000 0.72810  0.33470  0.13880  Biso   1.000  H
  H35      1.0000 0.22810  0.16530  0.63880  Biso   1.000  H
  H36      1.0000 0.27190  0.66530  0.86120  Biso   1.000  H
  C45      1.0000 0.64760  0.79670  0.41723  Biso   1.000  C
  C46      1.0000 0.85240  0.29670  0.08277  Biso   1.000  C
  C47      1.0000 0.35240  0.20330  0.58277  Biso   1.000  C
  C48      1.0000 0.14760  0.70330  0.91723  Biso   1.000  C
  H37      1.0000 0.67580  0.82430  0.46770  Biso   1.000  H
  H38      1.0000 0.82420  0.32430  0.03230  Biso   1.000  H
  H39      1.0000 0.32420  0.17570  0.53230  Biso   1.000  H
  H40      1.0000 0.17580  0.67570  0.96770  Biso   1.000  H
  C49      1.0000 0.54740  0.74956  0.40659  Biso   1.000  C
  C50      1.0000 0.95260  0.24956  0.09341  Biso   1.000  C
  C51      1.0000 0.45260  0.25044  0.59341  Biso   1.000  C
  C52      1.0000 0.04740  0.75044  0.90659  Biso   1.000  C
  C53      1.0000 0.51060  0.71037  0.32987  Biso   1.000  C
  C54      1.0000 0.98940  0.21037  0.17013  Biso   1.000  C
  C55      1.0000 0.48940  0.28963  0.67013  Biso   1.000  C
  C56      1.0000 0.01060  0.78963  0.82987  Biso   1.000  C
  H41      1.0000 0.44390  0.67820  0.31960  Biso   1.000  H
  H42      1.0000 0.05610  0.17820  0.18040  Biso   1.000  H
  H43      1.0000 0.55610  0.32180  0.68040  Biso   1.000  H
  H44      1.0000 0.94390  0.82180  0.81960  Biso   1.000  H
  C57      1.0000 0.57330  0.71927  0.26867  Biso   1.000  C
  C58      1.0000 0.92670  0.21927  0.23133  Biso   1.000  C
  C59      1.0000 0.42670  0.28073  0.73133  Biso   1.000  C
  C60      1.0000 0.07330  0.78073  0.76867  Biso   1.000  C
  H45      1.0000 0.54710  0.69250  0.21750  Biso   1.000  H
  H46      1.0000 0.95290  0.19250  0.28250  Biso   1.000  H
  H47      1.0000 0.45290  0.30750  0.78250  Biso   1.000  H
  H48      1.0000 0.04710  0.80750  0.71750  Biso   1.000  H
  C61      1.0000 0.42780  0.78623  0.59814  Biso   1.000  C
  C62      1.0000 0.07220  0.28623  0.90186  Biso   1.000  C
  C63      1.0000 0.57220  0.21377  0.40186  Biso   1.000  C
  C64      1.0000 0.92780  0.71377  0.09814  Biso   1.000  C
  H49      1.0000 0.43670  0.82200  0.64070  Biso   1.000  H
  H50      1.0000 0.06330  0.32200  0.85930  Biso   1.000  H
  H51      1.0000 0.56330  0.17800  0.35930  Biso   1.000  H
  H52      1.0000 0.93670  0.67800  0.14070  Biso   1.000  H
  C65      1.0000 0.49330  0.79405  0.53827  Biso   1.000  C
  C66      1.0000 0.00670  0.29405  0.96173  Biso   1.000  C
  C67      1.0000 0.50670  0.20595  0.46173  Biso   1.000  C
  C68      1.0000 0.99330  0.70595  0.03827  Biso   1.000  C
  H53      1.0000 0.54510  0.83440  0.54120  Biso   1.000  H
  H54      1.0000 0.95490  0.33440  0.95880  Biso   1.000  H
  H55      1.0000 0.45490  0.16560  0.45880  Biso   1.000  H
  H56      1.0000 0.04510  0.66560  0.04120  Biso   1.000  H
  C69      1.0000 0.48140  0.74157  0.47376  Biso   1.000  C
  C70      1.0000 0.01860  0.24157  0.02624  Biso   1.000  C
  C71      1.0000 0.51860  0.25843  0.52624  Biso   1.000  C
  C72      1.0000 0.98140  0.75843  0.97376  Biso   1.000  C
  C73      1.0000 0.40560  0.68189  0.47468  Biso   1.000  C
  C74      1.0000 0.09440  0.18189  0.02532  Biso   1.000  C
  C75      1.0000 0.59440  0.31811  0.52532  Biso   1.000  C
  C76      1.0000 0.90560  0.81811  0.97468  Biso   1.000  C
  H57      1.0000 0.39650  0.64490  0.43350  Biso   1.000  H
  H58      1.0000 0.10350  0.14490  0.06650  Biso   1.000  H
  H59      1.0000 0.60350  0.35510  0.56650  Biso   1.000  H
  H60      1.0000 0.89650  0.85510  0.93350  Biso   1.000  H
  C77      1.0000 0.34320  0.67734  0.53689  Biso   1.000  C
  C78      1.0000 0.15680  0.17734  0.96311  Biso   1.000  C
  C79      1.0000 0.65680  0.32266  0.46311  Biso   1.000  C
  C80      1.0000 0.84320  0.82266  0.03689  Biso   1.000  C
  H61      1.0000 0.29310  0.63660  0.53660  Biso   1.000  H
  H62      1.0000 0.20690  0.13660  0.96340  Biso   1.000  H
  H63      1.0000 0.70690  0.36340  0.46340  Biso   1.000  H
  H64      1.0000 0.79310  0.86340  0.03660  Biso   1.000  H
  C81      1.0000 0.75880  0.07876  0.59740  Biso   1.000  C
  C82      1.0000 0.74120  0.57876  0.90260  Biso   1.000  C
  C83      1.0000 0.24120  0.92124  0.40260  Biso   1.000  C
  C84      1.0000 0.25880  0.42124  0.09740  Biso   1.000  C
  H65      1.0000 0.73530  0.11060  0.54710  Biso   1.000  H
  H66      1.0000 0.76470  0.61060  0.95290  Biso   1.000  H
  H67      1.0000 0.26470  0.88940  0.45290  Biso   1.000  H
  H68      1.0000 0.23530  0.38940  0.04710  Biso   1.000  H
  H69      1.0000 0.68380  0.05880  0.60660  Biso   1.000  H
  H70      1.0000 0.81620  0.55880  0.89340  Biso   1.000  H
  H71      1.0000 0.31620  0.94120  0.39340  Biso   1.000  H
  H72      1.0000 0.18380  0.44120  0.10660  Biso   1.000  H
  C85      1.0000 0.83890  0.01633  0.58140  Biso   1.000  C
  C86      1.0000 0.66110  0.51633  0.91860  Biso   1.000  C
  C87      1.0000 0.16110  0.98367  0.41860  Biso   1.000  C
  C88      1.0000 0.33890  0.48367  0.08140  Biso   1.000  C
  C89      1.0000 0.75000  0.15130  0.72660  Biso   1.000  C
  C90      1.0000 0.75000  0.65130  0.77340  Biso   1.000  C
  C91      1.0000 0.25000  0.84870  0.27340  Biso   1.000  C
  C92      1.0000 0.25000  0.34870  0.22660  Biso   1.000  C
  H73      1.0000 0.67160  0.12540  0.71140  Biso   1.000  H
  H74      1.0000 0.82840  0.62540  0.78860  Biso   1.000  H
  H75      1.0000 0.32840  0.87460  0.28860  Biso   1.000  H
  H76      1.0000 0.17160  0.37460  0.21140  Biso   1.000  H
  H77      1.0000 0.73300  0.20300  0.71290  Biso   1.000  H
  H78      1.0000 0.76700  0.70300  0.78710  Biso   1.000  H
  H79      1.0000 0.26700  0.79700  0.28710  Biso   1.000  H
  H80      1.0000 0.23300  0.29700  0.21290  Biso   1.000  H
  C93      1.0000 0.81160  0.14348  0.82330  Biso   1.000  C
  C94      1.0000 0.68840  0.64348  0.67670  Biso   1.000  C
  C95      1.0000 0.18840  0.85652  0.17670  Biso   1.000  C
  C96      1.0000 0.31160  0.35652  0.32330  Biso   1.000  C
  C97      1.0000 0.90330  0.18052  0.65010  Biso   1.000  C
  C98      1.0000 0.59670  0.68052  0.84990  Biso   1.000  C
  C99      1.0000 0.09670  0.81948  0.34990  Biso   1.000  C
  C100     1.0000 0.40330  0.31948  0.15010  Biso   1.000  C
  H81      1.0000 0.86170  0.22750  0.64850  Biso   1.000  H
  H82      1.0000 0.63830  0.72750  0.85150  Biso   1.000  H
  H83      1.0000 0.13830  0.77250  0.35150  Biso   1.000  H
  H84      1.0000 0.36170  0.27250  0.14850  Biso   1.000  H
  H85      1.0000 0.90840  0.17040  0.59230  Biso   1.000  H
  H86      1.0000 0.59160  0.67040  0.90770  Biso   1.000  H
  H87      1.0000 0.09160  0.82960  0.40770  Biso   1.000  H
  H88      1.0000 0.40840  0.32960  0.09230  Biso   1.000  H
  C101     1.0000 0.03300  0.18688  0.71060  Biso   1.000  C
  C102     1.0000 0.46700  0.68688  0.78940  Biso   1.000  C
  C103     1.0000 0.96700  0.81312  0.28940  Biso   1.000  C
  C104     1.0000 0.53300  0.31312  0.21060  Biso   1.000  C
  Cl1      1.0000 0.66964  0.92322  0.77195  Biso   1.000  Cl
  Cl2      1.0000 0.83036  0.42322  0.72805  Biso   1.000  Cl
  Cl3      1.0000 0.33036  0.07678  0.22805  Biso   1.000  Cl
  Cl4      1.0000 0.16964  0.57678  0.27195  Biso   1.000  Cl
  H89      1.0000 0.73800  0.61660  0.14400  Biso   1.000  H
  H90      1.0000 0.76200  0.11660  0.35600  Biso   1.000  H
  H91      1.0000 0.26200  0.38340  0.85600  Biso   1.000  H
  H92      1.0000 0.23800  0.88340  0.64400  Biso   1.000  H
  H93      1.0000 0.70100  0.27310  0.87600  Biso   1.000  H
  H94      1.0000 0.79900  0.77310  0.62400  Biso   1.000  H
  H95      1.0000 0.29900  0.72690  0.12400  Biso   1.000  H
  H96      1.0000 0.20100  0.22690  0.37600  Biso   1.000  H
  H97      1.0000 0.62800  0.64300  0.09500  Biso   1.000  H
  H98      1.0000 0.87200  0.14300  0.40500  Biso   1.000  H
  H99      1.0000 0.37200  0.35700  0.90500  Biso   1.000  H
  H100     1.0000 0.12800  0.85700  0.59500  Biso   1.000  H
  H101     1.0000 0.56700  0.34100  0.95900  Biso   1.000  H
  H102     1.0000 0.93300  0.84100  0.54100  Biso   1.000  H
  H103     1.0000 0.43300  0.65900  0.04100  Biso   1.000  H
  H104     1.0000 0.06700  0.15900  0.45900  Biso   1.000  H
  H105     1.0000 0.68400  0.02700  0.39840  Biso   1.000  H
  H106     1.0000 0.81600  0.52700  0.10160  Biso   1.000  H
  H107     1.0000 0.31600  0.97300  0.60160  Biso   1.000  H
  H108     1.0000 0.18400  0.47300  0.89840  Biso   1.000  H
  H109     1.0000 0.59400  0.02300  0.33700  Biso   1.000  H
  H110     1.0000 0.90600  0.52300  0.16300  Biso   1.000  H
  H111     1.0000 0.40600  0.97700  0.66300  Biso   1.000  H
  H112     1.0000 0.09400  0.47700  0.83700  Biso   1.000  H
  H113     1.0000 0.56300  0.40690  0.99400  Biso   1.000  H
  H114     1.0000 0.93700  0.90690  0.50600  Biso   1.000  H
  H115     1.0000 0.43700  0.59310  0.00600  Biso   1.000  H
  H116     1.0000 0.06300  0.09310  0.49400  Biso   1.000  H
  H117     1.0000 0.69200  0.34200  0.84900  Biso   1.000  H
  H118     1.0000 0.80800  0.84200  0.65100  Biso   1.000  H
  H119     1.0000 0.30800  0.65800  0.15100  Biso   1.000  H
  H120     1.0000 0.19200  0.15800  0.34900  Biso   1.000  H
