data_image0
_cell_length_a       8.5893
_cell_length_b       15.7662
_cell_length_c       17.5041
_cell_angle_alpha    90
_cell_angle_beta     90
_cell_angle_gamma    90

_symmetry_space_group_name_H-M    "P 1"
_symmetry_int_tables_number       1

loop_
  _symmetry_equiv_pos_as_xyz
  'x, y, z'

loop_
  _atom_site_label
  _atom_site_occupancy
  _atom_site_fract_x
  _atom_site_fract_y
  _atom_site_fract_z
  _atom_site_thermal_displace_type
  _atom_site_B_iso_or_equiv
  _atom_site_type_symbol
  Cu1      1.0000 0.13861  0.10132  0.12652  Biso   1.000  Cu
  Cu2      1.0000 0.36139  0.89868  0.62652  Biso   1.000  Cu
  Cu3      1.0000 0.63861  0.39868  0.87348  Biso   1.000  Cu
  Cu4      1.0000 0.86139  0.60132  0.37348  Biso   1.000  Cu
  O1       1.0000 0.04348  0.11427  0.23053  Biso   1.000  O
  O2       1.0000 0.45652  0.88573  0.73053  Biso   1.000  O
  O3       1.0000 0.54348  0.38573  0.76947  Biso   1.000  O
  O4       1.0000 0.95652  0.61427  0.26947  Biso   1.000  O
  O5       1.0000 0.99689  0.23977  0.18493  Biso   1.000  O
  O6       1.0000 0.50311  0.76023  0.68493  Biso   1.000  O
  O7       1.0000 0.49689  0.26023  0.81507  Biso   1.000  O
  O8       1.0000 0.00311  0.73977  0.31507  Biso   1.000  O
  O9       1.0000 0.92531  0.20781  0.30053  Biso   1.000  O
  O10      1.0000 0.57469  0.79219  0.80053  Biso   1.000  O
  O11      1.0000 0.42531  0.29219  0.69947  Biso   1.000  O
  O12      1.0000 0.07469  0.70781  0.19947  Biso   1.000  O
  O13      1.0000 0.25116  0.07265  0.03039  Biso   1.000  O
  O14      1.0000 0.24884  0.92735  0.53039  Biso   1.000  O
  O15      1.0000 0.75116  0.42735  0.96961  Biso   1.000  O
  O16      1.0000 0.74884  0.57265  0.46961  Biso   1.000  O
  O17      1.0000 0.34618  0.14167  0.93388  Biso   1.000  O
  O18      1.0000 0.15382  0.85833  0.43388  Biso   1.000  O
  O19      1.0000 0.84618  0.35833  0.06612  Biso   1.000  O
  O20      1.0000 0.65382  0.64167  0.56612  Biso   1.000  O
  O21      1.0000 0.16754  0.19939  0.00417  Biso   1.000  O
  O22      1.0000 0.33246  0.80061  0.50417  Biso   1.000  O
  O23      1.0000 0.66754  0.30061  0.99583  Biso   1.000  O
  O24      1.0000 0.83246  0.69939  0.49583  Biso   1.000  O
  N1       1.0000 0.33125  0.16404  0.16139  Biso   1.000  N
  N2       1.0000 0.16875  0.83596  0.66139  Biso   1.000  N
  N3       1.0000 0.83125  0.33596  0.83861  Biso   1.000  N
  N4       1.0000 0.66875  0.66404  0.33861  Biso   1.000  N
  N5       1.0000 0.92948  0.06639  0.08473  Biso   1.000  N
  N6       1.0000 0.57052  0.93361  0.58473  Biso   1.000  N
  N7       1.0000 0.42948  0.43361  0.91527  Biso   1.000  N
  N8       1.0000 0.07052  0.56639  0.41527  Biso   1.000  N
  N9       1.0000 0.98702  0.18924  0.23974  Biso   1.000  N
  N10      1.0000 0.51298  0.81076  0.73974  Biso   1.000  N
  N11      1.0000 0.48702  0.31076  0.76026  Biso   1.000  N
  N12      1.0000 0.01298  0.68924  0.26026  Biso   1.000  N
  N13      1.0000 0.25572  0.13959  0.98765  Biso   1.000  N
  N14      1.0000 0.24428  0.86041  0.48765  Biso   1.000  N
  N15      1.0000 0.75572  0.36041  0.01235  Biso   1.000  N
  N16      1.0000 0.74428  0.63959  0.51235  Biso   1.000  N
  C1       1.0000 0.44750  0.12233  0.19655  Biso   1.000  C
  C2       1.0000 0.05250  0.87767  0.69655  Biso   1.000  C
  C3       1.0000 0.94750  0.37767  0.80345  Biso   1.000  C
  C4       1.0000 0.55250  0.62233  0.30345  Biso   1.000  C
  H1       1.0000 0.43450  0.06380  0.20760  Biso   1.000  H
  H2       1.0000 0.06550  0.93620  0.70760  Biso   1.000  H
  H3       1.0000 0.93450  0.43620  0.79240  Biso   1.000  H
  H4       1.0000 0.56550  0.56380  0.29240  Biso   1.000  H
  C5       1.0000 0.58470  0.16146  0.21708  Biso   1.000  C
  C6       1.0000 0.91530  0.83854  0.71708  Biso   1.000  C
  C7       1.0000 0.08470  0.33854  0.78292  Biso   1.000  C
  C8       1.0000 0.41530  0.66146  0.28292  Biso   1.000  C
  H5       1.0000 0.66480  0.13020  0.24170  Biso   1.000  H
  H6       1.0000 0.83520  0.86980  0.74170  Biso   1.000  H
  H7       1.0000 0.16480  0.36980  0.75830  Biso   1.000  H
  H8       1.0000 0.33520  0.63020  0.25830  Biso   1.000  H
  C9       1.0000 0.60444  0.24711  0.20131  Biso   1.000  C
  C10      1.0000 0.89556  0.75289  0.70131  Biso   1.000  C
  C11      1.0000 0.10444  0.25289  0.79869  Biso   1.000  C
  C12      1.0000 0.39556  0.74711  0.29869  Biso   1.000  C
  H9       1.0000 0.69850  0.27510  0.21470  Biso   1.000  H
  H10      1.0000 0.80150  0.72490  0.71470  Biso   1.000  H
  H11      1.0000 0.19850  0.22490  0.78530  Biso   1.000  H
  H12      1.0000 0.30150  0.77510  0.28530  Biso   1.000  H
  C13      1.0000 0.48490  0.29133  0.16572  Biso   1.000  C
  C14      1.0000 0.01510  0.70867  0.66572  Biso   1.000  C
  C15      1.0000 0.98490  0.20867  0.83428  Biso   1.000  C
  C16      1.0000 0.51510  0.79133  0.33428  Biso   1.000  C
  C17      1.0000 0.34920  0.24716  0.14687  Biso   1.000  C
  C18      1.0000 0.15080  0.75284  0.64687  Biso   1.000  C
  C19      1.0000 0.84920  0.25284  0.85313  Biso   1.000  C
  C20      1.0000 0.65080  0.74716  0.35313  Biso   1.000  C
  H13      1.0000 0.26650  0.27700  0.12290  Biso   1.000  H
  H14      1.0000 0.23350  0.72300  0.62290  Biso   1.000  H
  H15      1.0000 0.76650  0.22300  0.87710  Biso   1.000  H
  H16      1.0000 0.73350  0.77700  0.37710  Biso   1.000  H
  C21      1.0000 0.50060  0.38005  0.14762  Biso   1.000  C
  C22      1.0000 0.99940  0.61995  0.64762  Biso   1.000  C
  C23      1.0000 0.00060  0.11995  0.85238  Biso   1.000  C
  C24      1.0000 0.49940  0.88005  0.35238  Biso   1.000  C
  C25      1.0000 0.52050  0.45290  0.13287  Biso   1.000  C
  C26      1.0000 0.97950  0.54710  0.63287  Biso   1.000  C
  C27      1.0000 0.02050  0.04710  0.86713  Biso   1.000  C
  C28      1.0000 0.47950  0.95290  0.36713  Biso   1.000  C
  C29      1.0000 0.55310  0.54060  0.11592  Biso   1.000  C
  C30      1.0000 0.94690  0.45940  0.61592  Biso   1.000  C
  C31      1.0000 0.05310  0.95940  0.88408  Biso   1.000  C
  C32      1.0000 0.44690  0.04060  0.38408  Biso   1.000  C
  C33      1.0000 0.70640  0.56979  0.12125  Biso   1.000  C
  C34      1.0000 0.79360  0.43021  0.62125  Biso   1.000  C
  C35      1.0000 0.20640  0.93021  0.87875  Biso   1.000  C
  C36      1.0000 0.29360  0.06979  0.37875  Biso   1.000  C
  H17      1.0000 0.78780  0.53150  0.13380  Biso   1.000  H
  H18      1.0000 0.71220  0.46850  0.63380  Biso   1.000  H
  H19      1.0000 0.28780  0.96850  0.86620  Biso   1.000  H
  H20      1.0000 0.21220  0.03150  0.36620  Biso   1.000  H
  C37      1.0000 0.73940  0.65437  0.10830  Biso   1.000  C
  C38      1.0000 0.76060  0.34563  0.60830  Biso   1.000  C
  C39      1.0000 0.23940  0.84563  0.89170  Biso   1.000  C
  C40      1.0000 0.26060  0.15437  0.39170  Biso   1.000  C
  H21      1.0000 0.84350  0.67410  0.11260  Biso   1.000  H
  H22      1.0000 0.65650  0.32590  0.61260  Biso   1.000  H
  H23      1.0000 0.34350  0.82590  0.88740  Biso   1.000  H
  H24      1.0000 0.15650  0.17410  0.38740  Biso   1.000  H
  C41      1.0000 0.62100  0.71093  0.08904  Biso   1.000  C
  C42      1.0000 0.87900  0.28907  0.58904  Biso   1.000  C
  C43      1.0000 0.12100  0.78907  0.91096  Biso   1.000  C
  C44      1.0000 0.37900  0.21093  0.41096  Biso   1.000  C
  C45      1.0000 0.46770  0.68145  0.08233  Biso   1.000  C
  C46      1.0000 0.03230  0.31855  0.58233  Biso   1.000  C
  C47      1.0000 0.96770  0.81855  0.91767  Biso   1.000  C
  C48      1.0000 0.53230  0.18145  0.41767  Biso   1.000  C
  H25      1.0000 0.38640  0.71940  0.06870  Biso   1.000  H
  H26      1.0000 0.11360  0.28060  0.56870  Biso   1.000  H
  H27      1.0000 0.88640  0.78060  0.93130  Biso   1.000  H
  H28      1.0000 0.61360  0.21940  0.43130  Biso   1.000  H
  C49      1.0000 0.43520  0.59655  0.09577  Biso   1.000  C
  C50      1.0000 0.06480  0.40345  0.59577  Biso   1.000  C
  C51      1.0000 0.93520  0.90345  0.90423  Biso   1.000  C
  C52      1.0000 0.56480  0.09655  0.40423  Biso   1.000  C
  H29      1.0000 0.33130  0.57650  0.09110  Biso   1.000  H
  H30      1.0000 0.16870  0.42350  0.59110  Biso   1.000  H
  H31      1.0000 0.83130  0.92350  0.90890  Biso   1.000  H
  H32      1.0000 0.66870  0.07650  0.40890  Biso   1.000  H
  C53      1.0000 0.65650  0.79947  0.07812  Biso   1.000  C
  C54      1.0000 0.84350  0.20053  0.57812  Biso   1.000  C
  C55      1.0000 0.15650  0.70053  0.92188  Biso   1.000  C
  C56      1.0000 0.34350  0.29947  0.42188  Biso   1.000  C
  C57      1.0000 0.68950  0.87246  0.07189  Biso   1.000  C
  C58      1.0000 0.81050  0.12754  0.57189  Biso   1.000  C
  C59      1.0000 0.18950  0.62754  0.92811  Biso   1.000  C
  C60      1.0000 0.31050  0.37246  0.42811  Biso   1.000  C
  C61      1.0000 0.73280  0.96027  0.06487  Biso   1.000  C
  C62      1.0000 0.76720  0.03973  0.56487  Biso   1.000  C
  C63      1.0000 0.23280  0.53973  0.93513  Biso   1.000  C
  C64      1.0000 0.26720  0.46027  0.43513  Biso   1.000  C
  C65      1.0000 0.63550  0.02103  0.03235  Biso   1.000  C
  C66      1.0000 0.86450  0.97897  0.53235  Biso   1.000  C
  C67      1.0000 0.13550  0.47897  0.96765  Biso   1.000  C
  C68      1.0000 0.36450  0.52103  0.46765  Biso   1.000  C
  H33      1.0000 0.53510  0.00580  0.01420  Biso   1.000  H
  H34      1.0000 0.96490  0.99420  0.51420  Biso   1.000  H
  H35      1.0000 0.03510  0.49420  0.98580  Biso   1.000  H
  H36      1.0000 0.46490  0.50580  0.48580  Biso   1.000  H
  C69      1.0000 0.68697  0.10375  0.02692  Biso   1.000  C
  C70      1.0000 0.81303  0.89625  0.52692  Biso   1.000  C
  C71      1.0000 0.18697  0.39625  0.97308  Biso   1.000  C
  C72      1.0000 0.31303  0.60375  0.47308  Biso   1.000  C
  H37      1.0000 0.62220  0.14620  0.00510  Biso   1.000  H
  H38      1.0000 0.87780  0.85380  0.50510  Biso   1.000  H
  H39      1.0000 0.12220  0.35380  0.99490  Biso   1.000  H
  H40      1.0000 0.37780  0.64620  0.49490  Biso   1.000  H
  C73      1.0000 0.83382  0.12424  0.05351  Biso   1.000  C
  C74      1.0000 0.66618  0.87576  0.55351  Biso   1.000  C
  C75      1.0000 0.33382  0.37576  0.94649  Biso   1.000  C
  C76      1.0000 0.16618  0.62424  0.44649  Biso   1.000  C
  H41      1.0000 0.86840  0.18130  0.04960  Biso   1.000  H
  H42      1.0000 0.63160  0.81870  0.54960  Biso   1.000  H
  H43      1.0000 0.36840  0.31870  0.95040  Biso   1.000  H
  H44      1.0000 0.13160  0.68130  0.45040  Biso   1.000  H
  C77      1.0000 0.87900  0.98634  0.09031  Biso   1.000  C
  C78      1.0000 0.62100  0.01366  0.59031  Biso   1.000  C
  C79      1.0000 0.37900  0.51366  0.90969  Biso   1.000  C
  C80      1.0000 0.12100  0.48634  0.40969  Biso   1.000  C
  H45      1.0000 0.94600  0.94530  0.11270  Biso   1.000  H
  H46      1.0000 0.55400  0.05470  0.61270  Biso   1.000  H
  H47      1.0000 0.44600  0.55470  0.88730  Biso   1.000  H
  H48      1.0000 0.05400  0.44530  0.38730  Biso   1.000  H
  O25      1.0000 0.21225  0.97362  0.17045  Biso   1.000  O
  O26      1.0000 0.28775  0.02638  0.67045  Biso   1.000  O
  O27      1.0000 0.71225  0.52638  0.82955  Biso   1.000  O
  O28      1.0000 0.78775  0.47362  0.32955  Biso   1.000  O
  H49      1.0000 0.16000  0.95890  0.20370  Biso   1.000  H
  H50      1.0000 0.34000  0.04110  0.70370  Biso   1.000  H
  H51      1.0000 0.66000  0.54110  0.79630  Biso   1.000  H
  H52      1.0000 0.84000  0.45890  0.29630  Biso   1.000  H
  C81      1.0000 0.27340  0.90290  0.13008  Biso   1.000  C
  C82      1.0000 0.22660  0.09710  0.63008  Biso   1.000  C
  C83      1.0000 0.77340  0.59710  0.86992  Biso   1.000  C
  C84      1.0000 0.72660  0.40290  0.36992  Biso   1.000  C
  H53      1.0000 0.37890  0.89080  0.14830  Biso   1.000  H
  H54      1.0000 0.12110  0.10920  0.64830  Biso   1.000  H
  H55      1.0000 0.87890  0.60920  0.85170  Biso   1.000  H
  H56      1.0000 0.62110  0.39080  0.35170  Biso   1.000  H
  H57      1.0000 0.27650  0.91580  0.07530  Biso   1.000  H
  H58      1.0000 0.22350  0.08420  0.57530  Biso   1.000  H
  H59      1.0000 0.77650  0.58420  0.92470  Biso   1.000  H
  H60      1.0000 0.72350  0.41580  0.42470  Biso   1.000  H
  H61      1.0000 0.20680  0.85330  0.13880  Biso   1.000  H
  H62      1.0000 0.29320  0.14670  0.63880  Biso   1.000  H
  H63      1.0000 0.70680  0.64670  0.86120  Biso   1.000  H
  H64      1.0000 0.79320  0.35330  0.36120  Biso   1.000  H
  O29      1.0000 0.97530  0.41173  0.22511  Biso   1.000  O
  O30      1.0000 0.52470  0.58827  0.72511  Biso   1.000  O
  O31      1.0000 0.47530  0.08827  0.77489  Biso   1.000  O
  O32      1.0000 0.02470  0.91173  0.27489  Biso   1.000  O
  H65      1.0000 0.96400  0.36700  0.21680  Biso   1.000  H
  H66      1.0000 0.53600  0.63300  0.71680  Biso   1.000  H
  H67      1.0000 0.46400  0.13300  0.78320  Biso   1.000  H
  H68      1.0000 0.03600  0.86700  0.28320  Biso   1.000  H
  C85      1.0000 0.11470  0.44275  0.19771  Biso   1.000  C
  C86      1.0000 0.38530  0.55725  0.69771  Biso   1.000  C
  C87      1.0000 0.61470  0.05725  0.80229  Biso   1.000  C
  C88      1.0000 0.88530  0.94275  0.30229  Biso   1.000  C
  H69      1.0000 0.20100  0.41700  0.22600  Biso   1.000  H
  H70      1.0000 0.29900  0.58300  0.72600  Biso   1.000  H
  H71      1.0000 0.70100  0.08300  0.77400  Biso   1.000  H
  H72      1.0000 0.79900  0.91700  0.27400  Biso   1.000  H
  H73      1.0000 0.11770  0.50450  0.20430  Biso   1.000  H
  H74      1.0000 0.38230  0.49550  0.70430  Biso   1.000  H
  H75      1.0000 0.61770  0.99550  0.79570  Biso   1.000  H
  H76      1.0000 0.88230  0.00450  0.29570  Biso   1.000  H
  H77      1.0000 0.12460  0.42890  0.14340  Biso   1.000  H
  H78      1.0000 0.37540  0.57110  0.64340  Biso   1.000  H
  H79      1.0000 0.62460  0.07110  0.85660  Biso   1.000  H
  H80      1.0000 0.87540  0.92890  0.35660  Biso   1.000  H
