data_image0
_cell_length_a       18.8283
_cell_length_b       14.6711
_cell_length_c       13.4266
_cell_angle_alpha    90
_cell_angle_beta     93.447
_cell_angle_gamma    90

_symmetry_space_group_name_H-M    "P 1"
_symmetry_int_tables_number       1

loop_
  _symmetry_equiv_pos_as_xyz
  'x, y, z'

loop_
  _atom_site_label
  _atom_site_occupancy
  _atom_site_fract_x
  _atom_site_fract_y
  _atom_site_fract_z
  _atom_site_thermal_displace_type
  _atom_site_B_iso_or_equiv
  _atom_site_type_symbol
  C1       1.0000 0.33620  0.16650  0.31040  Biso   1.000  C
  C2       1.0000 0.83620  0.66650  0.31040  Biso   1.000  C
  C3       1.0000 0.66380  0.16650  0.18960  Biso   1.000  C
  C4       1.0000 0.16380  0.66650  0.18960  Biso   1.000  C
  C5       1.0000 0.66380  0.83350  0.68960  Biso   1.000  C
  C6       1.0000 0.16380  0.33350  0.68960  Biso   1.000  C
  C7       1.0000 0.33620  0.83350  0.81040  Biso   1.000  C
  C8       1.0000 0.83620  0.33350  0.81040  Biso   1.000  C
  H1       1.0000 0.29410  0.18590  0.26800  Biso   1.000  H
  H2       1.0000 0.79410  0.68590  0.26800  Biso   1.000  H
  H3       1.0000 0.70590  0.18590  0.23200  Biso   1.000  H
  H4       1.0000 0.20590  0.68590  0.23200  Biso   1.000  H
  H5       1.0000 0.70590  0.81410  0.73200  Biso   1.000  H
  H6       1.0000 0.20590  0.31410  0.73200  Biso   1.000  H
  H7       1.0000 0.29410  0.81410  0.76800  Biso   1.000  H
  H8       1.0000 0.79410  0.31410  0.76800  Biso   1.000  H
  H9       1.0000 0.37920  0.18700  0.27780  Biso   1.000  H
  H10      1.0000 0.87920  0.68700  0.27780  Biso   1.000  H
  H11      1.0000 0.62080  0.18700  0.22220  Biso   1.000  H
  H12      1.0000 0.12080  0.68700  0.22220  Biso   1.000  H
  H13      1.0000 0.62080  0.81300  0.72220  Biso   1.000  H
  H14      1.0000 0.12080  0.31300  0.72220  Biso   1.000  H
  H15      1.0000 0.37920  0.81300  0.77780  Biso   1.000  H
  H16      1.0000 0.87920  0.31300  0.77780  Biso   1.000  H
  Cl1      1.0000 0.33396  0.21893  0.42744  Biso   1.000  Cl
  Cl2      1.0000 0.83396  0.71893  0.42744  Biso   1.000  Cl
  Cl3      1.0000 0.66604  0.21893  0.07256  Biso   1.000  Cl
  Cl4      1.0000 0.16604  0.71893  0.07256  Biso   1.000  Cl
  Cl5      1.0000 0.66604  0.78107  0.57256  Biso   1.000  Cl
  Cl6      1.0000 0.16604  0.28107  0.57256  Biso   1.000  Cl
  Cl7      1.0000 0.33396  0.78107  0.92744  Biso   1.000  Cl
  Cl8      1.0000 0.83396  0.28107  0.92744  Biso   1.000  Cl
  Cl9      1.0000 0.33696  0.04778  0.31854  Biso   1.000  Cl
  Cl10     1.0000 0.83696  0.54778  0.31854  Biso   1.000  Cl
  Cl11     1.0000 0.66304  0.04778  0.18146  Biso   1.000  Cl
  Cl12     1.0000 0.16304  0.54778  0.18146  Biso   1.000  Cl
  Cl13     1.0000 0.66304  0.95222  0.68146  Biso   1.000  Cl
  Cl14     1.0000 0.16304  0.45222  0.68146  Biso   1.000  Cl
  Cl15     1.0000 0.33696  0.95222  0.81854  Biso   1.000  Cl
  Cl16     1.0000 0.83696  0.45222  0.81854  Biso   1.000  Cl
  Cl17     1.0000 0.36450  0.24940  0.35500  Biso   1.000  Cl
  Cl18     1.0000 0.86450  0.74940  0.35500  Biso   1.000  Cl
  Cl19     1.0000 0.63550  0.24940  0.14500  Biso   1.000  Cl
  Cl20     1.0000 0.13550  0.74940  0.14500  Biso   1.000  Cl
  Cl21     1.0000 0.63550  0.75060  0.64500  Biso   1.000  Cl
  Cl22     1.0000 0.13550  0.25060  0.64500  Biso   1.000  Cl
  Cl23     1.0000 0.36450  0.75060  0.85500  Biso   1.000  Cl
  Cl24     1.0000 0.86450  0.25060  0.85500  Biso   1.000  Cl
  C9       1.0000 0.34000  0.13390  0.34800  Biso   1.000  C
  C10      1.0000 0.84000  0.63390  0.34800  Biso   1.000  C
  C11      1.0000 0.66000  0.13390  0.15200  Biso   1.000  C
  C12      1.0000 0.16000  0.63390  0.15200  Biso   1.000  C
  C13      1.0000 0.66000  0.86610  0.65200  Biso   1.000  C
  C14      1.0000 0.16000  0.36610  0.65200  Biso   1.000  C
  C15      1.0000 0.34000  0.86610  0.84800  Biso   1.000  C
  C16      1.0000 0.84000  0.36610  0.84800  Biso   1.000  C
  H17      1.0000 0.37940  0.09770  0.32240  Biso   1.000  H
  H18      1.0000 0.87940  0.59770  0.32240  Biso   1.000  H
  H19      1.0000 0.62060  0.09770  0.17760  Biso   1.000  H
  H20      1.0000 0.12060  0.59770  0.17760  Biso   1.000  H
  H21      1.0000 0.62060  0.90230  0.67760  Biso   1.000  H
  H22      1.0000 0.12060  0.40230  0.67760  Biso   1.000  H
  H23      1.0000 0.37940  0.90230  0.82240  Biso   1.000  H
  H24      1.0000 0.87940  0.40230  0.82240  Biso   1.000  H
  H25      1.0000 0.33120  0.11100  0.41580  Biso   1.000  H
  H26      1.0000 0.83120  0.61100  0.41580  Biso   1.000  H
  H27      1.0000 0.66880  0.11100  0.08420  Biso   1.000  H
  H28      1.0000 0.16880  0.61100  0.08420  Biso   1.000  H
  H29      1.0000 0.66880  0.88900  0.58420  Biso   1.000  H
  H30      1.0000 0.16880  0.38900  0.58420  Biso   1.000  H
  H31      1.0000 0.33120  0.88900  0.91580  Biso   1.000  H
  H32      1.0000 0.83120  0.38900  0.91580  Biso   1.000  H
  Cl25     1.0000 0.26320  0.12110  0.26950  Biso   1.000  Cl
  Cl26     1.0000 0.76320  0.62110  0.26950  Biso   1.000  Cl
  Cl27     1.0000 0.73680  0.12110  0.23050  Biso   1.000  Cl
  Cl28     1.0000 0.23680  0.62110  0.23050  Biso   1.000  Cl
  Cl29     1.0000 0.73680  0.87890  0.73050  Biso   1.000  Cl
  Cl30     1.0000 0.23680  0.37890  0.73050  Biso   1.000  Cl
  Cl31     1.0000 0.26320  0.87890  0.76950  Biso   1.000  Cl
  Cl32     1.0000 0.76320  0.37890  0.76950  Biso   1.000  Cl
  C17      1.0000 0.30780  0.15130  0.31160  Biso   1.000  C
  C18      1.0000 0.80780  0.65130  0.31160  Biso   1.000  C
  C19      1.0000 0.69220  0.15130  0.18840  Biso   1.000  C
  C20      1.0000 0.19220  0.65130  0.18840  Biso   1.000  C
  C21      1.0000 0.69220  0.84870  0.68840  Biso   1.000  C
  C22      1.0000 0.19220  0.34870  0.68840  Biso   1.000  C
  C23      1.0000 0.30780  0.84870  0.81160  Biso   1.000  C
  C24      1.0000 0.80780  0.34870  0.81160  Biso   1.000  C
  H33      1.0000 0.25520  0.15190  0.31070  Biso   1.000  H
  H34      1.0000 0.75520  0.65190  0.31070  Biso   1.000  H
  H35      1.0000 0.74480  0.15190  0.18930  Biso   1.000  H
  H36      1.0000 0.24480  0.65190  0.18930  Biso   1.000  H
  H37      1.0000 0.74480  0.84810  0.68930  Biso   1.000  H
  H38      1.0000 0.24480  0.34810  0.68930  Biso   1.000  H
  H39      1.0000 0.25520  0.84810  0.81070  Biso   1.000  H
  H40      1.0000 0.75520  0.34810  0.81070  Biso   1.000  H
  H41      1.0000 0.32200  0.16150  0.24260  Biso   1.000  H
  H42      1.0000 0.82200  0.66150  0.24260  Biso   1.000  H
  H43      1.0000 0.67800  0.16150  0.25740  Biso   1.000  H
  H44      1.0000 0.17800  0.66150  0.25740  Biso   1.000  H
  H45      1.0000 0.67800  0.83850  0.75740  Biso   1.000  H
  H46      1.0000 0.17800  0.33850  0.75740  Biso   1.000  H
  H47      1.0000 0.32200  0.83850  0.74260  Biso   1.000  H
  H48      1.0000 0.82200  0.33850  0.74260  Biso   1.000  H
  Cl33     1.0000 0.34250  0.23830  0.38980  Biso   1.000  Cl
  Cl34     1.0000 0.84250  0.73830  0.38980  Biso   1.000  Cl
  Cl35     1.0000 0.65750  0.23830  0.11020  Biso   1.000  Cl
  Cl36     1.0000 0.15750  0.73830  0.11020  Biso   1.000  Cl
  Cl37     1.0000 0.65750  0.76170  0.61020  Biso   1.000  Cl
  Cl38     1.0000 0.15750  0.26170  0.61020  Biso   1.000  Cl
  Cl39     1.0000 0.34250  0.76170  0.88980  Biso   1.000  Cl
  Cl40     1.0000 0.84250  0.26170  0.88980  Biso   1.000  Cl
  Cl41     1.0000 0.34010  0.04560  0.35510  Biso   1.000  Cl
  Cl42     1.0000 0.84010  0.54560  0.35510  Biso   1.000  Cl
  Cl43     1.0000 0.65990  0.04560  0.14490  Biso   1.000  Cl
  Cl44     1.0000 0.15990  0.54560  0.14490  Biso   1.000  Cl
  Cl45     1.0000 0.65990  0.95440  0.64490  Biso   1.000  Cl
  Cl46     1.0000 0.15990  0.45440  0.64490  Biso   1.000  Cl
  Cl47     1.0000 0.34010  0.95440  0.85510  Biso   1.000  Cl
  Cl48     1.0000 0.84010  0.45440  0.85510  Biso   1.000  Cl
  C25      1.0000 0.32100  0.17200  0.37600  Biso   1.000  C
  C26      1.0000 0.82100  0.67200  0.37600  Biso   1.000  C
  C27      1.0000 0.67900  0.17200  0.12400  Biso   1.000  C
  C28      1.0000 0.17900  0.67200  0.12400  Biso   1.000  C
  C29      1.0000 0.67900  0.82800  0.62400  Biso   1.000  C
  C30      1.0000 0.17900  0.32800  0.62400  Biso   1.000  C
  C31      1.0000 0.32100  0.82800  0.87600  Biso   1.000  C
  C32      1.0000 0.82100  0.32800  0.87600  Biso   1.000  C
  H49      1.0000 0.37140  0.16030  0.39960  Biso   1.000  H
  H50      1.0000 0.87140  0.66030  0.39960  Biso   1.000  H
  H51      1.0000 0.62860  0.16030  0.10040  Biso   1.000  H
  H52      1.0000 0.12860  0.66030  0.10040  Biso   1.000  H
  H53      1.0000 0.62860  0.83970  0.60040  Biso   1.000  H
  H54      1.0000 0.12860  0.33970  0.60040  Biso   1.000  H
  H55      1.0000 0.37140  0.83970  0.89960  Biso   1.000  H
  H56      1.0000 0.87140  0.33970  0.89960  Biso   1.000  H
  H57      1.0000 0.29260  0.17270  0.43550  Biso   1.000  H
  H58      1.0000 0.79260  0.67270  0.43550  Biso   1.000  H
  H59      1.0000 0.70740  0.17270  0.06450  Biso   1.000  H
  H60      1.0000 0.20740  0.67270  0.06450  Biso   1.000  H
  H61      1.0000 0.70740  0.82730  0.56450  Biso   1.000  H
  H62      1.0000 0.20740  0.32730  0.56450  Biso   1.000  H
  H63      1.0000 0.29260  0.82730  0.93550  Biso   1.000  H
  H64      1.0000 0.79260  0.32730  0.93550  Biso   1.000  H
  Cl49     1.0000 0.31620  0.27960  0.31940  Biso   1.000  Cl
  Cl50     1.0000 0.81620  0.77960  0.31940  Biso   1.000  Cl
  Cl51     1.0000 0.68380  0.27960  0.18060  Biso   1.000  Cl
  Cl52     1.0000 0.18380  0.77960  0.18060  Biso   1.000  Cl
  Cl53     1.0000 0.68380  0.72040  0.68060  Biso   1.000  Cl
  Cl54     1.0000 0.18380  0.22040  0.68060  Biso   1.000  Cl
  Cl55     1.0000 0.31620  0.72040  0.81940  Biso   1.000  Cl
  Cl56     1.0000 0.81620  0.22040  0.81940  Biso   1.000  Cl
  Cl57     1.0000 0.29300  0.08620  0.30080  Biso   1.000  Cl
  Cl58     1.0000 0.79300  0.58620  0.30080  Biso   1.000  Cl
  Cl59     1.0000 0.70700  0.08620  0.19920  Biso   1.000  Cl
  Cl60     1.0000 0.20700  0.58620  0.19920  Biso   1.000  Cl
  Cl61     1.0000 0.70700  0.91380  0.69920  Biso   1.000  Cl
  Cl62     1.0000 0.20700  0.41380  0.69920  Biso   1.000  Cl
  Cl63     1.0000 0.29300  0.91380  0.80080  Biso   1.000  Cl
  Cl64     1.0000 0.79300  0.41380  0.80080  Biso   1.000  Cl
  C33      1.0000 0.36760  0.19350  0.72320  Biso   1.000  C
  C34      1.0000 0.86760  0.69350  0.72320  Biso   1.000  C
  C35      1.0000 0.63240  0.19350  0.77680  Biso   1.000  C
  C36      1.0000 0.13240  0.69350  0.77680  Biso   1.000  C
  C37      1.0000 0.63240  0.80650  0.27680  Biso   1.000  C
  C38      1.0000 0.13240  0.30650  0.27680  Biso   1.000  C
  C39      1.0000 0.36760  0.80650  0.22320  Biso   1.000  C
  C40      1.0000 0.86760  0.30650  0.22320  Biso   1.000  C
  F1       1.0000 0.35460  0.10940  0.69310  Biso   1.000  F
  F2       1.0000 0.85460  0.60940  0.69310  Biso   1.000  F
  F3       1.0000 0.64540  0.10940  0.80690  Biso   1.000  F
  F4       1.0000 0.14540  0.60940  0.80690  Biso   1.000  F
  F5       1.0000 0.64540  0.89060  0.30690  Biso   1.000  F
  F6       1.0000 0.14540  0.39060  0.30690  Biso   1.000  F
  F7       1.0000 0.35460  0.89060  0.19310  Biso   1.000  F
  F8       1.0000 0.85460  0.39060  0.19310  Biso   1.000  F
  F9       1.0000 0.43390  0.21170  0.70400  Biso   1.000  F
  F10      1.0000 0.93390  0.71170  0.70400  Biso   1.000  F
  F11      1.0000 0.56610  0.21170  0.79600  Biso   1.000  F
  F12      1.0000 0.06610  0.71170  0.79600  Biso   1.000  F
  F13      1.0000 0.56610  0.78830  0.29600  Biso   1.000  F
  F14      1.0000 0.06610  0.28830  0.29600  Biso   1.000  F
  F15      1.0000 0.43390  0.78830  0.20400  Biso   1.000  F
  F16      1.0000 0.93390  0.28830  0.20400  Biso   1.000  F
  F17      1.0000 0.32690  0.24740  0.66600  Biso   1.000  F
  F18      1.0000 0.82690  0.74740  0.66600  Biso   1.000  F
  F19      1.0000 0.67310  0.24740  0.83400  Biso   1.000  F
  F20      1.0000 0.17310  0.74740  0.83400  Biso   1.000  F
  F21      1.0000 0.67310  0.75260  0.33400  Biso   1.000  F
  F22      1.0000 0.17310  0.25260  0.33400  Biso   1.000  F
  F23      1.0000 0.32690  0.75260  0.16600  Biso   1.000  F
  F24      1.0000 0.82690  0.25260  0.16600  Biso   1.000  F
  C41      1.0000 0.37830  0.20380  0.72410  Biso   1.000  C
  C42      1.0000 0.87830  0.70380  0.72410  Biso   1.000  C
  C43      1.0000 0.62170  0.20380  0.77590  Biso   1.000  C
  C44      1.0000 0.12170  0.70380  0.77590  Biso   1.000  C
  C45      1.0000 0.62170  0.79620  0.27590  Biso   1.000  C
  C46      1.0000 0.12170  0.29620  0.27590  Biso   1.000  C
  C47      1.0000 0.37830  0.79620  0.22410  Biso   1.000  C
  C48      1.0000 0.87830  0.29620  0.22410  Biso   1.000  C
  F25      1.0000 0.41440  0.12920  0.70500  Biso   1.000  F
  F26      1.0000 0.91440  0.62920  0.70500  Biso   1.000  F
  F27      1.0000 0.58560  0.12920  0.79500  Biso   1.000  F
  F28      1.0000 0.08560  0.62920  0.79500  Biso   1.000  F
  F29      1.0000 0.58560  0.87080  0.29500  Biso   1.000  F
  F30      1.0000 0.08560  0.37080  0.29500  Biso   1.000  F
  F31      1.0000 0.41440  0.87080  0.20500  Biso   1.000  F
  F32      1.0000 0.91440  0.37080  0.20500  Biso   1.000  F
  F33      1.0000 0.42010  0.27220  0.70530  Biso   1.000  F
  F34      1.0000 0.92010  0.77220  0.70530  Biso   1.000  F
  F35      1.0000 0.57990  0.27220  0.79470  Biso   1.000  F
  F36      1.0000 0.07990  0.77220  0.79470  Biso   1.000  F
  F37      1.0000 0.57990  0.72780  0.29470  Biso   1.000  F
  F38      1.0000 0.07990  0.22780  0.29470  Biso   1.000  F
  F39      1.0000 0.42010  0.72780  0.20530  Biso   1.000  F
  F40      1.0000 0.92010  0.22780  0.20530  Biso   1.000  F
  F41      1.0000 0.32300  0.21040  0.65970  Biso   1.000  F
  F42      1.0000 0.82300  0.71040  0.65970  Biso   1.000  F
  F43      1.0000 0.67700  0.21040  0.84030  Biso   1.000  F
  F44      1.0000 0.17700  0.71040  0.84030  Biso   1.000  F
  F45      1.0000 0.67700  0.78960  0.34030  Biso   1.000  F
  F46      1.0000 0.17700  0.28960  0.34030  Biso   1.000  F
  F47      1.0000 0.32300  0.78960  0.15970  Biso   1.000  F
  F48      1.0000 0.82300  0.28960  0.15970  Biso   1.000  F
  C49      1.0000 0.36760  0.17930  0.73000  Biso   1.000  C
  C50      1.0000 0.86760  0.67930  0.73000  Biso   1.000  C
  C51      1.0000 0.63240  0.17930  0.77000  Biso   1.000  C
  C52      1.0000 0.13240  0.67930  0.77000  Biso   1.000  C
  C53      1.0000 0.63240  0.82070  0.27000  Biso   1.000  C
  C54      1.0000 0.13240  0.32070  0.27000  Biso   1.000  C
  C55      1.0000 0.36760  0.82070  0.23000  Biso   1.000  C
  C56      1.0000 0.86760  0.32070  0.23000  Biso   1.000  C
  F49      1.0000 0.42830  0.13710  0.71750  Biso   1.000  F
  F50      1.0000 0.92830  0.63710  0.71750  Biso   1.000  F
  F51      1.0000 0.57170  0.13710  0.78250  Biso   1.000  F
  F52      1.0000 0.07170  0.63710  0.78250  Biso   1.000  F
  F53      1.0000 0.57170  0.86290  0.28250  Biso   1.000  F
  F54      1.0000 0.07170  0.36290  0.28250  Biso   1.000  F
  F55      1.0000 0.42830  0.86290  0.21750  Biso   1.000  F
  F56      1.0000 0.92830  0.36290  0.21750  Biso   1.000  F
  F57      1.0000 0.37440  0.25870  0.67400  Biso   1.000  F
  F58      1.0000 0.87440  0.75870  0.67400  Biso   1.000  F
  F59      1.0000 0.62560  0.25870  0.82600  Biso   1.000  F
  F60      1.0000 0.12560  0.75870  0.82600  Biso   1.000  F
  F61      1.0000 0.62560  0.74130  0.32600  Biso   1.000  F
  F62      1.0000 0.12560  0.24130  0.32600  Biso   1.000  F
  F63      1.0000 0.37440  0.74130  0.17400  Biso   1.000  F
  F64      1.0000 0.87440  0.24130  0.17400  Biso   1.000  F
  F65      1.0000 0.31740  0.13470  0.68270  Biso   1.000  F
  F66      1.0000 0.81740  0.63470  0.68270  Biso   1.000  F
  F67      1.0000 0.68260  0.13470  0.81730  Biso   1.000  F
  F68      1.0000 0.18260  0.63470  0.81730  Biso   1.000  F
  F69      1.0000 0.68260  0.86530  0.31730  Biso   1.000  F
  F70      1.0000 0.18260  0.36530  0.31730  Biso   1.000  F
  F71      1.0000 0.31740  0.86530  0.18270  Biso   1.000  F
  F72      1.0000 0.81740  0.36530  0.18270  Biso   1.000  F
  F73      1.0000 0.42983  0.05524  0.12240  Biso   1.000  F
  F74      1.0000 0.92983  0.55524  0.12240  Biso   1.000  F
  F75      1.0000 0.57017  0.05524  0.37760  Biso   1.000  F
  F76      1.0000 0.07017  0.55524  0.37760  Biso   1.000  F
  F77      1.0000 0.57017  0.94476  0.87760  Biso   1.000  F
  F78      1.0000 0.07017  0.44476  0.87760  Biso   1.000  F
  F79      1.0000 0.42983  0.94476  0.62240  Biso   1.000  F
  F80      1.0000 0.92983  0.44476  0.62240  Biso   1.000  F
  F81      1.0000 0.47462  0.18674  0.14674  Biso   1.000  F
  F82      1.0000 0.97462  0.68674  0.14674  Biso   1.000  F
  F83      1.0000 0.52538  0.18674  0.35326  Biso   1.000  F
  F84      1.0000 0.02538  0.68674  0.35326  Biso   1.000  F
  F85      1.0000 0.52538  0.81326  0.85326  Biso   1.000  F
  F86      1.0000 0.02538  0.31326  0.85326  Biso   1.000  F
  F87      1.0000 0.47462  0.81326  0.64674  Biso   1.000  F
  F88      1.0000 0.97462  0.31326  0.64674  Biso   1.000  F
  F89      1.0000 0.50970  0.10145  0.02987  Biso   1.000  F
  F90      1.0000 0.00970  0.60145  0.02987  Biso   1.000  F
  F91      1.0000 0.49030  0.10145  0.47013  Biso   1.000  F
  F92      1.0000 0.99030  0.60145  0.47013  Biso   1.000  F
  F93      1.0000 0.49030  0.89855  0.97013  Biso   1.000  F
  F94      1.0000 0.99030  0.39855  0.97013  Biso   1.000  F
  F95      1.0000 0.50970  0.89855  0.52987  Biso   1.000  F
  F96      1.0000 0.00970  0.39855  0.52987  Biso   1.000  F
  Cu1      1.0000 0.25000  0.25000  0.00000  Biso   1.000  Cu
  Cu2      1.0000 0.75000  0.75000  0.00000  Biso   1.000  Cu
  Cu3      1.0000 0.75000  0.25000  0.50000  Biso   1.000  Cu
  Cu4      1.0000 0.25000  0.75000  0.50000  Biso   1.000  Cu
  O1       1.0000 0.34300  0.19991  0.05530  Biso   1.000  O
  O2       1.0000 0.84300  0.69991  0.05530  Biso   1.000  O
  O3       1.0000 0.65700  0.19991  0.44470  Biso   1.000  O
  O4       1.0000 0.15700  0.69991  0.44470  Biso   1.000  O
  O5       1.0000 0.65700  0.80009  0.94470  Biso   1.000  O
  O6       1.0000 0.15700  0.30009  0.94470  Biso   1.000  O
  O7       1.0000 0.34300  0.80009  0.55530  Biso   1.000  O
  O8       1.0000 0.84300  0.30009  0.55530  Biso   1.000  O
  O9       1.0000 0.29866  0.24802  0.84595  Biso   1.000  O
  O10      1.0000 0.79866  0.74802  0.84595  Biso   1.000  O
  O11      1.0000 0.70134  0.24802  0.65405  Biso   1.000  O
  O12      1.0000 0.20134  0.74802  0.65405  Biso   1.000  O
  O13      1.0000 0.70134  0.75198  0.15405  Biso   1.000  O
  O14      1.0000 0.20134  0.25198  0.15405  Biso   1.000  O
  O15      1.0000 0.29866  0.75198  0.34595  Biso   1.000  O
  O16      1.0000 0.79866  0.25198  0.34595  Biso   1.000  O
  N1       1.0000 0.21432  0.12346  0.97188  Biso   1.000  N
  N2       1.0000 0.71432  0.62346  0.97188  Biso   1.000  N
  N3       1.0000 0.78568  0.12346  0.52812  Biso   1.000  N
  N4       1.0000 0.28568  0.62346  0.52812  Biso   1.000  N
  N5       1.0000 0.78568  0.87654  0.02812  Biso   1.000  N
  N6       1.0000 0.28568  0.37654  0.02812  Biso   1.000  N
  N7       1.0000 0.21432  0.87654  0.47188  Biso   1.000  N
  N8       1.0000 0.71432  0.37654  0.47188  Biso   1.000  N
  C57      1.0000 0.22815  0.05379  0.03581  Biso   1.000  C
  C58      1.0000 0.72815  0.55379  0.03581  Biso   1.000  C
  C59      1.0000 0.77185  0.05379  0.46419  Biso   1.000  C
  C60      1.0000 0.27185  0.55379  0.46419  Biso   1.000  C
  C61      1.0000 0.77185  0.94621  0.96419  Biso   1.000  C
  C62      1.0000 0.27185  0.44621  0.96419  Biso   1.000  C
  C63      1.0000 0.22815  0.94621  0.53581  Biso   1.000  C
  C64      1.0000 0.72815  0.44621  0.53581  Biso   1.000  C
  H65      1.0000 0.25490  0.06540  0.09670  Biso   1.000  H
  H66      1.0000 0.75490  0.56540  0.09670  Biso   1.000  H
  H67      1.0000 0.74510  0.06540  0.40330  Biso   1.000  H
  H68      1.0000 0.24510  0.56540  0.40330  Biso   1.000  H
  H69      1.0000 0.74510  0.93460  0.90330  Biso   1.000  H
  H70      1.0000 0.24510  0.43460  0.90330  Biso   1.000  H
  H71      1.0000 0.25490  0.93460  0.59670  Biso   1.000  H
  H72      1.0000 0.75490  0.43460  0.59670  Biso   1.000  H
  C65      1.0000 0.20460  0.96632  0.01550  Biso   1.000  C
  C66      1.0000 0.70460  0.46632  0.01550  Biso   1.000  C
  C67      1.0000 0.79540  0.96632  0.48450  Biso   1.000  C
  C68      1.0000 0.29540  0.46632  0.48450  Biso   1.000  C
  C69      1.0000 0.79540  0.03368  0.98450  Biso   1.000  C
  C70      1.0000 0.29540  0.53368  0.98450  Biso   1.000  C
  C71      1.0000 0.20460  0.03368  0.51550  Biso   1.000  C
  C72      1.0000 0.70460  0.53368  0.51550  Biso   1.000  C
  H73      1.0000 0.21490  0.91870  0.06210  Biso   1.000  H
  H74      1.0000 0.71490  0.41870  0.06210  Biso   1.000  H
  H75      1.0000 0.78510  0.91870  0.43790  Biso   1.000  H
  H76      1.0000 0.28510  0.41870  0.43790  Biso   1.000  H
  H77      1.0000 0.78510  0.08130  0.93790  Biso   1.000  H
  H78      1.0000 0.28510  0.58130  0.93790  Biso   1.000  H
  H79      1.0000 0.21490  0.08130  0.56210  Biso   1.000  H
  H80      1.0000 0.71490  0.58130  0.56210  Biso   1.000  H
  C73      1.0000 0.16584  0.94846  0.92680  Biso   1.000  C
  C74      1.0000 0.66584  0.44846  0.92680  Biso   1.000  C
  C75      1.0000 0.83416  0.94846  0.57320  Biso   1.000  C
  C76      1.0000 0.33416  0.44846  0.57320  Biso   1.000  C
  C77      1.0000 0.83416  0.05154  0.07320  Biso   1.000  C
  C78      1.0000 0.33416  0.55154  0.07320  Biso   1.000  C
  C79      1.0000 0.16584  0.05154  0.42680  Biso   1.000  C
  C80      1.0000 0.66584  0.55154  0.42680  Biso   1.000  C
  H81      1.0000 0.14930  0.88860  0.91170  Biso   1.000  H
  H82      1.0000 0.64930  0.38860  0.91170  Biso   1.000  H
  H83      1.0000 0.85070  0.88860  0.58830  Biso   1.000  H
  H84      1.0000 0.35070  0.38860  0.58830  Biso   1.000  H
  H85      1.0000 0.85070  0.11140  0.08830  Biso   1.000  H
  H86      1.0000 0.35070  0.61140  0.08830  Biso   1.000  H
  H87      1.0000 0.14930  0.11140  0.41170  Biso   1.000  H
  H88      1.0000 0.64930  0.61140  0.41170  Biso   1.000  H
  C81      1.0000 0.15132  0.02012  0.85945  Biso   1.000  C
  C82      1.0000 0.65132  0.52012  0.85945  Biso   1.000  C
  C83      1.0000 0.84868  0.02012  0.64055  Biso   1.000  C
  C84      1.0000 0.34868  0.52012  0.64055  Biso   1.000  C
  C85      1.0000 0.84868  0.97988  0.14055  Biso   1.000  C
  C86      1.0000 0.34868  0.47988  0.14055  Biso   1.000  C
  C87      1.0000 0.15132  0.97988  0.35945  Biso   1.000  C
  C88      1.0000 0.65132  0.47988  0.35945  Biso   1.000  C
  C89      1.0000 0.17684  0.10640  0.88591  Biso   1.000  C
  C90      1.0000 0.67684  0.60640  0.88591  Biso   1.000  C
  C91      1.0000 0.82316  0.10640  0.61409  Biso   1.000  C
  C92      1.0000 0.32316  0.60640  0.61409  Biso   1.000  C
  C93      1.0000 0.82316  0.89360  0.11409  Biso   1.000  C
  C94      1.0000 0.32316  0.39360  0.11409  Biso   1.000  C
  C95      1.0000 0.17684  0.89360  0.38591  Biso   1.000  C
  C96      1.0000 0.67684  0.39360  0.38591  Biso   1.000  C
  H89      1.0000 0.16720  0.15550  0.84090  Biso   1.000  H
  H90      1.0000 0.66720  0.65550  0.84090  Biso   1.000  H
  H91      1.0000 0.83280  0.15550  0.65910  Biso   1.000  H
  H92      1.0000 0.33280  0.65550  0.65910  Biso   1.000  H
  H93      1.0000 0.83280  0.84450  0.15910  Biso   1.000  H
  H94      1.0000 0.33280  0.34450  0.15910  Biso   1.000  H
  H95      1.0000 0.16720  0.84450  0.34090  Biso   1.000  H
  H96      1.0000 0.66720  0.34450  0.34090  Biso   1.000  H
  C97      1.0000 0.11135  0.00886  0.76615  Biso   1.000  C
  C98      1.0000 0.61135  0.50886  0.76615  Biso   1.000  C
  C99      1.0000 0.88865  0.00886  0.73385  Biso   1.000  C
  C100     1.0000 0.38865  0.50886  0.73385  Biso   1.000  C
  C101     1.0000 0.88865  0.99114  0.23385  Biso   1.000  C
  C102     1.0000 0.38865  0.49114  0.23385  Biso   1.000  C
  C103     1.0000 0.11135  0.99114  0.26615  Biso   1.000  C
  C104     1.0000 0.61135  0.49114  0.26615  Biso   1.000  C
  C105     1.0000 0.07755  0.00427  0.68796  Biso   1.000  C
  C106     1.0000 0.57755  0.50427  0.68796  Biso   1.000  C
  C107     1.0000 0.92245  0.00427  0.81204  Biso   1.000  C
  C108     1.0000 0.42245  0.50427  0.81204  Biso   1.000  C
  C109     1.0000 0.92245  0.99573  0.31204  Biso   1.000  C
  C110     1.0000 0.42245  0.49573  0.31204  Biso   1.000  C
  C111     1.0000 0.07755  0.99573  0.18796  Biso   1.000  C
  C112     1.0000 0.57755  0.49573  0.18796  Biso   1.000  C
  C113     1.0000 0.03769  0.00181  0.59326  Biso   1.000  C
  C114     1.0000 0.53769  0.50181  0.59326  Biso   1.000  C
  C115     1.0000 0.96231  0.00181  0.90674  Biso   1.000  C
  C116     1.0000 0.46231  0.50181  0.90674  Biso   1.000  C
  C117     1.0000 0.96231  0.99819  0.40674  Biso   1.000  C
  C118     1.0000 0.46231  0.49819  0.40674  Biso   1.000  C
  C119     1.0000 0.03769  0.99819  0.09326  Biso   1.000  C
  C120     1.0000 0.53769  0.49819  0.09326  Biso   1.000  C
  C121     1.0000 0.01368  0.08270  0.54765  Biso   1.000  C
  C122     1.0000 0.51368  0.58270  0.54765  Biso   1.000  C
  C123     1.0000 0.98632  0.08270  0.95235  Biso   1.000  C
  C124     1.0000 0.48632  0.58270  0.95235  Biso   1.000  C
  C125     1.0000 0.98632  0.91730  0.45235  Biso   1.000  C
  C126     1.0000 0.48632  0.41730  0.45235  Biso   1.000  C
  C127     1.0000 0.01368  0.91730  0.04765  Biso   1.000  C
  C128     1.0000 0.51368  0.41730  0.04765  Biso   1.000  C
  H97      1.0000 0.02320  0.13930  0.58010  Biso   1.000  H
  H98      1.0000 0.52320  0.63930  0.58010  Biso   1.000  H
  H99      1.0000 0.97680  0.13930  0.91990  Biso   1.000  H
  H100     1.0000 0.47680  0.63930  0.91990  Biso   1.000  H
  H101     1.0000 0.97680  0.86070  0.41990  Biso   1.000  H
  H102     1.0000 0.47680  0.36070  0.41990  Biso   1.000  H
  H103     1.0000 0.02320  0.86070  0.08010  Biso   1.000  H
  H104     1.0000 0.52320  0.36070  0.08010  Biso   1.000  H
  C129     1.0000 0.02383  0.91889  0.54438  Biso   1.000  C
  C130     1.0000 0.52383  0.41889  0.54438  Biso   1.000  C
  C131     1.0000 0.97617  0.91889  0.95562  Biso   1.000  C
  C132     1.0000 0.47617  0.41889  0.95562  Biso   1.000  C
  C133     1.0000 0.97617  0.08111  0.45562  Biso   1.000  C
  C134     1.0000 0.47617  0.58111  0.45562  Biso   1.000  C
  C135     1.0000 0.02383  0.08111  0.04438  Biso   1.000  C
  C136     1.0000 0.52383  0.58111  0.04438  Biso   1.000  C
  H105     1.0000 0.04020  0.86350  0.57440  Biso   1.000  H
  H106     1.0000 0.54020  0.36350  0.57440  Biso   1.000  H
  H107     1.0000 0.95980  0.86350  0.92560  Biso   1.000  H
  H108     1.0000 0.45980  0.36350  0.92560  Biso   1.000  H
  H109     1.0000 0.95980  0.13650  0.42560  Biso   1.000  H
  H110     1.0000 0.45980  0.63650  0.42560  Biso   1.000  H
  H111     1.0000 0.04020  0.13650  0.07440  Biso   1.000  H
  H112     1.0000 0.54020  0.63650  0.07440  Biso   1.000  H
  C137     1.0000 0.39349  0.16943  0.00791  Biso   1.000  C
  C138     1.0000 0.89349  0.66943  0.00791  Biso   1.000  C
  C139     1.0000 0.60651  0.16943  0.49209  Biso   1.000  C
  C140     1.0000 0.10651  0.66943  0.49209  Biso   1.000  C
  C141     1.0000 0.60651  0.83057  0.99209  Biso   1.000  C
  C142     1.0000 0.10651  0.33057  0.99209  Biso   1.000  C
  C143     1.0000 0.39349  0.83057  0.50791  Biso   1.000  C
  C144     1.0000 0.89349  0.33057  0.50791  Biso   1.000  C
  C145     1.0000 0.40281  0.16829  0.90646  Biso   1.000  C
  C146     1.0000 0.90281  0.66829  0.90646  Biso   1.000  C
  C147     1.0000 0.59719  0.16829  0.59354  Biso   1.000  C
  C148     1.0000 0.09719  0.66829  0.59354  Biso   1.000  C
  C149     1.0000 0.59719  0.83171  0.09354  Biso   1.000  C
  C150     1.0000 0.09719  0.33171  0.09354  Biso   1.000  C
  C151     1.0000 0.40281  0.83171  0.40646  Biso   1.000  C
  C152     1.0000 0.90281  0.33171  0.40646  Biso   1.000  C
  H113     1.0000 0.44040  0.14200  0.88400  Biso   1.000  H
  H114     1.0000 0.94040  0.64200  0.88400  Biso   1.000  H
  H115     1.0000 0.55960  0.14200  0.61600  Biso   1.000  H
  H116     1.0000 0.05960  0.64200  0.61600  Biso   1.000  H
  H117     1.0000 0.55960  0.85800  0.11600  Biso   1.000  H
  H118     1.0000 0.05960  0.35800  0.11600  Biso   1.000  H
  H119     1.0000 0.44040  0.85800  0.38400  Biso   1.000  H
  H120     1.0000 0.94040  0.35800  0.38400  Biso   1.000  H
  C153     1.0000 0.35455  0.20630  0.83416  Biso   1.000  C
  C154     1.0000 0.85455  0.70630  0.83416  Biso   1.000  C
  C155     1.0000 0.64545  0.20630  0.66584  Biso   1.000  C
  C156     1.0000 0.14545  0.70630  0.66584  Biso   1.000  C
  C157     1.0000 0.64545  0.79370  0.16584  Biso   1.000  C
  C158     1.0000 0.14545  0.29370  0.16584  Biso   1.000  C
  C159     1.0000 0.35455  0.79370  0.33416  Biso   1.000  C
  C160     1.0000 0.85455  0.29370  0.33416  Biso   1.000  C
  C161     1.0000 0.45287  0.12690  0.07670  Biso   1.000  C
  C162     1.0000 0.95287  0.62690  0.07670  Biso   1.000  C
  C163     1.0000 0.54713  0.12690  0.42330  Biso   1.000  C
  C164     1.0000 0.04713  0.62690  0.42330  Biso   1.000  C
  C165     1.0000 0.54713  0.87310  0.92330  Biso   1.000  C
  C166     1.0000 0.04713  0.37310  0.92330  Biso   1.000  C
  C167     1.0000 0.45287  0.87310  0.57670  Biso   1.000  C
  C168     1.0000 0.95287  0.37310  0.57670  Biso   1.000  C
