data_image0
_cell_length_a       24.429
_cell_length_b       17.322
_cell_length_c       13.69
_cell_angle_alpha    90
_cell_angle_beta     119.589
_cell_angle_gamma    90

_symmetry_space_group_name_H-M    "P 1"
_symmetry_int_tables_number       1

loop_
  _symmetry_equiv_pos_as_xyz
  'x, y, z'

loop_
  _atom_site_label
  _atom_site_occupancy
  _atom_site_fract_x
  _atom_site_fract_y
  _atom_site_fract_z
  _atom_site_thermal_displace_type
  _atom_site_B_iso_or_equiv
  _atom_site_type_symbol
  Cu1      1.0000 0.47954  0.04366  0.55082  Biso   1.000  Cu
  Cu2      1.0000 0.52046  0.04366  0.94918  Biso   1.000  Cu
  Cu3      1.0000 0.97954  0.54366  0.55082  Biso   1.000  Cu
  Cu4      1.0000 0.02046  0.54366  0.94918  Biso   1.000  Cu
  Cu5      1.0000 0.52046  0.95634  0.44918  Biso   1.000  Cu
  Cu6      1.0000 0.47954  0.95634  0.05082  Biso   1.000  Cu
  Cu7      1.0000 0.02046  0.45634  0.44918  Biso   1.000  Cu
  Cu8      1.0000 0.97954  0.45634  0.05082  Biso   1.000  Cu
  Si1      1.0000 0.33061  0.60445  0.63818  Biso   1.000  Si
  Si2      1.0000 0.66939  0.60445  0.86182  Biso   1.000  Si
  Si3      1.0000 0.83061  0.10445  0.63818  Biso   1.000  Si
  Si4      1.0000 0.16939  0.10445  0.86182  Biso   1.000  Si
  Si5      1.0000 0.66939  0.39555  0.36182  Biso   1.000  Si
  Si6      1.0000 0.33061  0.39555  0.13818  Biso   1.000  Si
  Si7      1.0000 0.16939  0.89555  0.36182  Biso   1.000  Si
  Si8      1.0000 0.83061  0.89555  0.13818  Biso   1.000  Si
  O1       1.0000 0.06654  0.46677  0.17690  Biso   1.000  O
  O2       1.0000 0.93346  0.46677  0.32310  Biso   1.000  O
  O3       1.0000 0.56654  0.96677  0.17690  Biso   1.000  O
  O4       1.0000 0.43346  0.96677  0.32310  Biso   1.000  O
  O5       1.0000 0.93346  0.53323  0.82310  Biso   1.000  O
  O6       1.0000 0.06654  0.53323  0.67690  Biso   1.000  O
  O7       1.0000 0.43346  0.03323  0.82310  Biso   1.000  O
  O8       1.0000 0.56654  0.03323  0.67690  Biso   1.000  O
  O9       1.0000 0.10205  0.54492  0.08980  Biso   1.000  O
  O10      1.0000 0.89795  0.54492  0.41020  Biso   1.000  O
  O11      1.0000 0.60205  0.04492  0.08980  Biso   1.000  O
  O12      1.0000 0.39795  0.04492  0.41020  Biso   1.000  O
  O13      1.0000 0.89795  0.45508  0.91020  Biso   1.000  O
  O14      1.0000 0.10205  0.45508  0.58980  Biso   1.000  O
  O15      1.0000 0.39795  0.95508  0.91020  Biso   1.000  O
  O16      1.0000 0.60205  0.95508  0.58980  Biso   1.000  O
  O17      1.0000 0.49397  0.86923  0.50970  Biso   1.000  O
  O18      1.0000 0.50603  0.86923  0.99030  Biso   1.000  O
  O19      1.0000 0.99397  0.36923  0.50970  Biso   1.000  O
  O20      1.0000 0.00603  0.36923  0.99030  Biso   1.000  O
  O21      1.0000 0.50603  0.13077  0.49030  Biso   1.000  O
  O22      1.0000 0.49397  0.13077  0.00970  Biso   1.000  O
  O23      1.0000 0.00603  0.63077  0.49030  Biso   1.000  O
  O24      1.0000 0.99397  0.63077  0.00970  Biso   1.000  O
  O25      1.0000 0.45711  0.94658  0.59480  Biso   1.000  O
  O26      1.0000 0.54289  0.94658  0.90520  Biso   1.000  O
  O27      1.0000 0.95711  0.44658  0.59480  Biso   1.000  O
  O28      1.0000 0.04289  0.44658  0.90520  Biso   1.000  O
  O29      1.0000 0.54289  0.05342  0.40520  Biso   1.000  O
  O30      1.0000 0.45711  0.05342  0.09480  Biso   1.000  O
  O31      1.0000 0.04289  0.55342  0.40520  Biso   1.000  O
  O32      1.0000 0.95711  0.55342  0.09480  Biso   1.000  O
  O33      1.0000 0.45392  0.12470  0.63920  Biso   1.000  O
  O34      1.0000 0.54608  0.12470  0.86080  Biso   1.000  O
  O35      1.0000 0.95392  0.62470  0.63920  Biso   1.000  O
  O36      1.0000 0.04608  0.62470  0.86080  Biso   1.000  O
  O37      1.0000 0.54608  0.87530  0.36080  Biso   1.000  O
  O38      1.0000 0.45392  0.87530  0.13920  Biso   1.000  O
  O39      1.0000 0.04608  0.37530  0.36080  Biso   1.000  O
  O40      1.0000 0.95392  0.37530  0.13920  Biso   1.000  O
  H1       1.0000 0.42750  0.15920  0.62200  Biso   1.000  H
  H2       1.0000 0.57250  0.15920  0.87800  Biso   1.000  H
  H3       1.0000 0.92750  0.65920  0.62200  Biso   1.000  H
  H4       1.0000 0.07250  0.65920  0.87800  Biso   1.000  H
  H5       1.0000 0.57250  0.84080  0.37800  Biso   1.000  H
  H6       1.0000 0.42750  0.84080  0.12200  Biso   1.000  H
  H7       1.0000 0.07250  0.34080  0.37800  Biso   1.000  H
  H8       1.0000 0.92750  0.34080  0.12200  Biso   1.000  H
  H9       1.0000 0.44950  0.10700  0.69060  Biso   1.000  H
  H10      1.0000 0.55050  0.10700  0.80940  Biso   1.000  H
  H11      1.0000 0.94950  0.60700  0.69060  Biso   1.000  H
  H12      1.0000 0.05050  0.60700  0.80940  Biso   1.000  H
  H13      1.0000 0.55050  0.89300  0.30940  Biso   1.000  H
  H14      1.0000 0.44950  0.89300  0.19060  Biso   1.000  H
  H15      1.0000 0.05050  0.39300  0.30940  Biso   1.000  H
  H16      1.0000 0.94950  0.39300  0.19060  Biso   1.000  H
  C1       1.0000 0.16856  0.50430  0.38560  Biso   1.000  C
  C2       1.0000 0.83144  0.50430  0.11440  Biso   1.000  C
  C3       1.0000 0.66856  0.00430  0.38560  Biso   1.000  C
  C4       1.0000 0.33144  0.00430  0.11440  Biso   1.000  C
  C5       1.0000 0.83144  0.49570  0.61440  Biso   1.000  C
  C6       1.0000 0.16856  0.49570  0.88560  Biso   1.000  C
  C7       1.0000 0.33144  0.99570  0.61440  Biso   1.000  C
  C8       1.0000 0.66856  0.99570  0.88560  Biso   1.000  C
  H17      1.0000 0.13640  0.47430  0.38350  Biso   1.000  H
  H18      1.0000 0.86360  0.47430  0.11650  Biso   1.000  H
  H19      1.0000 0.63640  0.97430  0.38350  Biso   1.000  H
  H20      1.0000 0.36360  0.97430  0.11650  Biso   1.000  H
  H21      1.0000 0.86360  0.52570  0.61650  Biso   1.000  H
  H22      1.0000 0.13640  0.52570  0.88350  Biso   1.000  H
  H23      1.0000 0.36360  0.02570  0.61650  Biso   1.000  H
  H24      1.0000 0.63640  0.02570  0.88350  Biso   1.000  H
  C9       1.0000 0.43878  0.81240  0.59320  Biso   1.000  C
  C10      1.0000 0.56122  0.81240  0.90680  Biso   1.000  C
  C11      1.0000 0.93878  0.31240  0.59320  Biso   1.000  C
  C12      1.0000 0.06122  0.31240  0.90680  Biso   1.000  C
  C13      1.0000 0.56122  0.18760  0.40680  Biso   1.000  C
  C14      1.0000 0.43878  0.18760  0.09320  Biso   1.000  C
  C15      1.0000 0.06122  0.68760  0.40680  Biso   1.000  C
  C16      1.0000 0.93878  0.68760  0.09320  Biso   1.000  C
  C17      1.0000 0.46611  0.88110  0.56480  Biso   1.000  C
  C18      1.0000 0.53389  0.88110  0.93520  Biso   1.000  C
  C19      1.0000 0.96611  0.38110  0.56480  Biso   1.000  C
  C20      1.0000 0.03389  0.38110  0.93520  Biso   1.000  C
  C21      1.0000 0.53389  0.11890  0.43520  Biso   1.000  C
  C22      1.0000 0.46611  0.11890  0.06480  Biso   1.000  C
  C23      1.0000 0.03389  0.61890  0.43520  Biso   1.000  C
  C24      1.0000 0.96611  0.61890  0.06480  Biso   1.000  C
  C25      1.0000 0.38418  0.52180  0.71440  Biso   1.000  C
  C26      1.0000 0.61582  0.52180  0.78560  Biso   1.000  C
  C27      1.0000 0.88418  0.02180  0.71440  Biso   1.000  C
  C28      1.0000 0.11582  0.02180  0.78560  Biso   1.000  C
  C29      1.0000 0.61582  0.47820  0.28560  Biso   1.000  C
  C30      1.0000 0.38418  0.47820  0.21440  Biso   1.000  C
  C31      1.0000 0.11582  0.97820  0.28560  Biso   1.000  C
  C32      1.0000 0.88418  0.97820  0.21440  Biso   1.000  C
  C33      1.0000 0.31620  0.61290  0.83150  Biso   1.000  C
  C34      1.0000 0.68380  0.61290  0.66850  Biso   1.000  C
  C35      1.0000 0.81620  0.11290  0.83150  Biso   1.000  C
  C36      1.0000 0.18380  0.11290  0.66850  Biso   1.000  C
  C37      1.0000 0.68380  0.38710  0.16850  Biso   1.000  C
  C38      1.0000 0.31620  0.38710  0.33150  Biso   1.000  C
  C39      1.0000 0.18380  0.88710  0.16850  Biso   1.000  C
  C40      1.0000 0.81620  0.88710  0.33150  Biso   1.000  C
  H25      1.0000 0.35430  0.58650  0.86660  Biso   1.000  H
  H26      1.0000 0.64570  0.58650  0.63340  Biso   1.000  H
  H27      1.0000 0.85430  0.08650  0.86660  Biso   1.000  H
  H28      1.0000 0.14570  0.08650  0.63340  Biso   1.000  H
  H29      1.0000 0.64570  0.41350  0.13340  Biso   1.000  H
  H30      1.0000 0.35430  0.41350  0.36660  Biso   1.000  H
  H31      1.0000 0.14570  0.91350  0.13340  Biso   1.000  H
  H32      1.0000 0.85430  0.91350  0.36660  Biso   1.000  H
  C41      1.0000 0.21600  0.56690  0.29130  Biso   1.000  C
  C42      1.0000 0.78400  0.56690  0.20870  Biso   1.000  C
  C43      1.0000 0.71600  0.06690  0.29130  Biso   1.000  C
  C44      1.0000 0.28400  0.06690  0.20870  Biso   1.000  C
  C45      1.0000 0.78400  0.43310  0.70870  Biso   1.000  C
  C46      1.0000 0.21600  0.43310  0.79130  Biso   1.000  C
  C47      1.0000 0.28400  0.93310  0.70870  Biso   1.000  C
  C48      1.0000 0.71600  0.93310  0.79130  Biso   1.000  C
  H33      1.0000 0.21620  0.57980  0.22550  Biso   1.000  H
  H34      1.0000 0.78380  0.57980  0.27450  Biso   1.000  H
  H35      1.0000 0.71620  0.07980  0.22550  Biso   1.000  H
  H36      1.0000 0.28380  0.07980  0.27450  Biso   1.000  H
  H37      1.0000 0.78380  0.42020  0.77450  Biso   1.000  H
  H38      1.0000 0.21620  0.42020  0.72550  Biso   1.000  H
  H39      1.0000 0.28380  0.92020  0.77450  Biso   1.000  H
  H40      1.0000 0.71620  0.92020  0.72550  Biso   1.000  H
  C49      1.0000 0.37340  0.76040  0.66290  Biso   1.000  C
  C50      1.0000 0.62660  0.76040  0.83710  Biso   1.000  C
  C51      1.0000 0.87340  0.26040  0.66290  Biso   1.000  C
  C52      1.0000 0.12660  0.26040  0.83710  Biso   1.000  C
  C53      1.0000 0.62660  0.23960  0.33710  Biso   1.000  C
  C54      1.0000 0.37340  0.23960  0.16290  Biso   1.000  C
  C55      1.0000 0.12660  0.73960  0.33710  Biso   1.000  C
  C56      1.0000 0.87340  0.73960  0.16290  Biso   1.000  C
  H41      1.0000 0.34980  0.76870  0.69830  Biso   1.000  H
  H42      1.0000 0.65020  0.76870  0.80170  Biso   1.000  H
  H43      1.0000 0.84980  0.26870  0.69830  Biso   1.000  H
  H44      1.0000 0.15020  0.26870  0.80170  Biso   1.000  H
  H45      1.0000 0.65020  0.23130  0.30170  Biso   1.000  H
  H46      1.0000 0.34980  0.23130  0.19830  Biso   1.000  H
  H47      1.0000 0.15020  0.73130  0.30170  Biso   1.000  H
  H48      1.0000 0.84980  0.73130  0.19830  Biso   1.000  H
  C57      1.0000 0.26550  0.58990  0.39430  Biso   1.000  C
  C58      1.0000 0.73450  0.58990  0.10570  Biso   1.000  C
  C59      1.0000 0.76550  0.08990  0.39430  Biso   1.000  C
  C60      1.0000 0.23450  0.08990  0.10570  Biso   1.000  C
  C61      1.0000 0.73450  0.41010  0.60570  Biso   1.000  C
  C62      1.0000 0.26550  0.41010  0.89430  Biso   1.000  C
  C63      1.0000 0.23450  0.91010  0.60570  Biso   1.000  C
  C64      1.0000 0.76550  0.91010  0.89430  Biso   1.000  C
  H49      1.0000 0.29820  0.61850  0.39600  Biso   1.000  H
  H50      1.0000 0.70180  0.61850  0.10400  Biso   1.000  H
  H51      1.0000 0.79820  0.11850  0.39600  Biso   1.000  H
  H52      1.0000 0.20180  0.11850  0.10400  Biso   1.000  H
  H53      1.0000 0.70180  0.38150  0.60400  Biso   1.000  H
  H54      1.0000 0.29820  0.38150  0.89600  Biso   1.000  H
  H55      1.0000 0.20180  0.88150  0.60400  Biso   1.000  H
  H56      1.0000 0.79820  0.88150  0.89600  Biso   1.000  H
  C65      1.0000 0.37694  0.68660  0.62660  Biso   1.000  C
  C66      1.0000 0.62306  0.68660  0.87340  Biso   1.000  C
  C67      1.0000 0.87694  0.18660  0.62660  Biso   1.000  C
  C68      1.0000 0.12306  0.18660  0.87340  Biso   1.000  C
  C69      1.0000 0.62306  0.31340  0.37340  Biso   1.000  C
  C70      1.0000 0.37694  0.31340  0.12660  Biso   1.000  C
  C71      1.0000 0.12306  0.81340  0.37340  Biso   1.000  C
  C72      1.0000 0.87694  0.81340  0.12660  Biso   1.000  C
  O41      1.0000 0.22543  0.66858  0.01160  Biso   1.000  O
  O42      1.0000 0.77457  0.66858  0.48840  Biso   1.000  O
  O43      1.0000 0.72543  0.16858  0.01160  Biso   1.000  O
  O44      1.0000 0.27457  0.16858  0.48840  Biso   1.000  O
  O45      1.0000 0.77457  0.33142  0.98840  Biso   1.000  O
  O46      1.0000 0.22543  0.33142  0.51160  Biso   1.000  O
  O47      1.0000 0.27457  0.83142  0.98840  Biso   1.000  O
  O48      1.0000 0.72543  0.83142  0.51160  Biso   1.000  O
  H57      1.0000 0.20320  0.67950  0.03900  Biso   1.000  H
  H58      1.0000 0.79680  0.67950  0.46100  Biso   1.000  H
  H59      1.0000 0.70320  0.17950  0.03900  Biso   1.000  H
  H60      1.0000 0.29680  0.17950  0.46100  Biso   1.000  H
  H61      1.0000 0.79680  0.32050  0.96100  Biso   1.000  H
  H62      1.0000 0.20320  0.32050  0.53900  Biso   1.000  H
  H63      1.0000 0.29680  0.82050  0.96100  Biso   1.000  H
  H64      1.0000 0.70320  0.82050  0.53900  Biso   1.000  H
  C73      1.0000 0.16648  0.52520  0.28580  Biso   1.000  C
  C74      1.0000 0.83352  0.52520  0.21420  Biso   1.000  C
  C75      1.0000 0.66648  0.02520  0.28580  Biso   1.000  C
  C76      1.0000 0.33352  0.02520  0.21420  Biso   1.000  C
  C77      1.0000 0.83352  0.47480  0.71420  Biso   1.000  C
  C78      1.0000 0.16648  0.47480  0.78580  Biso   1.000  C
  C79      1.0000 0.33352  0.97480  0.71420  Biso   1.000  C
  C80      1.0000 0.66648  0.97480  0.78580  Biso   1.000  C
  C81      1.0000 0.10779  0.51000  0.17640  Biso   1.000  C
  C82      1.0000 0.89221  0.51000  0.32360  Biso   1.000  C
  C83      1.0000 0.60779  0.01000  0.17640  Biso   1.000  C
  C84      1.0000 0.39221  0.01000  0.32360  Biso   1.000  C
  C85      1.0000 0.89221  0.49000  0.82360  Biso   1.000  C
  C86      1.0000 0.10779  0.49000  0.67640  Biso   1.000  C
  C87      1.0000 0.39221  0.99000  0.82360  Biso   1.000  C
  C88      1.0000 0.60779  0.99000  0.67640  Biso   1.000  C
  O49      1.0000 0.14112  0.70800  0.85590  Biso   1.000  O
  O50      1.0000 0.85888  0.70800  0.64410  Biso   1.000  O
  O51      1.0000 0.64112  0.20800  0.85590  Biso   1.000  O
  O52      1.0000 0.35888  0.20800  0.64410  Biso   1.000  O
  O53      1.0000 0.85888  0.29200  0.14410  Biso   1.000  O
  O54      1.0000 0.14112  0.29200  0.35590  Biso   1.000  O
  O55      1.0000 0.35888  0.79200  0.14410  Biso   1.000  O
  O56      1.0000 0.64112  0.79200  0.35590  Biso   1.000  O
  C89      1.0000 0.46050  0.39570  0.82980  Biso   1.000  C
  C90      1.0000 0.53950  0.39570  0.67020  Biso   1.000  C
  C91      1.0000 0.96050  0.89570  0.82980  Biso   1.000  C
  C92      1.0000 0.03950  0.89570  0.67020  Biso   1.000  C
  C93      1.0000 0.53950  0.60430  0.17020  Biso   1.000  C
  C94      1.0000 0.46050  0.60430  0.32980  Biso   1.000  C
  C95      1.0000 0.03950  0.10430  0.17020  Biso   1.000  C
  C96      1.0000 0.96050  0.10430  0.32980  Biso   1.000  C
  C97      1.0000 0.26770  0.57140  0.49520  Biso   1.000  C
  C98      1.0000 0.73230  0.57140  0.00480  Biso   1.000  C
  C99      1.0000 0.76770  0.07140  0.49520  Biso   1.000  C
  C100     1.0000 0.23230  0.07140  0.00480  Biso   1.000  C
  C101     1.0000 0.73230  0.42860  0.50480  Biso   1.000  C
  C102     1.0000 0.26770  0.42860  0.99520  Biso   1.000  C
  C103     1.0000 0.23230  0.92860  0.50480  Biso   1.000  C
  C104     1.0000 0.76770  0.92860  0.99520  Biso   1.000  C
  C105     1.0000 0.40450  0.82170  0.64710  Biso   1.000  C
  C106     1.0000 0.59550  0.82170  0.85290  Biso   1.000  C
  C107     1.0000 0.90450  0.32170  0.64710  Biso   1.000  C
  C108     1.0000 0.09550  0.32170  0.85290  Biso   1.000  C
  C109     1.0000 0.59550  0.17830  0.35290  Biso   1.000  C
  C110     1.0000 0.40450  0.17830  0.14710  Biso   1.000  C
  C111     1.0000 0.09550  0.67830  0.35290  Biso   1.000  C
  C112     1.0000 0.90450  0.67830  0.14710  Biso   1.000  C
  H65      1.0000 0.40210  0.87030  0.67370  Biso   1.000  H
  H66      1.0000 0.59790  0.87030  0.82630  Biso   1.000  H
  H67      1.0000 0.90210  0.37030  0.67370  Biso   1.000  H
  H68      1.0000 0.09790  0.37030  0.82630  Biso   1.000  H
  H69      1.0000 0.59790  0.12970  0.32630  Biso   1.000  H
  H70      1.0000 0.40210  0.12970  0.17370  Biso   1.000  H
  H71      1.0000 0.09790  0.62970  0.32630  Biso   1.000  H
  H72      1.0000 0.90210  0.62970  0.17370  Biso   1.000  H
  C113     1.0000 0.22940  0.66750  0.84220  Biso   1.000  C
  C114     1.0000 0.77060  0.66750  0.65780  Biso   1.000  C
  C115     1.0000 0.72940  0.16750  0.84220  Biso   1.000  C
  C116     1.0000 0.27060  0.16750  0.65780  Biso   1.000  C
  C117     1.0000 0.77060  0.33250  0.15780  Biso   1.000  C
  C118     1.0000 0.22940  0.33250  0.34220  Biso   1.000  C
  C119     1.0000 0.27060  0.83250  0.15780  Biso   1.000  C
  C120     1.0000 0.72940  0.83250  0.34220  Biso   1.000  C
  C121     1.0000 0.44560  0.53180  0.80100  Biso   1.000  C
  C122     1.0000 0.55440  0.53180  0.69900  Biso   1.000  C
  C123     1.0000 0.94560  0.03180  0.80100  Biso   1.000  C
  C124     1.0000 0.05440  0.03180  0.69900  Biso   1.000  C
  C125     1.0000 0.55440  0.46820  0.19900  Biso   1.000  C
  C126     1.0000 0.44560  0.46820  0.30100  Biso   1.000  C
  C127     1.0000 0.05440  0.96820  0.19900  Biso   1.000  C
  C128     1.0000 0.94560  0.96820  0.30100  Biso   1.000  C
  H73      1.0000 0.46160  0.58160  0.82060  Biso   1.000  H
  H74      1.0000 0.53840  0.58160  0.67940  Biso   1.000  H
  H75      1.0000 0.96160  0.08160  0.82060  Biso   1.000  H
  H76      1.0000 0.03840  0.08160  0.67940  Biso   1.000  H
  H77      1.0000 0.53840  0.41840  0.17940  Biso   1.000  H
  H78      1.0000 0.46160  0.41840  0.32060  Biso   1.000  H
  H79      1.0000 0.03840  0.91840  0.17940  Biso   1.000  H
  H80      1.0000 0.96160  0.91840  0.32060  Biso   1.000  H
  C129     1.0000 0.48390  0.46970  0.85920  Biso   1.000  C
  C130     1.0000 0.51610  0.46970  0.64080  Biso   1.000  C
  C131     1.0000 0.98390  0.96970  0.85920  Biso   1.000  C
  C132     1.0000 0.01610  0.96970  0.64080  Biso   1.000  C
  C133     1.0000 0.51610  0.53030  0.14080  Biso   1.000  C
  C134     1.0000 0.48390  0.53030  0.35920  Biso   1.000  C
  C135     1.0000 0.01610  0.03030  0.14080  Biso   1.000  C
  C136     1.0000 0.98390  0.03030  0.35920  Biso   1.000  C
  H81      1.0000 0.52470  0.47790  0.91730  Biso   1.000  H
  H82      1.0000 0.47530  0.47790  0.58270  Biso   1.000  H
  H83      1.0000 0.02470  0.97790  0.91730  Biso   1.000  H
  H84      1.0000 0.97530  0.97790  0.58270  Biso   1.000  H
  H85      1.0000 0.47530  0.52210  0.08270  Biso   1.000  H
  H86      1.0000 0.52470  0.52210  0.41730  Biso   1.000  H
  H87      1.0000 0.97530  0.02210  0.08270  Biso   1.000  H
  H88      1.0000 0.02470  0.02210  0.41730  Biso   1.000  H
  C137     1.0000 0.36150  0.44640  0.69080  Biso   1.000  C
  C138     1.0000 0.63850  0.44640  0.80920  Biso   1.000  C
  C139     1.0000 0.86150  0.94640  0.69080  Biso   1.000  C
  C140     1.0000 0.13850  0.94640  0.80920  Biso   1.000  C
  C141     1.0000 0.63850  0.55360  0.30920  Biso   1.000  C
  C142     1.0000 0.36150  0.55360  0.19080  Biso   1.000  C
  C143     1.0000 0.13850  0.05360  0.30920  Biso   1.000  C
  C144     1.0000 0.86150  0.05360  0.19080  Biso   1.000  C
  H89      1.0000 0.31980  0.43790  0.63650  Biso   1.000  H
  H90      1.0000 0.68020  0.43790  0.86350  Biso   1.000  H
  H91      1.0000 0.81980  0.93790  0.63650  Biso   1.000  H
  H92      1.0000 0.18020  0.93790  0.86350  Biso   1.000  H
  H93      1.0000 0.68020  0.56210  0.36350  Biso   1.000  H
  H94      1.0000 0.31980  0.56210  0.13650  Biso   1.000  H
  H95      1.0000 0.18020  0.06210  0.36350  Biso   1.000  H
  H96      1.0000 0.81980  0.06210  0.13650  Biso   1.000  H
  C145     1.0000 0.29040  0.63270  0.71920  Biso   1.000  C
  C146     1.0000 0.70960  0.63270  0.78080  Biso   1.000  C
  C147     1.0000 0.79040  0.13270  0.71920  Biso   1.000  C
  C148     1.0000 0.20960  0.13270  0.78080  Biso   1.000  C
  C149     1.0000 0.70960  0.36730  0.28080  Biso   1.000  C
  C150     1.0000 0.29040  0.36730  0.21920  Biso   1.000  C
  C151     1.0000 0.20960  0.86730  0.28080  Biso   1.000  C
  C152     1.0000 0.79040  0.86730  0.21920  Biso   1.000  C
  C153     1.0000 0.39920  0.38430  0.74600  Biso   1.000  C
  C154     1.0000 0.60080  0.38430  0.75400  Biso   1.000  C
  C155     1.0000 0.89920  0.88430  0.74600  Biso   1.000  C
  C156     1.0000 0.10080  0.88430  0.75400  Biso   1.000  C
  C157     1.0000 0.60080  0.61570  0.25400  Biso   1.000  C
  C158     1.0000 0.39920  0.61570  0.24600  Biso   1.000  C
  C159     1.0000 0.10080  0.11570  0.25400  Biso   1.000  C
  C160     1.0000 0.89920  0.11570  0.24600  Biso   1.000  C
  H97      1.0000 0.38330  0.33440  0.72670  Biso   1.000  H
  H98      1.0000 0.61670  0.33440  0.77330  Biso   1.000  H
  H99      1.0000 0.88330  0.83440  0.72670  Biso   1.000  H
  H100     1.0000 0.11670  0.83440  0.77330  Biso   1.000  H
  H101     1.0000 0.61670  0.66560  0.27330  Biso   1.000  H
  H102     1.0000 0.38330  0.66560  0.22670  Biso   1.000  H
  H103     1.0000 0.11670  0.16560  0.27330  Biso   1.000  H
  H104     1.0000 0.88330  0.16560  0.22670  Biso   1.000  H
  O57      1.0000 0.55355  0.33470  0.97040  Biso   1.000  O
  O58      1.0000 0.44645  0.33470  0.52960  Biso   1.000  O
  O59      1.0000 0.05355  0.83470  0.97040  Biso   1.000  O
  O60      1.0000 0.94645  0.83470  0.52960  Biso   1.000  O
  O61      1.0000 0.44645  0.66530  0.02960  Biso   1.000  O
  O62      1.0000 0.55355  0.66530  0.47040  Biso   1.000  O
  O63      1.0000 0.94645  0.16530  0.02960  Biso   1.000  O
  O64      1.0000 0.05355  0.16530  0.47040  Biso   1.000  O
  C161     1.0000 0.21790  0.52750  0.48780  Biso   1.000  C
  C162     1.0000 0.78210  0.52750  0.01220  Biso   1.000  C
  C163     1.0000 0.71790  0.02750  0.48780  Biso   1.000  C
  C164     1.0000 0.28210  0.02750  0.01220  Biso   1.000  C
  C165     1.0000 0.78210  0.47250  0.51220  Biso   1.000  C
  C166     1.0000 0.21790  0.47250  0.98780  Biso   1.000  C
  C167     1.0000 0.28210  0.97250  0.51220  Biso   1.000  C
  C168     1.0000 0.71790  0.97250  0.98780  Biso   1.000  C
  H105     1.0000 0.21790  0.51350  0.55340  Biso   1.000  H
  H106     1.0000 0.78210  0.51350  0.94660  Biso   1.000  H
  H107     1.0000 0.71790  0.01350  0.55340  Biso   1.000  H
  H108     1.0000 0.28210  0.01350  0.94660  Biso   1.000  H
  H109     1.0000 0.78210  0.48650  0.44660  Biso   1.000  H
  H110     1.0000 0.21790  0.48650  0.05340  Biso   1.000  H
  H111     1.0000 0.28210  0.98650  0.44660  Biso   1.000  H
  H112     1.0000 0.71790  0.98650  0.05340  Biso   1.000  H
  C169     1.0000 0.44500  0.73950  0.56220  Biso   1.000  C
  C170     1.0000 0.55500  0.73950  0.93780  Biso   1.000  C
  C171     1.0000 0.94500  0.23950  0.56220  Biso   1.000  C
  C172     1.0000 0.05500  0.23950  0.93780  Biso   1.000  C
  C173     1.0000 0.55500  0.26050  0.43780  Biso   1.000  C
  C174     1.0000 0.44500  0.26050  0.06220  Biso   1.000  C
  C175     1.0000 0.05500  0.76050  0.43780  Biso   1.000  C
  C176     1.0000 0.94500  0.76050  0.06220  Biso   1.000  C
  H113     1.0000 0.47010  0.73120  0.52960  Biso   1.000  H
  H114     1.0000 0.52990  0.73120  0.97040  Biso   1.000  H
  H115     1.0000 0.97010  0.23120  0.52960  Biso   1.000  H
  H116     1.0000 0.02990  0.23120  0.97040  Biso   1.000  H
  H117     1.0000 0.52990  0.26880  0.47040  Biso   1.000  H
  H118     1.0000 0.47010  0.26880  0.02960  Biso   1.000  H
  H119     1.0000 0.02990  0.76880  0.47040  Biso   1.000  H
  H120     1.0000 0.97010  0.76880  0.02960  Biso   1.000  H
  C177     1.0000 0.41450  0.67770  0.57880  Biso   1.000  C
  C178     1.0000 0.58550  0.67770  0.92120  Biso   1.000  C
  C179     1.0000 0.91450  0.17770  0.57880  Biso   1.000  C
  C180     1.0000 0.08550  0.17770  0.92120  Biso   1.000  C
  C181     1.0000 0.58550  0.32230  0.42120  Biso   1.000  C
  C182     1.0000 0.41450  0.32230  0.07880  Biso   1.000  C
  C183     1.0000 0.08550  0.82230  0.42120  Biso   1.000  C
  C184     1.0000 0.91450  0.82230  0.07880  Biso   1.000  C
  H121     1.0000 0.41970  0.62860  0.55690  Biso   1.000  H
  H122     1.0000 0.58030  0.62860  0.94310  Biso   1.000  H
  H123     1.0000 0.91970  0.12860  0.55690  Biso   1.000  H
  H124     1.0000 0.08030  0.12860  0.94310  Biso   1.000  H
  H125     1.0000 0.58030  0.37140  0.44310  Biso   1.000  H
  H126     1.0000 0.41970  0.37140  0.05690  Biso   1.000  H
  H127     1.0000 0.08030  0.87140  0.44310  Biso   1.000  H
  H128     1.0000 0.91970  0.87140  0.05690  Biso   1.000  H
  C185     1.0000 0.23290  0.67110  0.67110  Biso   1.000  C
  C186     1.0000 0.76710  0.67110  0.82890  Biso   1.000  C
  C187     1.0000 0.73290  0.17110  0.67110  Biso   1.000  C
  C188     1.0000 0.26710  0.17110  0.82890  Biso   1.000  C
  C189     1.0000 0.76710  0.32890  0.32890  Biso   1.000  C
  C190     1.0000 0.23290  0.32890  0.17110  Biso   1.000  C
  C191     1.0000 0.26710  0.82890  0.32890  Biso   1.000  C
  C192     1.0000 0.73290  0.82890  0.17110  Biso   1.000  C
  H129     1.0000 0.21420  0.68600  0.59620  Biso   1.000  H
  H130     1.0000 0.78580  0.68600  0.90380  Biso   1.000  H
  H131     1.0000 0.71420  0.18600  0.59620  Biso   1.000  H
  H132     1.0000 0.28580  0.18600  0.90380  Biso   1.000  H
  H133     1.0000 0.78580  0.31400  0.40380  Biso   1.000  H
  H134     1.0000 0.21420  0.31400  0.09620  Biso   1.000  H
  H135     1.0000 0.28580  0.81400  0.40380  Biso   1.000  H
  H136     1.0000 0.71420  0.81400  0.09620  Biso   1.000  H
  C193     1.0000 0.50270  0.32810  0.88700  Biso   1.000  C
  C194     1.0000 0.49730  0.32810  0.61300  Biso   1.000  C
  C195     1.0000 0.00270  0.82810  0.88700  Biso   1.000  C
  C196     1.0000 0.99730  0.82810  0.61300  Biso   1.000  C
  C197     1.0000 0.49730  0.67190  0.11300  Biso   1.000  C
  C198     1.0000 0.50270  0.67190  0.38700  Biso   1.000  C
  C199     1.0000 0.99730  0.17190  0.11300  Biso   1.000  C
  C200     1.0000 0.00270  0.17190  0.38700  Biso   1.000  C
  C201     1.0000 0.28680  0.63150  0.89320  Biso   1.000  C
  C202     1.0000 0.71320  0.63150  0.60680  Biso   1.000  C
  C203     1.0000 0.78680  0.13150  0.89320  Biso   1.000  C
  C204     1.0000 0.21320  0.13150  0.60680  Biso   1.000  C
  C205     1.0000 0.71320  0.36850  0.10680  Biso   1.000  C
  C206     1.0000 0.28680  0.36850  0.39320  Biso   1.000  C
  C207     1.0000 0.21320  0.86850  0.10680  Biso   1.000  C
  C208     1.0000 0.78680  0.86850  0.39320  Biso   1.000  C
  H137     1.0000 0.30620  0.61950  0.96930  Biso   1.000  H
  H138     1.0000 0.69380  0.61950  0.53070  Biso   1.000  H
  H139     1.0000 0.80620  0.11950  0.96930  Biso   1.000  H
  H140     1.0000 0.19380  0.11950  0.53070  Biso   1.000  H
  H141     1.0000 0.69380  0.38050  0.03070  Biso   1.000  H
  H142     1.0000 0.30620  0.38050  0.46930  Biso   1.000  H
  H143     1.0000 0.19380  0.88050  0.03070  Biso   1.000  H
  H144     1.0000 0.80620  0.88050  0.46930  Biso   1.000  H
  O65      1.0000 0.47720  0.26230  0.84590  Biso   1.000  O
  O66      1.0000 0.52280  0.26230  0.65410  Biso   1.000  O
  O67      1.0000 0.97720  0.76230  0.84590  Biso   1.000  O
  O68      1.0000 0.02280  0.76230  0.65410  Biso   1.000  O
  O69      1.0000 0.52280  0.73770  0.15410  Biso   1.000  O
  O70      1.0000 0.47720  0.73770  0.34590  Biso   1.000  O
  O71      1.0000 0.02280  0.23770  0.15410  Biso   1.000  O
  O72      1.0000 0.97720  0.23770  0.34590  Biso   1.000  O
  H145     1.0000 0.50230  0.22770  0.88040  Biso   1.000  H
  H146     1.0000 0.49770  0.22770  0.61960  Biso   1.000  H
  H147     1.0000 0.00230  0.72770  0.88040  Biso   1.000  H
  H148     1.0000 0.99770  0.72770  0.61960  Biso   1.000  H
  H149     1.0000 0.49770  0.77230  0.11960  Biso   1.000  H
  H150     1.0000 0.50230  0.77230  0.38040  Biso   1.000  H
  H151     1.0000 0.99770  0.27230  0.11960  Biso   1.000  H
  H152     1.0000 0.00230  0.27230  0.38040  Biso   1.000  H
  C209     1.0000 0.19480  0.68400  0.90310  Biso   1.000  C
  C210     1.0000 0.80520  0.68400  0.59690  Biso   1.000  C
  C211     1.0000 0.69480  0.18400  0.90310  Biso   1.000  C
  C212     1.0000 0.30520  0.18400  0.59690  Biso   1.000  C
  C213     1.0000 0.80520  0.31600  0.09690  Biso   1.000  C
  C214     1.0000 0.19480  0.31600  0.40310  Biso   1.000  C
  C215     1.0000 0.30520  0.81600  0.09690  Biso   1.000  C
  C216     1.0000 0.69480  0.81600  0.40310  Biso   1.000  C
  C217     1.0000 0.20280  0.68790  0.73170  Biso   1.000  C
  C218     1.0000 0.79720  0.68790  0.76830  Biso   1.000  C
  C219     1.0000 0.70280  0.18790  0.73170  Biso   1.000  C
  C220     1.0000 0.29720  0.18790  0.76830  Biso   1.000  C
  C221     1.0000 0.79720  0.31210  0.26830  Biso   1.000  C
  C222     1.0000 0.20280  0.31210  0.23170  Biso   1.000  C
  C223     1.0000 0.29720  0.81210  0.26830  Biso   1.000  C
  C224     1.0000 0.70280  0.81210  0.23170  Biso   1.000  C
  H153     1.0000 0.16420  0.71320  0.69690  Biso   1.000  H
  H154     1.0000 0.83580  0.71320  0.80310  Biso   1.000  H
  H155     1.0000 0.66420  0.21320  0.69690  Biso   1.000  H
  H156     1.0000 0.33580  0.21320  0.80310  Biso   1.000  H
  H157     1.0000 0.83580  0.28680  0.30310  Biso   1.000  H
  H158     1.0000 0.16420  0.28680  0.19690  Biso   1.000  H
  H159     1.0000 0.33580  0.78680  0.30310  Biso   1.000  H
  H160     1.0000 0.66420  0.78680  0.19690  Biso   1.000  H
  O73      1.0000 0.14143  0.70500  0.08330  Biso   1.000  O
  O74      1.0000 0.85857  0.70500  0.41670  Biso   1.000  O
  O75      1.0000 0.64143  0.20500  0.08330  Biso   1.000  O
  O76      1.0000 0.35857  0.20500  0.41670  Biso   1.000  O
  O77      1.0000 0.85857  0.29500  0.91670  Biso   1.000  O
  O78      1.0000 0.14143  0.29500  0.58330  Biso   1.000  O
  O79      1.0000 0.35857  0.79500  0.91670  Biso   1.000  O
  O80      1.0000 0.64143  0.79500  0.58330  Biso   1.000  O
  H161     1.0000 0.11150  0.73200  0.07800  Biso   1.000  H
  H162     1.0000 0.88850  0.73200  0.42200  Biso   1.000  H
  H163     1.0000 0.61150  0.23200  0.07800  Biso   1.000  H
  H164     1.0000 0.38850  0.23200  0.42200  Biso   1.000  H
  H165     1.0000 0.88850  0.26800  0.92200  Biso   1.000  H
  H166     1.0000 0.11150  0.26800  0.57800  Biso   1.000  H
  H167     1.0000 0.38850  0.76800  0.92200  Biso   1.000  H
  H168     1.0000 0.61150  0.76800  0.57800  Biso   1.000  H
  H169     1.0000 0.12600  0.66560  0.09700  Biso   1.000  H
  H170     1.0000 0.87400  0.66560  0.40300  Biso   1.000  H
  H171     1.0000 0.62600  0.16560  0.09700  Biso   1.000  H
  H172     1.0000 0.37400  0.16560  0.40300  Biso   1.000  H
  H173     1.0000 0.87400  0.33440  0.90300  Biso   1.000  H
  H174     1.0000 0.12600  0.33440  0.59700  Biso   1.000  H
  H175     1.0000 0.37400  0.83440  0.90300  Biso   1.000  H
  H176     1.0000 0.62600  0.83440  0.59700  Biso   1.000  H
