data_image0
_cell_length_a       8.728
_cell_length_b       10.0176
_cell_length_c       11.8926
_cell_angle_alpha    107.991
_cell_angle_beta     97.109
_cell_angle_gamma    115.542

_symmetry_space_group_name_H-M    "P 1"
_symmetry_int_tables_number       1

loop_
  _symmetry_equiv_pos_as_xyz
  'x, y, z'

loop_
  _atom_site_label
  _atom_site_occupancy
  _atom_site_fract_x
  _atom_site_fract_y
  _atom_site_fract_z
  _atom_site_thermal_displace_type
  _atom_site_B_iso_or_equiv
  _atom_site_type_symbol
  Cu1      1.0000 0.00000  0.50000  0.00000  Biso   1.000  Cu
  O1       1.0000 0.23885  0.43505  0.03957  Biso   1.000  O
  O2       1.0000 0.76115  0.56495  0.96043  Biso   1.000  O
  O3       1.0000 0.46466  0.55355  0.20355  Biso   1.000  O
  O4       1.0000 0.53534  0.44645  0.79645  Biso   1.000  O
  O5       1.0000 0.41674  0.33916  0.05192  Biso   1.000  O
  O6       1.0000 0.58326  0.66084  0.94808  Biso   1.000  O
  N1       1.0000 0.18551  0.73738  0.05276  Biso   1.000  N
  N2       1.0000 0.81449  0.26262  0.94724  Biso   1.000  N
  N3       1.0000 0.01092  0.44995  0.82393  Biso   1.000  N
  N4       1.0000 0.98908  0.55005  0.17607  Biso   1.000  N
  N5       1.0000 0.37522  0.44218  0.09912  Biso   1.000  N
  N6       1.0000 0.62478  0.55782  0.90088  Biso   1.000  N
  C1       1.0000 0.13320  0.84110  0.03856  Biso   1.000  C
  C2       1.0000 0.86680  0.15890  0.96144  Biso   1.000  C
  H1       1.0000 0.01020  0.80110  0.00310  Biso   1.000  H
  H2       1.0000 0.98980  0.19890  0.99690  Biso   1.000  H
  C3       1.0000 0.25120  0.00350  0.07349  Biso   1.000  C
  C4       1.0000 0.74880  0.99650  0.92651  Biso   1.000  C
  H3       1.0000 0.21000  0.07250  0.05990  Biso   1.000  H
  H4       1.0000 0.79000  0.92750  0.94010  Biso   1.000  H
  C5       1.0000 0.42960  0.06430  0.12831  Biso   1.000  C
  C6       1.0000 0.57040  0.93570  0.87169  Biso   1.000  C
  H5       1.0000 0.51250  0.17600  0.15430  Biso   1.000  H
  H6       1.0000 0.48750  0.82400  0.84570  Biso   1.000  H
  C7       1.0000 0.48610  0.95922  0.14488  Biso   1.000  C
  C8       1.0000 0.51390  0.04078  0.85512  Biso   1.000  C
  C9       1.0000 0.35979  0.79616  0.10439  Biso   1.000  C
  C10      1.0000 0.64021  0.20384  0.89561  Biso   1.000  C
  H7       1.0000 0.39830  0.72370  0.11360  Biso   1.000  H
  H8       1.0000 0.60170  0.27630  0.88640  Biso   1.000  H
  C11      1.0000 0.66930  0.01280  0.20002  Biso   1.000  C
  C12      1.0000 0.33070  0.98720  0.79998  Biso   1.000  C
  C13      1.0000 0.82130  0.05290  0.24180  Biso   1.000  C
  C14      1.0000 0.17870  0.94710  0.75820  Biso   1.000  C
  C15      1.0000 0.00420  0.10222  0.29388  Biso   1.000  C
  C16      1.0000 0.99580  0.89778  0.70612  Biso   1.000  C
  C17      1.0000 0.04710  0.00960  0.34494  Biso   1.000  C
  C18      1.0000 0.95290  0.99040  0.65506  Biso   1.000  C
  H9       1.0000 0.95530  0.91100  0.34130  Biso   1.000  H
  H10      1.0000 0.04470  0.08900  0.65870  Biso   1.000  H
  C19      1.0000 0.22310  0.06130  0.40075  Biso   1.000  C
  C20      1.0000 0.77690  0.93870  0.59925  Biso   1.000  C
  H11      1.0000 0.25120  0.99840  0.43590  Biso   1.000  H
  H12      1.0000 0.74880  0.00160  0.56410  Biso   1.000  H
  C21      1.0000 0.35960  0.20530  0.40576  Biso   1.000  C
  C22      1.0000 0.64040  0.79470  0.59424  Biso   1.000  C
  C23      1.0000 0.31720  0.29660  0.35364  Biso   1.000  C
  C24      1.0000 0.68280  0.70340  0.64636  Biso   1.000  C
  H13      1.0000 0.40920  0.39440  0.35620  Biso   1.000  H
  H14      1.0000 0.59080  0.60560  0.64380  Biso   1.000  H
  C25      1.0000 0.14090  0.24490  0.29807  Biso   1.000  C
  C26      1.0000 0.85910  0.75510  0.70193  Biso   1.000  C
  H15      1.0000 0.11300  0.30740  0.26240  Biso   1.000  H
  H16      1.0000 0.88700  0.69260  0.73760  Biso   1.000  H
  C27      1.0000 0.54120  0.25940  0.46769  Biso   1.000  C
  C28      1.0000 0.45880  0.74060  0.53231  Biso   1.000  C
  C29      1.0000 0.68900  0.30260  0.52410  Biso   1.000  C
  C30      1.0000 0.31100  0.69740  0.47590  Biso   1.000  C
  C31      1.0000 0.86341  0.39693  0.73406  Biso   1.000  C
  C32      1.0000 0.13659  0.60307  0.26594  Biso   1.000  C
  H17      1.0000 0.75900  0.38550  0.75630  Biso   1.000  H
  H18      1.0000 0.24100  0.61450  0.24370  Biso   1.000  H
  C33      1.0000 0.85597  0.35799  0.61015  Biso   1.000  C
  C34      1.0000 0.14403  0.64201  0.38985  Biso   1.000  C
  C35      1.0000 0.00990  0.37510  0.57791  Biso   1.000  C
  C36      1.0000 0.99010  0.62490  0.42209  Biso   1.000  C
  H19      1.0000 0.01050  0.35060  0.49420  Biso   1.000  H
  H20      1.0000 0.98950  0.64940  0.50580  Biso   1.000  H
  C37      1.0000 0.16140  0.42850  0.67066  Biso   1.000  C
  C38      1.0000 0.83860  0.57150  0.32934  Biso   1.000  C
  H21      1.0000 0.26750  0.44030  0.65090  Biso   1.000  H
  H22      1.0000 0.73250  0.55970  0.34910  Biso   1.000  H
  C39      1.0000 0.15850  0.46470  0.79176  Biso   1.000  C
  C40      1.0000 0.84150  0.53530  0.20824  Biso   1.000  C
  H23      1.0000 0.26340  0.50110  0.85440  Biso   1.000  H
  H24      1.0000 0.73660  0.49890  0.14560  Biso   1.000  H
