data_image0
_cell_length_a       10.6133
_cell_length_b       20.5652
_cell_length_c       14.7013
_cell_angle_alpha    90
_cell_angle_beta     98.637
_cell_angle_gamma    90

_symmetry_space_group_name_H-M    "P 1"
_symmetry_int_tables_number       1

loop_
  _symmetry_equiv_pos_as_xyz
  'x, y, z'

loop_
  _atom_site_label
  _atom_site_occupancy
  _atom_site_fract_x
  _atom_site_fract_y
  _atom_site_fract_z
  _atom_site_thermal_displace_type
  _atom_site_B_iso_or_equiv
  _atom_site_type_symbol
  Cu1      1.0000 0.25000  0.40988  0.50000  Biso   1.000  Cu
  Cu2      1.0000 0.75000  0.90988  0.00000  Biso   1.000  Cu
  Cu3      1.0000 0.75000  0.59012  0.50000  Biso   1.000  Cu
  Cu4      1.0000 0.25000  0.09012  0.00000  Biso   1.000  Cu
  C1       1.0000 0.16487  0.54223  0.53975  Biso   1.000  C
  C2       1.0000 0.66487  0.04223  0.03975  Biso   1.000  C
  C3       1.0000 0.33513  0.54223  0.46025  Biso   1.000  C
  C4       1.0000 0.83513  0.04223  0.96025  Biso   1.000  C
  C5       1.0000 0.83513  0.45777  0.46025  Biso   1.000  C
  C6       1.0000 0.33513  0.95777  0.96025  Biso   1.000  C
  C7       1.0000 0.66487  0.45777  0.53975  Biso   1.000  C
  C8       1.0000 0.16487  0.95777  0.03975  Biso   1.000  C
  H1       1.0000 0.10320  0.51900  0.56740  Biso   1.000  H
  H2       1.0000 0.60320  0.01900  0.06740  Biso   1.000  H
  H3       1.0000 0.39680  0.51900  0.43260  Biso   1.000  H
  H4       1.0000 0.89680  0.01900  0.93260  Biso   1.000  H
  H5       1.0000 0.89680  0.48100  0.43260  Biso   1.000  H
  H6       1.0000 0.39680  0.98100  0.93260  Biso   1.000  H
  H7       1.0000 0.60320  0.48100  0.56740  Biso   1.000  H
  H8       1.0000 0.10320  0.98100  0.06740  Biso   1.000  H
  C9       1.0000 0.16280  0.60916  0.54226  Biso   1.000  C
  C10      1.0000 0.66280  0.10916  0.04226  Biso   1.000  C
  C11      1.0000 0.33720  0.60916  0.45774  Biso   1.000  C
  C12      1.0000 0.83720  0.10916  0.95774  Biso   1.000  C
  C13      1.0000 0.83720  0.39084  0.45774  Biso   1.000  C
  C14      1.0000 0.33720  0.89084  0.95774  Biso   1.000  C
  C15      1.0000 0.66280  0.39084  0.54226  Biso   1.000  C
  C16      1.0000 0.16280  0.89084  0.04226  Biso   1.000  C
  H9       1.0000 0.10230  0.63120  0.57260  Biso   1.000  H
  H10      1.0000 0.60230  0.13120  0.07260  Biso   1.000  H
  H11      1.0000 0.39770  0.63120  0.42740  Biso   1.000  H
  H12      1.0000 0.89770  0.13120  0.92740  Biso   1.000  H
  H13      1.0000 0.89770  0.36880  0.42740  Biso   1.000  H
  H14      1.0000 0.39770  0.86880  0.92740  Biso   1.000  H
  H15      1.0000 0.60230  0.36880  0.57260  Biso   1.000  H
  H16      1.0000 0.10230  0.86880  0.07260  Biso   1.000  H
  C17      1.0000 0.25000  0.64414  0.50000  Biso   1.000  C
  C18      1.0000 0.75000  0.14414  0.00000  Biso   1.000  C
  C19      1.0000 0.75000  0.35586  0.50000  Biso   1.000  C
  C20      1.0000 0.25000  0.85586  0.00000  Biso   1.000  C
  C21      1.0000 0.25000  0.71389  0.50000  Biso   1.000  C
  C22      1.0000 0.75000  0.21389  0.00000  Biso   1.000  C
  C23      1.0000 0.75000  0.28611  0.50000  Biso   1.000  C
  C24      1.0000 0.25000  0.78611  0.00000  Biso   1.000  C
  C25      1.0000 0.25000  0.77205  0.50000  Biso   1.000  C
  C26      1.0000 0.75000  0.27205  0.00000  Biso   1.000  C
  C27      1.0000 0.75000  0.22795  0.50000  Biso   1.000  C
  C28      1.0000 0.25000  0.72795  0.00000  Biso   1.000  C
  C29      1.0000 0.25000  0.84178  0.50000  Biso   1.000  C
  C30      1.0000 0.75000  0.34178  0.00000  Biso   1.000  C
  C31      1.0000 0.75000  0.15822  0.50000  Biso   1.000  C
  C32      1.0000 0.25000  0.65822  0.00000  Biso   1.000  C
  C33      1.0000 0.18400  0.87629  0.56020  Biso   1.000  C
  C34      1.0000 0.68400  0.37629  0.06020  Biso   1.000  C
  C35      1.0000 0.31600  0.87629  0.43980  Biso   1.000  C
  C36      1.0000 0.81600  0.37629  0.93980  Biso   1.000  C
  C37      1.0000 0.81600  0.12371  0.43980  Biso   1.000  C
  C38      1.0000 0.31600  0.62371  0.93980  Biso   1.000  C
  C39      1.0000 0.68400  0.12371  0.56020  Biso   1.000  C
  C40      1.0000 0.18400  0.62371  0.06020  Biso   1.000  C
  H17      1.0000 0.13960  0.85340  0.60170  Biso   1.000  H
  H18      1.0000 0.63960  0.35340  0.10170  Biso   1.000  H
  H19      1.0000 0.36040  0.85340  0.39830  Biso   1.000  H
  H20      1.0000 0.86040  0.35340  0.89830  Biso   1.000  H
  H21      1.0000 0.86040  0.14660  0.39830  Biso   1.000  H
  H22      1.0000 0.36040  0.64660  0.89830  Biso   1.000  H
  H23      1.0000 0.63960  0.14660  0.60170  Biso   1.000  H
  H24      1.0000 0.13960  0.64660  0.10170  Biso   1.000  H
  C41      1.0000 0.18320  0.94310  0.55945  Biso   1.000  C
  C42      1.0000 0.68320  0.44310  0.05945  Biso   1.000  C
  C43      1.0000 0.31680  0.94310  0.44055  Biso   1.000  C
  C44      1.0000 0.81680  0.44310  0.94055  Biso   1.000  C
  C45      1.0000 0.81680  0.05690  0.44055  Biso   1.000  C
  C46      1.0000 0.31680  0.55690  0.94055  Biso   1.000  C
  C47      1.0000 0.68320  0.05690  0.55945  Biso   1.000  C
  C48      1.0000 0.18320  0.55690  0.05945  Biso   1.000  C
  H25      1.0000 0.13690  0.96610  0.59970  Biso   1.000  H
  H26      1.0000 0.63690  0.46610  0.09970  Biso   1.000  H
  H27      1.0000 0.36310  0.96610  0.40030  Biso   1.000  H
  H28      1.0000 0.86310  0.46610  0.90030  Biso   1.000  H
  H29      1.0000 0.86310  0.03390  0.40030  Biso   1.000  H
  H30      1.0000 0.36310  0.53390  0.90030  Biso   1.000  H
  H31      1.0000 0.63690  0.03390  0.59970  Biso   1.000  H
  H32      1.0000 0.13690  0.53390  0.09970  Biso   1.000  H
  C49      1.0000 0.25000  0.97747  0.50000  Biso   1.000  C
  C50      1.0000 0.75000  0.47747  0.00000  Biso   1.000  C
  C51      1.0000 0.75000  0.02253  0.50000  Biso   1.000  C
  C52      1.0000 0.25000  0.52253  0.00000  Biso   1.000  C
  C53      1.0000 0.25000  0.04699  0.50000  Biso   1.000  C
  C54      1.0000 0.75000  0.54699  0.00000  Biso   1.000  C
  C55      1.0000 0.75000  0.95301  0.50000  Biso   1.000  C
  C56      1.0000 0.25000  0.45301  0.00000  Biso   1.000  C
  C57      1.0000 0.25000  0.10548  0.50000  Biso   1.000  C
  C58      1.0000 0.75000  0.60548  0.00000  Biso   1.000  C
  C59      1.0000 0.75000  0.89452  0.50000  Biso   1.000  C
  C60      1.0000 0.25000  0.39452  0.00000  Biso   1.000  C
  C61      1.0000 0.25000  0.17488  0.50000  Biso   1.000  C
  C62      1.0000 0.75000  0.67488  0.00000  Biso   1.000  C
  C63      1.0000 0.75000  0.82512  0.50000  Biso   1.000  C
  C64      1.0000 0.25000  0.32512  0.00000  Biso   1.000  C
  C65      1.0000 0.14140  0.20979  0.51234  Biso   1.000  C
  C66      1.0000 0.64140  0.70979  0.01234  Biso   1.000  C
  C67      1.0000 0.35860  0.20979  0.48766  Biso   1.000  C
  C68      1.0000 0.85860  0.70979  0.98766  Biso   1.000  C
  C69      1.0000 0.85860  0.79021  0.48766  Biso   1.000  C
  C70      1.0000 0.35860  0.29021  0.98766  Biso   1.000  C
  C71      1.0000 0.64140  0.79021  0.51234  Biso   1.000  C
  C72      1.0000 0.14140  0.29021  0.01234  Biso   1.000  C
  H33      1.0000 0.06560  0.18780  0.52130  Biso   1.000  H
  H34      1.0000 0.56560  0.68780  0.02130  Biso   1.000  H
  H35      1.0000 0.43440  0.18780  0.47870  Biso   1.000  H
  H36      1.0000 0.93440  0.68780  0.97870  Biso   1.000  H
  H37      1.0000 0.93440  0.81220  0.47870  Biso   1.000  H
  H38      1.0000 0.43440  0.31220  0.97870  Biso   1.000  H
  H39      1.0000 0.56560  0.81220  0.52130  Biso   1.000  H
  H40      1.0000 0.06560  0.31220  0.02130  Biso   1.000  H
  C73      1.0000 0.14560  0.27703  0.51141  Biso   1.000  C
  C74      1.0000 0.64560  0.77703  0.01141  Biso   1.000  C
  C75      1.0000 0.35440  0.27703  0.48859  Biso   1.000  C
  C76      1.0000 0.85440  0.77703  0.98859  Biso   1.000  C
  C77      1.0000 0.85440  0.72297  0.48859  Biso   1.000  C
  C78      1.0000 0.35440  0.22297  0.98859  Biso   1.000  C
  C79      1.0000 0.64560  0.72297  0.51141  Biso   1.000  C
  C80      1.0000 0.14560  0.22297  0.01141  Biso   1.000  C
  H41      1.0000 0.07090  0.30050  0.51930  Biso   1.000  H
  H42      1.0000 0.57090  0.80050  0.01930  Biso   1.000  H
  H43      1.0000 0.42910  0.30050  0.48070  Biso   1.000  H
  H44      1.0000 0.92910  0.80050  0.98070  Biso   1.000  H
  H45      1.0000 0.92910  0.69950  0.48070  Biso   1.000  H
  H46      1.0000 0.42910  0.19950  0.98070  Biso   1.000  H
  H47      1.0000 0.57090  0.69950  0.51930  Biso   1.000  H
  H48      1.0000 0.07090  0.19950  0.01930  Biso   1.000  H
  C81      1.0000 0.38200  0.40422  0.70267  Biso   1.000  C
  C82      1.0000 0.88200  0.90422  0.20267  Biso   1.000  C
  C83      1.0000 0.11800  0.40422  0.29733  Biso   1.000  C
  C84      1.0000 0.61800  0.90422  0.79733  Biso   1.000  C
  C85      1.0000 0.61800  0.59578  0.29733  Biso   1.000  C
  C86      1.0000 0.11800  0.09578  0.79733  Biso   1.000  C
  C87      1.0000 0.88200  0.59578  0.70267  Biso   1.000  C
  C88      1.0000 0.38200  0.09578  0.20267  Biso   1.000  C
  C89      1.0000 0.26450  0.40055  0.73504  Biso   1.000  C
  C90      1.0000 0.76450  0.90055  0.23504  Biso   1.000  C
  C91      1.0000 0.23550  0.40055  0.26496  Biso   1.000  C
  C92      1.0000 0.73550  0.90055  0.76496  Biso   1.000  C
  C93      1.0000 0.73550  0.59945  0.26496  Biso   1.000  C
  C94      1.0000 0.23550  0.09945  0.76496  Biso   1.000  C
  C95      1.0000 0.76450  0.59945  0.73504  Biso   1.000  C
  C96      1.0000 0.26450  0.09945  0.23504  Biso   1.000  C
  H49      1.0000 0.26440  0.39760  0.79950  Biso   1.000  H
  H50      1.0000 0.76440  0.89760  0.29950  Biso   1.000  H
  H51      1.0000 0.23560  0.39760  0.20050  Biso   1.000  H
  H52      1.0000 0.73560  0.89760  0.70050  Biso   1.000  H
  H53      1.0000 0.73560  0.60240  0.20050  Biso   1.000  H
  H54      1.0000 0.23560  0.10240  0.70050  Biso   1.000  H
  H55      1.0000 0.76440  0.60240  0.79950  Biso   1.000  H
  H56      1.0000 0.26440  0.10240  0.29950  Biso   1.000  H
  C97      1.0000 0.14920  0.40104  0.67790  Biso   1.000  C
  C98      1.0000 0.64920  0.90104  0.17790  Biso   1.000  C
  C99      1.0000 0.35080  0.40104  0.32210  Biso   1.000  C
  C100     1.0000 0.85080  0.90104  0.82210  Biso   1.000  C
  C101     1.0000 0.85080  0.59896  0.32210  Biso   1.000  C
  C102     1.0000 0.35080  0.09896  0.82210  Biso   1.000  C
  C103     1.0000 0.64920  0.59896  0.67790  Biso   1.000  C
  C104     1.0000 0.14920  0.09896  0.17790  Biso   1.000  C
  C105     1.0000 0.50210  0.39981  0.77518  Biso   1.000  C
  C106     1.0000 0.00210  0.89981  0.27518  Biso   1.000  C
  C107     1.0000 0.99790  0.39981  0.22482  Biso   1.000  C
  C108     1.0000 0.49790  0.89981  0.72482  Biso   1.000  C
  C109     1.0000 0.49790  0.60019  0.22482  Biso   1.000  C
  C110     1.0000 0.99790  0.10019  0.72482  Biso   1.000  C
  C111     1.0000 0.00210  0.60019  0.77518  Biso   1.000  C
  C112     1.0000 0.50210  0.10019  0.27518  Biso   1.000  C
  C113     1.0000 0.02830  0.39279  0.72129  Biso   1.000  C
  C114     1.0000 0.52830  0.89279  0.22129  Biso   1.000  C
  C115     1.0000 0.47170  0.39279  0.27871  Biso   1.000  C
  C116     1.0000 0.97170  0.89279  0.77871  Biso   1.000  C
  C117     1.0000 0.97170  0.60721  0.27871  Biso   1.000  C
  C118     1.0000 0.47170  0.10721  0.77871  Biso   1.000  C
  C119     1.0000 0.52830  0.60721  0.72129  Biso   1.000  C
  C120     1.0000 0.02830  0.10721  0.22129  Biso   1.000  C
  N1       1.0000 0.25000  0.50829  0.50000  Biso   1.000  N
  N2       1.0000 0.75000  0.00829  0.00000  Biso   1.000  N
  N3       1.0000 0.75000  0.49171  0.50000  Biso   1.000  N
  N4       1.0000 0.25000  0.99171  0.00000  Biso   1.000  N
  N5       1.0000 0.25000  0.31054  0.50000  Biso   1.000  N
  N6       1.0000 0.75000  0.81054  0.00000  Biso   1.000  N
  N7       1.0000 0.75000  0.68946  0.50000  Biso   1.000  N
  N8       1.0000 0.25000  0.18946  0.00000  Biso   1.000  N
  O1       1.0000 0.40343  0.40879  0.62256  Biso   1.000  O
  O2       1.0000 0.90343  0.90879  0.12256  Biso   1.000  O
  O3       1.0000 0.09657  0.40879  0.37744  Biso   1.000  O
  O4       1.0000 0.59657  0.90879  0.87744  Biso   1.000  O
  O5       1.0000 0.59657  0.59121  0.37744  Biso   1.000  O
  O6       1.0000 0.09657  0.09121  0.87744  Biso   1.000  O
  O7       1.0000 0.90343  0.59121  0.62256  Biso   1.000  O
  O8       1.0000 0.40343  0.09121  0.12256  Biso   1.000  O
  O9       1.0000 0.12566  0.40661  0.59194  Biso   1.000  O
  O10      1.0000 0.62566  0.90661  0.09194  Biso   1.000  O
  O11      1.0000 0.37434  0.40661  0.40806  Biso   1.000  O
  O12      1.0000 0.87434  0.90661  0.90806  Biso   1.000  O
  O13      1.0000 0.87434  0.59339  0.40806  Biso   1.000  O
  O14      1.0000 0.37434  0.09339  0.90806  Biso   1.000  O
  O15      1.0000 0.62566  0.59339  0.59194  Biso   1.000  O
  O16      1.0000 0.12566  0.09339  0.09194  Biso   1.000  O
  F1       1.0000 0.48610  0.41936  0.85761  Biso   1.000  F
  F2       1.0000 0.98610  0.91936  0.35761  Biso   1.000  F
  F3       1.0000 0.01390  0.41936  0.14239  Biso   1.000  F
  F4       1.0000 0.51390  0.91936  0.64239  Biso   1.000  F
  F5       1.0000 0.51390  0.58064  0.14239  Biso   1.000  F
  F6       1.0000 0.01390  0.08064  0.64239  Biso   1.000  F
  F7       1.0000 0.98610  0.58064  0.85761  Biso   1.000  F
  F8       1.0000 0.48610  0.08064  0.35761  Biso   1.000  F
  F9       1.0000 0.59799  0.43172  0.75167  Biso   1.000  F
  F10      1.0000 0.09799  0.93172  0.25167  Biso   1.000  F
  F11      1.0000 0.90201  0.43172  0.24833  Biso   1.000  F
  F12      1.0000 0.40201  0.93172  0.74833  Biso   1.000  F
  F13      1.0000 0.40201  0.56828  0.24833  Biso   1.000  F
  F14      1.0000 0.90201  0.06828  0.74833  Biso   1.000  F
  F15      1.0000 0.09799  0.56828  0.75167  Biso   1.000  F
  F16      1.0000 0.59799  0.06828  0.25167  Biso   1.000  F
  F17      1.0000 0.54000  0.33919  0.78553  Biso   1.000  F
  F18      1.0000 0.04000  0.83919  0.28553  Biso   1.000  F
  F19      1.0000 0.96000  0.33919  0.21447  Biso   1.000  F
  F20      1.0000 0.46000  0.83919  0.71447  Biso   1.000  F
  F21      1.0000 0.46000  0.66081  0.21447  Biso   1.000  F
  F22      1.0000 0.96000  0.16081  0.71447  Biso   1.000  F
  F23      1.0000 0.04000  0.66081  0.78553  Biso   1.000  F
  F24      1.0000 0.54000  0.16081  0.28553  Biso   1.000  F
  F25      1.0000 0.97052  0.33730  0.69355  Biso   1.000  F
  F26      1.0000 0.47052  0.83730  0.19355  Biso   1.000  F
  F27      1.0000 0.52948  0.33730  0.30645  Biso   1.000  F
  F28      1.0000 0.02948  0.83730  0.80645  Biso   1.000  F
  F29      1.0000 0.02948  0.66270  0.30645  Biso   1.000  F
  F30      1.0000 0.52948  0.16270  0.80645  Biso   1.000  F
  F31      1.0000 0.47052  0.66270  0.69355  Biso   1.000  F
  F32      1.0000 0.97052  0.16270  0.19355  Biso   1.000  F
  F33      1.0000 0.94362  0.43911  0.69437  Biso   1.000  F
  F34      1.0000 0.44362  0.93911  0.19437  Biso   1.000  F
  F35      1.0000 0.55638  0.43911  0.30563  Biso   1.000  F
  F36      1.0000 0.05638  0.93911  0.80563  Biso   1.000  F
  F37      1.0000 0.05638  0.56089  0.30563  Biso   1.000  F
  F38      1.0000 0.55638  0.06089  0.80563  Biso   1.000  F
  F39      1.0000 0.44362  0.56089  0.69437  Biso   1.000  F
  F40      1.0000 0.94362  0.06089  0.19437  Biso   1.000  F
  F41      1.0000 0.04691  0.39270  0.81202  Biso   1.000  F
  F42      1.0000 0.54691  0.89270  0.31202  Biso   1.000  F
  F43      1.0000 0.45309  0.39270  0.18798  Biso   1.000  F
  F44      1.0000 0.95309  0.89270  0.68798  Biso   1.000  F
  F45      1.0000 0.95309  0.60730  0.18798  Biso   1.000  F
  F46      1.0000 0.45309  0.10730  0.68798  Biso   1.000  F
  F47      1.0000 0.54691  0.60730  0.81202  Biso   1.000  F
  F48      1.0000 0.04691  0.10730  0.31202  Biso   1.000  F
