data_image0
_cell_length_a       19.872
_cell_length_b       7.7318
_cell_length_c       11.4735
_cell_angle_alpha    90
_cell_angle_beta     102.799
_cell_angle_gamma    90

_symmetry_space_group_name_H-M    "P 1"
_symmetry_int_tables_number       1

loop_
  _symmetry_equiv_pos_as_xyz
  'x, y, z'

loop_
  _atom_site_label
  _atom_site_occupancy
  _atom_site_fract_x
  _atom_site_fract_y
  _atom_site_fract_z
  _atom_site_thermal_displace_type
  _atom_site_B_iso_or_equiv
  _atom_site_type_symbol
  Cu1      1.0000 0.08953  0.08633  0.88740  Biso   1.000  Cu
  Cu2      1.0000 0.91047  0.58633  0.61260  Biso   1.000  Cu
  Cu3      1.0000 0.91047  0.91367  0.11260  Biso   1.000  Cu
  Cu4      1.0000 0.08953  0.41367  0.38740  Biso   1.000  Cu
  S1       1.0000 0.93781  0.01020  0.72492  Biso   1.000  S
  S2       1.0000 0.06219  0.51020  0.77508  Biso   1.000  S
  S3       1.0000 0.06219  0.98980  0.27508  Biso   1.000  S
  S4       1.0000 0.93781  0.48980  0.22492  Biso   1.000  S
  O1       1.0000 0.98748  0.07470  0.83398  Biso   1.000  O
  O2       1.0000 0.01252  0.57470  0.66602  Biso   1.000  O
  O3       1.0000 0.01252  0.92530  0.16602  Biso   1.000  O
  O4       1.0000 0.98748  0.42530  0.33398  Biso   1.000  O
  O5       1.0000 0.87738  0.12250  0.70360  Biso   1.000  O
  O6       1.0000 0.12262  0.62250  0.79640  Biso   1.000  O
  O7       1.0000 0.12262  0.87750  0.29640  Biso   1.000  O
  O8       1.0000 0.87738  0.37750  0.20360  Biso   1.000  O
  O9       1.0000 0.97188  0.01660  0.62310  Biso   1.000  O
  O10      1.0000 0.02812  0.51660  0.87690  Biso   1.000  O
  O11      1.0000 0.02812  0.98340  0.37690  Biso   1.000  O
  O12      1.0000 0.97188  0.48340  0.12310  Biso   1.000  O
  O13      1.0000 0.91818  0.83180  0.74610  Biso   1.000  O
  O14      1.0000 0.08182  0.33180  0.75390  Biso   1.000  O
  O15      1.0000 0.08182  0.16820  0.25390  Biso   1.000  O
  O16      1.0000 0.91818  0.66820  0.24610  Biso   1.000  O
  O17      1.0000 0.07549  0.24230  0.01790  Biso   1.000  O
  O18      1.0000 0.92451  0.74230  0.48210  Biso   1.000  O
  O19      1.0000 0.92451  0.75770  0.98210  Biso   1.000  O
  O20      1.0000 0.07549  0.25770  0.51790  Biso   1.000  O
  H1       1.0000 0.07460  0.22400  0.08760  Biso   1.000  H
  H2       1.0000 0.92540  0.72400  0.41240  Biso   1.000  H
  H3       1.0000 0.92540  0.77600  0.91240  Biso   1.000  H
  H4       1.0000 0.07460  0.27600  0.58760  Biso   1.000  H
  H5       1.0000 0.05910  0.33400  0.99100  Biso   1.000  H
  H6       1.0000 0.94090  0.83400  0.50900  Biso   1.000  H
  H7       1.0000 0.94090  0.66600  0.00900  Biso   1.000  H
  H8       1.0000 0.05910  0.16600  0.49100  Biso   1.000  H
  O21      1.0000 0.10542  0.95960  0.74480  Biso   1.000  O
  O22      1.0000 0.89458  0.45960  0.75520  Biso   1.000  O
  O23      1.0000 0.89458  0.04040  0.25520  Biso   1.000  O
  O24      1.0000 0.10542  0.54040  0.24480  Biso   1.000  O
  H9       1.0000 0.07040  0.96700  0.69200  Biso   1.000  H
  H10      1.0000 0.92960  0.46700  0.80800  Biso   1.000  H
  H11      1.0000 0.92960  0.03300  0.30800  Biso   1.000  H
  H12      1.0000 0.07040  0.53300  0.19200  Biso   1.000  H
  H13      1.0000 0.10890  0.85460  0.75200  Biso   1.000  H
  H14      1.0000 0.89110  0.35460  0.74800  Biso   1.000  H
  H15      1.0000 0.89110  0.14540  0.24800  Biso   1.000  H
  H16      1.0000 0.10890  0.64540  0.25200  Biso   1.000  H
  O25      1.0000 0.08804  0.84020  0.99750  Biso   1.000  O
  O26      1.0000 0.91196  0.34020  0.50250  Biso   1.000  O
  O27      1.0000 0.91196  0.15980  0.00250  Biso   1.000  O
  O28      1.0000 0.08804  0.65980  0.49750  Biso   1.000  O
  H17      1.0000 0.07590  0.75000  0.96300  Biso   1.000  H
  H18      1.0000 0.92410  0.25000  0.53700  Biso   1.000  H
  H19      1.0000 0.92410  0.25000  0.03700  Biso   1.000  H
  H20      1.0000 0.07590  0.75000  0.46300  Biso   1.000  H
  H21      1.0000 0.06620  0.85600  0.04800  Biso   1.000  H
  H22      1.0000 0.93380  0.35600  0.45200  Biso   1.000  H
  H23      1.0000 0.93380  0.14400  0.95200  Biso   1.000  H
  H24      1.0000 0.06620  0.64400  0.54800  Biso   1.000  H
  N1       1.0000 0.19120  0.10670  0.95240  Biso   1.000  N
  N2       1.0000 0.80880  0.60670  0.54760  Biso   1.000  N
  N3       1.0000 0.80880  0.89330  0.04760  Biso   1.000  N
  N4       1.0000 0.19120  0.39330  0.45240  Biso   1.000  N
  N5       1.0000 0.40497  0.13840  0.09320  Biso   1.000  N
  N6       1.0000 0.59503  0.63840  0.40680  Biso   1.000  N
  N7       1.0000 0.59503  0.86160  0.90680  Biso   1.000  N
  N8       1.0000 0.40497  0.36160  0.59320  Biso   1.000  N
  N9       1.0000 0.42100  0.14020  0.20670  Biso   1.000  N
  N10      1.0000 0.57900  0.64020  0.29330  Biso   1.000  N
  N11      1.0000 0.57900  0.85980  0.79330  Biso   1.000  N
  N12      1.0000 0.42100  0.35980  0.70670  Biso   1.000  N
  N13      1.0000 0.69805  0.11630  0.44170  Biso   1.000  N
  N14      1.0000 0.30195  0.61630  0.05830  Biso   1.000  N
  N15      1.0000 0.30195  0.88370  0.55830  Biso   1.000  N
  N16      1.0000 0.69805  0.38370  0.94170  Biso   1.000  N
  C1       1.0000 0.21834  0.05350  0.06480  Biso   1.000  C
  C2       1.0000 0.78166  0.55350  0.43520  Biso   1.000  C
  C3       1.0000 0.78166  0.94650  0.93520  Biso   1.000  C
  C4       1.0000 0.21834  0.44650  0.56480  Biso   1.000  C
  H25      1.0000 0.18860  0.00820  0.11040  Biso   1.000  H
  H26      1.0000 0.81140  0.50820  0.38960  Biso   1.000  H
  H27      1.0000 0.81140  0.99180  0.88960  Biso   1.000  H
  H28      1.0000 0.18860  0.49180  0.61040  Biso   1.000  H
  C5       1.0000 0.28741  0.06270  0.11550  Biso   1.000  C
  C6       1.0000 0.71259  0.56270  0.38450  Biso   1.000  C
  C7       1.0000 0.71259  0.93730  0.88450  Biso   1.000  C
  C8       1.0000 0.28741  0.43730  0.61550  Biso   1.000  C
  H29      1.0000 0.30440  0.02300  0.19390  Biso   1.000  H
  H30      1.0000 0.69560  0.52300  0.30610  Biso   1.000  H
  H31      1.0000 0.69560  0.97700  0.80610  Biso   1.000  H
  H32      1.0000 0.30440  0.47700  0.69390  Biso   1.000  H
  C9       1.0000 0.33218  0.13110  0.05010  Biso   1.000  C
  C10      1.0000 0.66782  0.63110  0.44990  Biso   1.000  C
  C11      1.0000 0.66782  0.86890  0.94990  Biso   1.000  C
  C12      1.0000 0.33218  0.36890  0.55010  Biso   1.000  C
  C13      1.0000 0.30450  0.18720  0.93450  Biso   1.000  C
  C14      1.0000 0.69550  0.68720  0.56550  Biso   1.000  C
  C15      1.0000 0.69550  0.81280  0.06550  Biso   1.000  C
  C16      1.0000 0.30450  0.31280  0.43450  Biso   1.000  C
  H33      1.0000 0.33320  0.23350  0.88730  Biso   1.000  H
  H34      1.0000 0.66680  0.73350  0.61270  Biso   1.000  H
  H35      1.0000 0.66680  0.76650  0.11270  Biso   1.000  H
  H36      1.0000 0.33320  0.26650  0.38730  Biso   1.000  H
  C17      1.0000 0.23458  0.17390  0.89010  Biso   1.000  C
  C18      1.0000 0.76542  0.67390  0.60990  Biso   1.000  C
  C19      1.0000 0.76542  0.82610  0.10990  Biso   1.000  C
  C20      1.0000 0.23458  0.32610  0.39010  Biso   1.000  C
  H37      1.0000 0.21630  0.21400  0.81210  Biso   1.000  H
  H38      1.0000 0.78370  0.71400  0.68790  Biso   1.000  H
  H39      1.0000 0.78370  0.78600  0.18790  Biso   1.000  H
  H40      1.0000 0.21630  0.28600  0.31210  Biso   1.000  H
  C21      1.0000 0.49147  0.13320  0.25820  Biso   1.000  C
  C22      1.0000 0.50853  0.63320  0.24180  Biso   1.000  C
  C23      1.0000 0.50853  0.86680  0.74180  Biso   1.000  C
  C24      1.0000 0.49147  0.36680  0.75820  Biso   1.000  C
  C25      1.0000 0.50997  0.16090  0.38140  Biso   1.000  C
  C26      1.0000 0.49003  0.66090  0.11860  Biso   1.000  C
  C27      1.0000 0.49003  0.83910  0.61860  Biso   1.000  C
  C28      1.0000 0.50997  0.33910  0.88140  Biso   1.000  C
  H41      1.0000 0.47520  0.18270  0.42330  Biso   1.000  H
  H42      1.0000 0.52480  0.68270  0.07670  Biso   1.000  H
  H43      1.0000 0.52480  0.81730  0.57670  Biso   1.000  H
  H44      1.0000 0.47520  0.31730  0.92330  Biso   1.000  H
  C29      1.0000 0.57776  0.15690  0.44300  Biso   1.000  C
  C30      1.0000 0.42224  0.65690  0.05700  Biso   1.000  C
  C31      1.0000 0.42224  0.84310  0.55700  Biso   1.000  C
  C32      1.0000 0.57776  0.34310  0.94300  Biso   1.000  C
  H45      1.0000 0.58880  0.17730  0.52590  Biso   1.000  H
  H46      1.0000 0.41120  0.67730  0.97410  Biso   1.000  H
  H47      1.0000 0.41120  0.82270  0.47410  Biso   1.000  H
  H48      1.0000 0.58880  0.32270  0.02590  Biso   1.000  H
  C33      1.0000 0.63054  0.12240  0.38250  Biso   1.000  C
  C34      1.0000 0.36946  0.62240  0.11750  Biso   1.000  C
  C35      1.0000 0.36946  0.87760  0.61750  Biso   1.000  C
  C36      1.0000 0.63054  0.37760  0.88250  Biso   1.000  C
  C37      1.0000 0.61097  0.09060  0.25770  Biso   1.000  C
  C38      1.0000 0.38903  0.59060  0.24230  Biso   1.000  C
  C39      1.0000 0.38903  0.90940  0.74230  Biso   1.000  C
  C40      1.0000 0.61097  0.40940  0.75770  Biso   1.000  C
  H49      1.0000 0.64520  0.06470  0.21540  Biso   1.000  H
  H50      1.0000 0.35480  0.56470  0.28460  Biso   1.000  H
  H51      1.0000 0.35480  0.93530  0.78460  Biso   1.000  H
  H52      1.0000 0.64520  0.43530  0.71540  Biso   1.000  H
  C41      1.0000 0.54328  0.09660  0.19760  Biso   1.000  C
  C42      1.0000 0.45672  0.59660  0.30240  Biso   1.000  C
  C43      1.0000 0.45672  0.90340  0.80240  Biso   1.000  C
  C44      1.0000 0.54328  0.40340  0.69760  Biso   1.000  C
  H53      1.0000 0.53170  0.07600  0.11480  Biso   1.000  H
  H54      1.0000 0.46830  0.57600  0.38520  Biso   1.000  H
  H55      1.0000 0.46830  0.92400  0.88520  Biso   1.000  H
  H56      1.0000 0.53170  0.42400  0.61480  Biso   1.000  H
  C45      1.0000 0.71740  0.16050  0.56800  Biso   1.000  C
  C46      1.0000 0.28260  0.66050  0.93200  Biso   1.000  C
  C47      1.0000 0.28260  0.83950  0.43200  Biso   1.000  C
  C48      1.0000 0.71740  0.33950  0.06800  Biso   1.000  C
  H57      1.0000 0.70420  0.27920  0.57910  Biso   1.000  H
  H58      1.0000 0.29580  0.77920  0.92090  Biso   1.000  H
  H59      1.0000 0.29580  0.72080  0.42090  Biso   1.000  H
  H60      1.0000 0.70420  0.22080  0.07910  Biso   1.000  H
  H61      1.0000 0.76690  0.14810  0.59620  Biso   1.000  H
  H62      1.0000 0.23310  0.64810  0.90380  Biso   1.000  H
  H63      1.0000 0.23310  0.85190  0.40380  Biso   1.000  H
  H64      1.0000 0.76690  0.35190  0.09620  Biso   1.000  H
  H65      1.0000 0.69390  0.08380  0.61290  Biso   1.000  H
  H66      1.0000 0.30610  0.58380  0.88710  Biso   1.000  H
  H67      1.0000 0.30610  0.91620  0.38710  Biso   1.000  H
  H68      1.0000 0.69390  0.41620  0.11290  Biso   1.000  H
  C49      1.0000 0.75341  0.07500  0.38250  Biso   1.000  C
  C50      1.0000 0.24659  0.57500  0.11750  Biso   1.000  C
  C51      1.0000 0.24659  0.92500  0.61750  Biso   1.000  C
  C52      1.0000 0.75341  0.42500  0.88250  Biso   1.000  C
  H69      1.0000 0.74390  0.96500  0.34140  Biso   1.000  H
  H70      1.0000 0.25610  0.46500  0.15860  Biso   1.000  H
  H71      1.0000 0.25610  0.03500  0.65860  Biso   1.000  H
  H72      1.0000 0.74390  0.53500  0.84140  Biso   1.000  H
  H73      1.0000 0.79660  0.06740  0.44130  Biso   1.000  H
  H74      1.0000 0.20340  0.56740  0.05870  Biso   1.000  H
  H75      1.0000 0.20340  0.93260  0.55870  Biso   1.000  H
  H76      1.0000 0.79660  0.43260  0.94130  Biso   1.000  H
  H77      1.0000 0.75670  0.16480  0.32500  Biso   1.000  H
  H78      1.0000 0.24330  0.66480  0.17500  Biso   1.000  H
  H79      1.0000 0.24330  0.83520  0.67500  Biso   1.000  H
  H80      1.0000 0.75670  0.33520  0.82500  Biso   1.000  H
