data_image0
_cell_length_a       10.25
_cell_length_b       15.078
_cell_length_c       15.19
_cell_angle_alpha    114.241
_cell_angle_beta     90.212
_cell_angle_gamma    108.389

_symmetry_space_group_name_H-M    "P 1"
_symmetry_int_tables_number       1

loop_
  _symmetry_equiv_pos_as_xyz
  'x, y, z'

loop_
  _atom_site_label
  _atom_site_occupancy
  _atom_site_fract_x
  _atom_site_fract_y
  _atom_site_fract_z
  _atom_site_thermal_displace_type
  _atom_site_B_iso_or_equiv
  _atom_site_type_symbol
  Cu1      1.0000 0.03093  0.24080  0.16245  Biso   1.000  Cu
  Cu2      1.0000 0.96907  0.75920  0.83755  Biso   1.000  Cu
  Cu3      1.0000 0.72876  0.24566  0.66487  Biso   1.000  Cu
  Cu4      1.0000 0.27124  0.75434  0.33513  Biso   1.000  Cu
  O1       1.0000 0.12130  0.20040  0.05120  Biso   1.000  O
  O2       1.0000 0.87870  0.79960  0.94880  Biso   1.000  O
  O3       1.0000 0.30690  0.33560  0.08980  Biso   1.000  O
  O4       1.0000 0.69310  0.66440  0.91020  Biso   1.000  O
  O5       1.0000 0.61250  0.32290  0.82870  Biso   1.000  O
  O6       1.0000 0.38750  0.67710  0.17130  Biso   1.000  O
  O7       1.0000 0.58450  0.17160  0.71280  Biso   1.000  O
  O8       1.0000 0.41550  0.82840  0.28720  Biso   1.000  O
  O9       1.0000 0.10380  0.16540  0.21150  Biso   1.000  O
  O10      1.0000 0.89620  0.83460  0.78850  Biso   1.000  O
  O11      1.0000 0.22100  0.31940  0.32340  Biso   1.000  O
  O12      1.0000 0.77900  0.68060  0.67660  Biso   1.000  O
  O13      1.0000 0.53910  0.33970  0.59190  Biso   1.000  O
  O14      1.0000 0.46090  0.66030  0.40810  Biso   1.000  O
  O15      1.0000 0.60230  0.20680  0.55350  Biso   1.000  O
  O16      1.0000 0.39770  0.79320  0.44650  Biso   1.000  O
  N1       1.0000 0.98420  0.34790  0.13850  Biso   1.000  N
  N2       1.0000 0.01580  0.65210  0.86150  Biso   1.000  N
  N3       1.0000 0.85270  0.34830  0.13980  Biso   1.000  N
  N4       1.0000 0.14730  0.65170  0.86020  Biso   1.000  N
  N5       1.0000 0.81590  0.12810  0.05210  Biso   1.000  N
  N6       1.0000 0.18410  0.87190  0.94790  Biso   1.000  N
  N7       1.0000 0.71830  0.17150  0.06760  Biso   1.000  N
  N8       1.0000 0.28170  0.82850  0.93240  Biso   1.000  N
  N9       1.0000 0.89930  0.25480  0.25910  Biso   1.000  N
  N10      1.0000 0.10070  0.74520  0.74090  Biso   1.000  N
  N11      1.0000 0.77770  0.26350  0.23830  Biso   1.000  N
  N12      1.0000 0.22230  0.73650  0.76170  Biso   1.000  N
  N13      1.0000 0.87660  0.35150  0.64120  Biso   1.000  N
  N14      1.0000 0.12340  0.64850  0.35880  Biso   1.000  N
  N15      1.0000 0.00680  0.35090  0.64300  Biso   1.000  N
  N16      1.0000 0.99320  0.64910  0.35700  Biso   1.000  N
  N17      1.0000 0.87240  0.25660  0.75970  Biso   1.000  N
  N18      1.0000 0.12760  0.74340  0.24030  Biso   1.000  N
  N19      1.0000 0.00090  0.26320  0.73900  Biso   1.000  N
  N20      1.0000 0.99910  0.73680  0.26100  Biso   1.000  N
  N21      1.0000 0.83830  0.13150  0.55370  Biso   1.000  N
  N22      1.0000 0.16170  0.86850  0.44630  Biso   1.000  N
  N23      1.0000 0.97550  0.17470  0.56870  Biso   1.000  N
  N24      1.0000 0.02450  0.82530  0.43130  Biso   1.000  N
  C1       1.0000 0.05350  0.42580  0.12070  Biso   1.000  C
  C2       1.0000 0.94650  0.57420  0.87930  Biso   1.000  C
  H1       1.0000 0.14750  0.44410  0.11490  Biso   1.000  H
  H2       1.0000 0.85250  0.55590  0.88510  Biso   1.000  H
  C3       1.0000 0.96890  0.47680  0.11170  Biso   1.000  C
  C4       1.0000 0.03110  0.52320  0.88830  Biso   1.000  C
  H3       1.0000 0.99450  0.53560  0.10040  Biso   1.000  H
  H4       1.0000 0.00550  0.46440  0.89960  Biso   1.000  H
  C5       1.0000 0.84240  0.42560  0.12240  Biso   1.000  C
  C6       1.0000 0.15760  0.57440  0.87760  Biso   1.000  C
  H5       1.0000 0.76220  0.44100  0.11840  Biso   1.000  H
  H6       1.0000 0.23780  0.55900  0.88160  Biso   1.000  H
  C7       1.0000 0.74530  0.26800  0.14970  Biso   1.000  C
  C8       1.0000 0.25470  0.73200  0.85030  Biso   1.000  C
  H7       1.0000 0.66040  0.28530  0.15320  Biso   1.000  H
  H8       1.0000 0.33960  0.71470  0.84680  Biso   1.000  H
  C9       1.0000 0.61420  0.12140  0.99340  Biso   1.000  C
  C10      1.0000 0.38580  0.87860  0.00660  Biso   1.000  C
  H9       1.0000 0.53600  0.13860  0.98790  Biso   1.000  H
  H10      1.0000 0.46400  0.86140  0.01210  Biso   1.000  H
  C11      1.0000 0.64370  0.04160  0.92850  Biso   1.000  C
  C12      1.0000 0.35630  0.95840  0.07150  Biso   1.000  C
  H11      1.0000 0.59020  0.99180  0.86870  Biso   1.000  H
  H12      1.0000 0.40980  0.00820  0.13130  Biso   1.000  H
  C13      1.0000 0.76790  0.04770  0.96700  Biso   1.000  C
  C14      1.0000 0.23210  0.95230  0.03300  Biso   1.000  C
  H13      1.0000 0.81300  0.00090  0.93680  Biso   1.000  H
  H14      1.0000 0.18700  0.99910  0.06320  Biso   1.000  H
  C15      1.0000 0.69690  0.25830  0.30530  Biso   1.000  C
  C16      1.0000 0.30310  0.74170  0.69470  Biso   1.000  C
  H15      1.0000 0.60780  0.26140  0.30600  Biso   1.000  H
  H16      1.0000 0.39220  0.73860  0.69400  Biso   1.000  H
  C17      1.0000 0.76880  0.24750  0.37200  Biso   1.000  C
  C18      1.0000 0.23120  0.75250  0.62800  Biso   1.000  C
  H17      1.0000 0.74010  0.24230  0.42820  Biso   1.000  H
  H18      1.0000 0.25990  0.75770  0.57180  Biso   1.000  H
  C19      1.0000 0.89200  0.24580  0.34050  Biso   1.000  C
  C20      1.0000 0.10800  0.75420  0.65950  Biso   1.000  C
  H19      1.0000 0.96260  0.23910  0.37320  Biso   1.000  H
  H20      1.0000 0.03740  0.76090  0.62680  Biso   1.000  H
  C21      1.0000 0.23470  0.24720  0.03660  Biso   1.000  C
  C22      1.0000 0.76530  0.75280  0.96340  Biso   1.000  C
  C23      1.0000 0.28190  0.18740  0.94540  Biso   1.000  C
  C24      1.0000 0.71810  0.81260  0.05460  Biso   1.000  C
  C25      1.0000 0.21390  0.08370  0.89590  Biso   1.000  C
  C26      1.0000 0.78610  0.91630  0.10410  Biso   1.000  C
  H21      1.0000 0.13630  0.05100  0.91710  Biso   1.000  H
  H22      1.0000 0.86370  0.94900  0.08290  Biso   1.000  H
  C27      1.0000 0.25980  0.02840  0.81550  Biso   1.000  C
  C28      1.0000 0.74020  0.97160  0.18450  Biso   1.000  C
  H23      1.0000 0.21570  0.95680  0.78300  Biso   1.000  H
  H24      1.0000 0.78430  0.04320  0.21700  Biso   1.000  H
  C29      1.0000 0.36860  0.07550  0.78160  Biso   1.000  C
  C30      1.0000 0.63140  0.92450  0.21840  Biso   1.000  C
  H25      1.0000 0.39860  0.03620  0.72600  Biso   1.000  H
  H26      1.0000 0.60140  0.96380  0.27400  Biso   1.000  H
  C31      1.0000 0.43370  0.17820  0.82740  Biso   1.000  C
  C32      1.0000 0.56630  0.82180  0.17260  Biso   1.000  C
  C33      1.0000 0.55120  0.22980  0.78770  Biso   1.000  C
  C34      1.0000 0.44880  0.77020  0.21230  Biso   1.000  C
  C35      1.0000 0.39220  0.23560  0.91130  Biso   1.000  C
  C36      1.0000 0.60780  0.76440  0.08870  Biso   1.000  C
  H27      1.0000 0.43870  0.30680  0.94470  Biso   1.000  H
  H28      1.0000 0.56130  0.69320  0.05530  Biso   1.000  H
  C37      1.0000 0.19420  0.22770  0.28690  Biso   1.000  C
  C38      1.0000 0.80580  0.77230  0.71310  Biso   1.000  C
  C39      1.0000 0.26090  0.17690  0.32900  Biso   1.000  C
  C40      1.0000 0.73910  0.82310  0.67100  Biso   1.000  C
  C41      1.0000 0.22660  0.07130  0.28820  Biso   1.000  C
  C42      1.0000 0.77340  0.92870  0.71180  Biso   1.000  C
  H29      1.0000 0.15810  0.03040  0.23350  Biso   1.000  H
  H30      1.0000 0.84190  0.96960  0.76650  Biso   1.000  H
  C43      1.0000 0.28950  0.02550  0.32510  Biso   1.000  C
  C44      1.0000 0.71050  0.97450  0.67490  Biso   1.000  C
  H31      1.0000 0.26450  0.95370  0.29660  Biso   1.000  H
  H32      1.0000 0.73550  0.04630  0.70340  Biso   1.000  H
  C45      1.0000 0.38940  0.08500  0.40420  Biso   1.000  C
  C46      1.0000 0.61060  0.91500  0.59580  Biso   1.000  C
  H33      1.0000 0.43570  0.05350  0.42810  Biso   1.000  H
  H34      1.0000 0.56430  0.94650  0.57190  Biso   1.000  H
  C47      1.0000 0.42420  0.19040  0.45000  Biso   1.000  C
  C48      1.0000 0.57580  0.80960  0.55000  Biso   1.000  C
  C49      1.0000 0.36010  0.23570  0.41120  Biso   1.000  C
  C50      1.0000 0.63990  0.76430  0.58880  Biso   1.000  C
  H35      1.0000 0.38370  0.30740  0.44070  Biso   1.000  H
  H36      1.0000 0.61630  0.69260  0.55930  Biso   1.000  H
  C51      1.0000 0.52940  0.25240  0.53890  Biso   1.000  C
  C52      1.0000 0.47060  0.74760  0.46110  Biso   1.000  C
  C53      1.0000 0.88020  0.43040  0.62380  Biso   1.000  C
  C54      1.0000 0.11980  0.56960  0.37620  Biso   1.000  C
  H37      1.0000 0.80460  0.45070  0.61950  Biso   1.000  H
  H38      1.0000 0.19540  0.54930  0.38050  Biso   1.000  H
  C55      1.0000 0.01240  0.47790  0.61280  Biso   1.000  C
  C56      1.0000 0.98760  0.52210  0.38720  Biso   1.000  C
  H39      1.0000 0.04190  0.53510  0.59890  Biso   1.000  H
  H40      1.0000 0.95810  0.46490  0.40110  Biso   1.000  H
  C57      1.0000 0.09230  0.42730  0.62570  Biso   1.000  C
  C58      1.0000 0.90770  0.57270  0.37430  Biso   1.000  C
  H41      1.0000 0.18700  0.44240  0.62310  Biso   1.000  H
  H42      1.0000 0.81300  0.55760  0.37690  Biso   1.000  H
  C59      1.0000 0.86960  0.24320  0.84050  Biso   1.000  C
  C60      1.0000 0.13040  0.75680  0.15950  Biso   1.000  C
  H43      1.0000 0.79310  0.23680  0.87330  Biso   1.000  H
  H44      1.0000 0.20690  0.76320  0.12670  Biso   1.000  H
  C61      1.0000 0.99320  0.23990  0.86950  Biso   1.000  C
  C62      1.0000 0.00680  0.76010  0.13050  Biso   1.000  C
  H45      1.0000 0.01620  0.23010  0.92340  Biso   1.000  H
  H46      1.0000 0.98380  0.76990  0.07660  Biso   1.000  H
  C63      1.0000 0.07480  0.25370  0.80420  Biso   1.000  C
  C64      1.0000 0.92520  0.74630  0.19580  Biso   1.000  C
  H47      1.0000 0.16660  0.25610  0.80450  Biso   1.000  H
  H48      1.0000 0.83340  0.74390  0.19550  Biso   1.000  H
  C65      1.0000 0.80850  0.05320  0.46670  Biso   1.000  C
  C66      1.0000 0.19150  0.94680  0.53330  Biso   1.000  C
  H49      1.0000 0.71910  0.00710  0.43690  Biso   1.000  H
  H50      1.0000 0.28090  0.99290  0.56310  Biso   1.000  H
  C67      1.0000 0.92460  0.04850  0.42610  Biso   1.000  C
  C68      1.0000 0.07540  0.95150  0.57390  Biso   1.000  C
  H51      1.0000 0.92940  0.00060  0.36460  Biso   1.000  H
  H52      1.0000 0.07060  0.99940  0.63540  Biso   1.000  H
  C69      1.0000 0.03020  0.12560  0.49120  Biso   1.000  C
  C70      1.0000 0.96980  0.87440  0.50880  Biso   1.000  C
  H53      1.0000 0.12380  0.14230  0.48450  Biso   1.000  H
  H54      1.0000 0.87620  0.85770  0.51550  Biso   1.000  H
  C71      1.0000 0.03900  0.27030  0.65140  Biso   1.000  C
  C72      1.0000 0.96100  0.72970  0.34860  Biso   1.000  C
  H55      1.0000 0.14000  0.28740  0.65540  Biso   1.000  H
  H56      1.0000 0.86000  0.71260  0.34460  Biso   1.000  H
  O17      1.0000 0.52220  0.35750  0.21990  Biso   1.000  O
  O18      1.0000 0.47780  0.64250  0.78010  Biso   1.000  O
  O19      1.0000 0.34430  0.35880  0.72420  Biso   1.000  O
  O20      1.0000 0.65570  0.64120  0.27580  Biso   1.000  O
  O21      1.0000 0.31650  0.49710  0.49690  Biso   1.000  O
  O22      1.0000 0.68350  0.50290  0.50310  Biso   1.000  O
  O23      1.0000 0.68060  0.50200  0.00080  Biso   1.000  O
  O24      1.0000 0.31940  0.49800  0.99920  Biso   1.000  O
  O25      1.0000 0.57190  0.49530  0.11730  Biso   1.000  O
  O26      1.0000 0.42810  0.50470  0.88270  Biso   1.000  O
  C73      1.0000 0.54600  0.48550  0.92070  Biso   1.000  C
  C74      1.0000 0.45400  0.51450  0.07930  Biso   1.000  C
  O27      1.0000 0.42120  0.49310  0.61500  Biso   1.000  O
  O28      1.0000 0.57880  0.50690  0.38500  Biso   1.000  O
  C75      1.0000 0.43900  0.48500  0.42170  Biso   1.000  C
  C76      1.0000 0.56100  0.51500  0.57830  Biso   1.000  C
