data_image0
_cell_length_a       17.956
_cell_length_b       17.615
_cell_length_c       10.776
_cell_angle_alpha    90
_cell_angle_beta     90
_cell_angle_gamma    90

_symmetry_space_group_name_H-M    "P 1"
_symmetry_int_tables_number       1

loop_
  _symmetry_equiv_pos_as_xyz
  'x, y, z'

loop_
  _atom_site_label
  _atom_site_occupancy
  _atom_site_fract_x
  _atom_site_fract_y
  _atom_site_fract_z
  _atom_site_thermal_displace_type
  _atom_site_B_iso_or_equiv
  _atom_site_type_symbol
  Cu1      1.0000 0.34057  0.25000  0.34479  Biso   1.000  Cu
  Cu2      1.0000 0.15943  0.75000  0.84479  Biso   1.000  Cu
  Cu3      1.0000 0.65943  0.75000  0.65521  Biso   1.000  Cu
  Cu4      1.0000 0.84057  0.25000  0.15521  Biso   1.000  Cu
  Cu5      1.0000 0.01456  0.75000  0.23402  Biso   1.000  Cu
  Cu6      1.0000 0.48544  0.25000  0.73402  Biso   1.000  Cu
  Cu7      1.0000 0.98544  0.25000  0.76598  Biso   1.000  Cu
  Cu8      1.0000 0.51456  0.75000  0.26598  Biso   1.000  Cu
  N1       1.0000 0.41465  0.32902  0.28870  Biso   1.000  N
  N2       1.0000 0.08535  0.67098  0.78870  Biso   1.000  N
  N3       1.0000 0.58535  0.82902  0.71130  Biso   1.000  N
  N4       1.0000 0.91465  0.17098  0.21130  Biso   1.000  N
  N5       1.0000 0.58535  0.67098  0.71130  Biso   1.000  N
  N6       1.0000 0.91465  0.32902  0.21130  Biso   1.000  N
  N7       1.0000 0.41465  0.17098  0.28870  Biso   1.000  N
  N8       1.0000 0.08535  0.82902  0.78870  Biso   1.000  N
  N9       1.0000 0.46629  0.31710  0.19900  Biso   1.000  N
  N10      1.0000 0.03371  0.68290  0.69900  Biso   1.000  N
  N11      1.0000 0.53371  0.81710  0.80100  Biso   1.000  N
  N12      1.0000 0.96629  0.18290  0.30100  Biso   1.000  N
  N13      1.0000 0.53371  0.68290  0.80100  Biso   1.000  N
  N14      1.0000 0.96629  0.31710  0.30100  Biso   1.000  N
  N15      1.0000 0.46629  0.18290  0.19900  Biso   1.000  N
  N16      1.0000 0.03371  0.81710  0.69900  Biso   1.000  N
  N17      1.0000 0.94741  0.67122  0.15890  Biso   1.000  N
  N18      1.0000 0.55259  0.32878  0.65890  Biso   1.000  N
  N19      1.0000 0.05259  0.17122  0.84110  Biso   1.000  N
  N20      1.0000 0.44741  0.82878  0.34110  Biso   1.000  N
  N21      1.0000 0.05259  0.32878  0.84110  Biso   1.000  N
  N22      1.0000 0.44741  0.67122  0.34110  Biso   1.000  N
  N23      1.0000 0.94741  0.82878  0.15890  Biso   1.000  N
  N24      1.0000 0.55259  0.17122  0.65890  Biso   1.000  N
  N25      1.0000 0.90753  0.68265  0.05370  Biso   1.000  N
  N26      1.0000 0.59247  0.31735  0.55370  Biso   1.000  N
  N27      1.0000 0.09247  0.18265  0.94630  Biso   1.000  N
  N28      1.0000 0.40753  0.81735  0.44630  Biso   1.000  N
  N29      1.0000 0.09247  0.31735  0.94630  Biso   1.000  N
  N30      1.0000 0.40753  0.68265  0.44630  Biso   1.000  N
  N31      1.0000 0.90753  0.81735  0.05370  Biso   1.000  N
  N32      1.0000 0.59247  0.18265  0.55370  Biso   1.000  N
  O1       1.0000 0.27678  0.33105  0.40350  Biso   1.000  O
  O2       1.0000 0.22322  0.66895  0.90350  Biso   1.000  O
  O3       1.0000 0.72322  0.83105  0.59650  Biso   1.000  O
  O4       1.0000 0.77678  0.16895  0.09650  Biso   1.000  O
  O5       1.0000 0.72322  0.66895  0.59650  Biso   1.000  O
  O6       1.0000 0.77678  0.33105  0.09650  Biso   1.000  O
  O7       1.0000 0.27678  0.16895  0.40350  Biso   1.000  O
  O8       1.0000 0.22322  0.83105  0.90350  Biso   1.000  O
  O9       1.0000 0.22110  0.35524  0.22400  Biso   1.000  O
  O10      1.0000 0.27890  0.64476  0.72400  Biso   1.000  O
  O11      1.0000 0.77890  0.85524  0.77600  Biso   1.000  O
  O12      1.0000 0.72110  0.14476  0.27600  Biso   1.000  O
  O13      1.0000 0.77890  0.64476  0.77600  Biso   1.000  O
  O14      1.0000 0.72110  0.35524  0.27600  Biso   1.000  O
  O15      1.0000 0.22110  0.14476  0.22400  Biso   1.000  O
  O16      1.0000 0.27890  0.85524  0.72400  Biso   1.000  O
  O17      1.0000 0.06726  0.67198  0.32560  Biso   1.000  O
  O18      1.0000 0.43274  0.32802  0.82560  Biso   1.000  O
  O19      1.0000 0.93274  0.17198  0.67440  Biso   1.000  O
  O20      1.0000 0.56726  0.82802  0.17440  Biso   1.000  O
  O21      1.0000 0.93274  0.32802  0.67440  Biso   1.000  O
  O22      1.0000 0.56726  0.67198  0.17440  Biso   1.000  O
  O23      1.0000 0.06726  0.82802  0.32560  Biso   1.000  O
  O24      1.0000 0.43274  0.17198  0.82560  Biso   1.000  O
  O25      1.0000 0.12550  0.61999  0.16320  Biso   1.000  O
  O26      1.0000 0.37450  0.38001  0.66320  Biso   1.000  O
  O27      1.0000 0.87450  0.11999  0.83680  Biso   1.000  O
  O28      1.0000 0.62550  0.88001  0.33680  Biso   1.000  O
  O29      1.0000 0.87450  0.38001  0.83680  Biso   1.000  O
  O30      1.0000 0.62550  0.61999  0.33680  Biso   1.000  O
  O31      1.0000 0.12550  0.88001  0.16320  Biso   1.000  O
  O32      1.0000 0.37450  0.11999  0.66320  Biso   1.000  O
  C1       1.0000 0.45910  0.25000  0.12110  Biso   1.000  C
  C2       1.0000 0.04090  0.75000  0.62110  Biso   1.000  C
  C3       1.0000 0.54090  0.75000  0.87890  Biso   1.000  C
  C4       1.0000 0.95910  0.25000  0.37890  Biso   1.000  C
  H1       1.0000 0.49760  0.25000  0.05790  Biso   1.000  H
  H2       1.0000 0.00240  0.75000  0.55790  Biso   1.000  H
  H3       1.0000 0.50240  0.75000  0.94210  Biso   1.000  H
  H4       1.0000 0.99760  0.25000  0.44210  Biso   1.000  H
  H5       1.0000 0.41100  0.25000  0.08020  Biso   1.000  H
  H6       1.0000 0.08900  0.75000  0.58020  Biso   1.000  H
  H7       1.0000 0.58900  0.75000  0.91980  Biso   1.000  H
  H8       1.0000 0.91100  0.25000  0.41980  Biso   1.000  H
  C5       1.0000 0.51940  0.37070  0.20140  Biso   1.000  C
  C6       1.0000 0.98060  0.62930  0.70140  Biso   1.000  C
  C7       1.0000 0.48060  0.87070  0.79860  Biso   1.000  C
  C8       1.0000 0.01940  0.12930  0.29860  Biso   1.000  C
  C9       1.0000 0.48060  0.62930  0.79860  Biso   1.000  C
  C10      1.0000 0.01940  0.37070  0.29860  Biso   1.000  C
  C11      1.0000 0.51940  0.12930  0.20140  Biso   1.000  C
  C12      1.0000 0.98060  0.87070  0.70140  Biso   1.000  C
  H9       1.0000 0.56030  0.37440  0.14870  Biso   1.000  H
  H10      1.0000 0.93970  0.62560  0.64870  Biso   1.000  H
  H11      1.0000 0.43970  0.87440  0.85130  Biso   1.000  H
  H12      1.0000 0.06030  0.12560  0.35130  Biso   1.000  H
  H13      1.0000 0.43970  0.62560  0.85130  Biso   1.000  H
  H14      1.0000 0.06030  0.37440  0.35130  Biso   1.000  H
  H15      1.0000 0.56030  0.12560  0.14870  Biso   1.000  H
  H16      1.0000 0.93970  0.87440  0.64870  Biso   1.000  H
  C13      1.0000 0.50190  0.41860  0.29580  Biso   1.000  C
  C14      1.0000 0.99810  0.58140  0.79580  Biso   1.000  C
  C15      1.0000 0.49810  0.91860  0.70420  Biso   1.000  C
  C16      1.0000 0.00190  0.08140  0.20420  Biso   1.000  C
  C17      1.0000 0.49810  0.58140  0.70420  Biso   1.000  C
  C18      1.0000 0.00190  0.41860  0.20420  Biso   1.000  C
  C19      1.0000 0.50190  0.08140  0.29580  Biso   1.000  C
  C20      1.0000 0.99810  0.91860  0.79580  Biso   1.000  C
  H17      1.0000 0.52810  0.46170  0.31990  Biso   1.000  H
  H18      1.0000 0.97190  0.53830  0.81990  Biso   1.000  H
  H19      1.0000 0.47190  0.96170  0.68010  Biso   1.000  H
  H20      1.0000 0.02810  0.03830  0.18010  Biso   1.000  H
  H21      1.0000 0.47190  0.53830  0.68010  Biso   1.000  H
  H22      1.0000 0.02810  0.46170  0.18010  Biso   1.000  H
  H23      1.0000 0.52810  0.03830  0.31990  Biso   1.000  H
  H24      1.0000 0.97190  0.96170  0.81990  Biso   1.000  H
  C21      1.0000 0.43760  0.39050  0.34880  Biso   1.000  C
  C22      1.0000 0.06240  0.60950  0.84880  Biso   1.000  C
  C23      1.0000 0.56240  0.89050  0.65120  Biso   1.000  C
  C24      1.0000 0.93760  0.10950  0.15120  Biso   1.000  C
  C25      1.0000 0.56240  0.60950  0.65120  Biso   1.000  C
  C26      1.0000 0.93760  0.39050  0.15120  Biso   1.000  C
  C27      1.0000 0.43760  0.10950  0.34880  Biso   1.000  C
  C28      1.0000 0.06240  0.89050  0.84880  Biso   1.000  C
  H25      1.0000 0.41360  0.41180  0.41700  Biso   1.000  H
  H26      1.0000 0.08640  0.58820  0.91700  Biso   1.000  H
  H27      1.0000 0.58640  0.91180  0.58300  Biso   1.000  H
  H28      1.0000 0.91360  0.08820  0.08300  Biso   1.000  H
  H29      1.0000 0.58640  0.58820  0.58300  Biso   1.000  H
  H30      1.0000 0.91360  0.41180  0.08300  Biso   1.000  H
  H31      1.0000 0.41360  0.08820  0.41700  Biso   1.000  H
  H32      1.0000 0.08640  0.91180  0.91700  Biso   1.000  H
  C29      1.0000 0.92180  0.75000  0.97920  Biso   1.000  C
  C30      1.0000 0.57820  0.25000  0.47920  Biso   1.000  C
  C31      1.0000 0.07820  0.25000  0.02080  Biso   1.000  C
  C32      1.0000 0.42180  0.75000  0.52080  Biso   1.000  C
  H33      1.0000 0.97320  0.75000  0.95120  Biso   1.000  H
  H34      1.0000 0.52680  0.25000  0.45120  Biso   1.000  H
  H35      1.0000 0.02680  0.25000  0.04880  Biso   1.000  H
  H36      1.0000 0.47320  0.75000  0.54880  Biso   1.000  H
  H37      1.0000 0.88980  0.75000  0.90670  Biso   1.000  H
  H38      1.0000 0.61020  0.25000  0.40670  Biso   1.000  H
  H39      1.0000 0.11020  0.25000  0.09330  Biso   1.000  H
  H40      1.0000 0.38980  0.75000  0.59330  Biso   1.000  H
  C33      1.0000 0.85860  0.62690  0.03470  Biso   1.000  C
  C34      1.0000 0.64140  0.37310  0.53470  Biso   1.000  C
  C35      1.0000 0.14140  0.12690  0.96530  Biso   1.000  C
  C36      1.0000 0.35860  0.87310  0.46530  Biso   1.000  C
  C37      1.0000 0.14140  0.37310  0.96530  Biso   1.000  C
  C38      1.0000 0.35860  0.62690  0.46530  Biso   1.000  C
  C39      1.0000 0.85860  0.87310  0.03470  Biso   1.000  C
  C40      1.0000 0.64140  0.12690  0.53470  Biso   1.000  C
  H41      1.0000 0.82530  0.62290  0.96880  Biso   1.000  H
  H42      1.0000 0.67470  0.37710  0.46880  Biso   1.000  H
  H43      1.0000 0.17470  0.12290  0.03120  Biso   1.000  H
  H44      1.0000 0.32530  0.87710  0.53120  Biso   1.000  H
  H45      1.0000 0.17470  0.37710  0.03120  Biso   1.000  H
  H46      1.0000 0.32530  0.62290  0.53120  Biso   1.000  H
  H47      1.0000 0.82530  0.87710  0.96880  Biso   1.000  H
  H48      1.0000 0.67470  0.12290  0.46880  Biso   1.000  H
  C41      1.0000 0.86650  0.57700  0.13040  Biso   1.000  C
  C42      1.0000 0.63350  0.42300  0.63040  Biso   1.000  C
  C43      1.0000 0.13350  0.07700  0.86960  Biso   1.000  C
  C44      1.0000 0.36650  0.92300  0.36960  Biso   1.000  C
  C45      1.0000 0.13350  0.42300  0.86960  Biso   1.000  C
  C46      1.0000 0.36650  0.57700  0.36960  Biso   1.000  C
  C47      1.0000 0.86650  0.92300  0.13040  Biso   1.000  C
  C48      1.0000 0.63350  0.07700  0.63040  Biso   1.000  C
  H49      1.0000 0.84030  0.53210  0.14280  Biso   1.000  H
  H50      1.0000 0.65970  0.46790  0.64280  Biso   1.000  H
  H51      1.0000 0.15970  0.03210  0.85720  Biso   1.000  H
  H52      1.0000 0.34030  0.96790  0.35720  Biso   1.000  H
  H53      1.0000 0.15970  0.46790  0.85720  Biso   1.000  H
  H54      1.0000 0.34030  0.53210  0.35720  Biso   1.000  H
  H55      1.0000 0.84030  0.96790  0.14280  Biso   1.000  H
  H56      1.0000 0.65970  0.03210  0.64280  Biso   1.000  H
  C49      1.0000 0.92170  0.60690  0.20490  Biso   1.000  C
  C50      1.0000 0.57830  0.39310  0.70490  Biso   1.000  C
  C51      1.0000 0.07830  0.10690  0.79510  Biso   1.000  C
  C52      1.0000 0.42170  0.89310  0.29510  Biso   1.000  C
  C53      1.0000 0.07830  0.39310  0.79510  Biso   1.000  C
  C54      1.0000 0.42170  0.60690  0.29510  Biso   1.000  C
  C55      1.0000 0.92170  0.89310  0.20490  Biso   1.000  C
  C56      1.0000 0.57830  0.10690  0.70490  Biso   1.000  C
  H57      1.0000 0.93850  0.58470  0.27800  Biso   1.000  H
  H58      1.0000 0.56150  0.41530  0.77800  Biso   1.000  H
  H59      1.0000 0.06150  0.08470  0.72200  Biso   1.000  H
  H60      1.0000 0.43850  0.91530  0.22200  Biso   1.000  H
  H61      1.0000 0.06150  0.41530  0.72200  Biso   1.000  H
  H62      1.0000 0.43850  0.58470  0.22200  Biso   1.000  H
  H63      1.0000 0.93850  0.91530  0.27800  Biso   1.000  H
  H64      1.0000 0.56150  0.08470  0.77800  Biso   1.000  H
  C57      1.0000 0.23560  0.37030  0.33270  Biso   1.000  C
  C58      1.0000 0.26440  0.62970  0.83270  Biso   1.000  C
  C59      1.0000 0.76440  0.87030  0.66730  Biso   1.000  C
  C60      1.0000 0.73560  0.12970  0.16730  Biso   1.000  C
  C61      1.0000 0.76440  0.62970  0.66730  Biso   1.000  C
  C62      1.0000 0.73560  0.37030  0.16730  Biso   1.000  C
  C63      1.0000 0.23560  0.12970  0.33270  Biso   1.000  C
  C64      1.0000 0.26440  0.87030  0.83270  Biso   1.000  C
  C65      1.0000 0.20320  0.44180  0.38850  Biso   1.000  C
  C66      1.0000 0.29680  0.55820  0.88850  Biso   1.000  C
  C67      1.0000 0.79680  0.94180  0.61150  Biso   1.000  C
  C68      1.0000 0.70320  0.05820  0.11150  Biso   1.000  C
  C69      1.0000 0.79680  0.55820  0.61150  Biso   1.000  C
  C70      1.0000 0.70320  0.44180  0.11150  Biso   1.000  C
  C71      1.0000 0.20320  0.05820  0.38850  Biso   1.000  C
  C72      1.0000 0.29680  0.94180  0.88850  Biso   1.000  C
  C73      1.0000 0.17180  0.49660  0.31120  Biso   1.000  C
  C74      1.0000 0.32820  0.50340  0.81120  Biso   1.000  C
  C75      1.0000 0.82820  0.99660  0.68880  Biso   1.000  C
  C76      1.0000 0.67180  0.00340  0.18880  Biso   1.000  C
  C77      1.0000 0.82820  0.50340  0.68880  Biso   1.000  C
  C78      1.0000 0.67180  0.49660  0.18880  Biso   1.000  C
  C79      1.0000 0.17180  0.00340  0.31120  Biso   1.000  C
  C80      1.0000 0.32820  0.99660  0.81120  Biso   1.000  C
  H65      1.0000 0.17140  0.48880  0.22590  Biso   1.000  H
  H66      1.0000 0.32860  0.51120  0.72590  Biso   1.000  H
  H67      1.0000 0.82860  0.98880  0.77410  Biso   1.000  H
  H68      1.0000 0.67140  0.01120  0.27410  Biso   1.000  H
  H69      1.0000 0.82860  0.51120  0.77410  Biso   1.000  H
  H70      1.0000 0.67140  0.48880  0.27410  Biso   1.000  H
  H71      1.0000 0.17140  0.01120  0.22590  Biso   1.000  H
  H72      1.0000 0.32860  0.98880  0.72590  Biso   1.000  H
  C81      1.0000 0.14130  0.56280  0.35980  Biso   1.000  C
  C82      1.0000 0.35870  0.43720  0.85980  Biso   1.000  C
  C83      1.0000 0.85870  0.06280  0.64020  Biso   1.000  C
  C84      1.0000 0.64130  0.93720  0.14020  Biso   1.000  C
  C85      1.0000 0.85870  0.43720  0.64020  Biso   1.000  C
  C86      1.0000 0.64130  0.56280  0.14020  Biso   1.000  C
  C87      1.0000 0.14130  0.93720  0.35980  Biso   1.000  C
  C88      1.0000 0.35870  0.06280  0.85980  Biso   1.000  C
  C89      1.0000 0.14270  0.57340  0.48600  Biso   1.000  C
  C90      1.0000 0.35730  0.42660  0.98600  Biso   1.000  C
  C91      1.0000 0.85730  0.07340  0.51400  Biso   1.000  C
  C92      1.0000 0.64270  0.92660  0.01400  Biso   1.000  C
  C93      1.0000 0.85730  0.42660  0.51400  Biso   1.000  C
  C94      1.0000 0.64270  0.57340  0.01400  Biso   1.000  C
  C95      1.0000 0.14270  0.92660  0.48600  Biso   1.000  C
  C96      1.0000 0.35730  0.07340  0.98600  Biso   1.000  C
  H73      1.0000 0.12150  0.61680  0.51990  Biso   1.000  H
  H74      1.0000 0.37850  0.38320  0.01990  Biso   1.000  H
  H75      1.0000 0.87850  0.11680  0.48010  Biso   1.000  H
  H76      1.0000 0.62150  0.88320  0.98010  Biso   1.000  H
  H77      1.0000 0.87850  0.38320  0.48010  Biso   1.000  H
  H78      1.0000 0.62150  0.61680  0.98010  Biso   1.000  H
  H79      1.0000 0.12150  0.88320  0.51990  Biso   1.000  H
  H80      1.0000 0.37850  0.11680  0.01990  Biso   1.000  H
  C97      1.0000 0.17510  0.52070  0.56310  Biso   1.000  C
  C98      1.0000 0.32490  0.47930  0.06310  Biso   1.000  C
  C99      1.0000 0.82490  0.02070  0.43690  Biso   1.000  C
  C100     1.0000 0.67510  0.97930  0.93690  Biso   1.000  C
  C101     1.0000 0.82490  0.47930  0.43690  Biso   1.000  C
  C102     1.0000 0.67510  0.52070  0.93690  Biso   1.000  C
  C103     1.0000 0.17510  0.97930  0.56310  Biso   1.000  C
  C104     1.0000 0.32490  0.02070  0.06310  Biso   1.000  C
  H81      1.0000 0.17660  0.52920  0.64820  Biso   1.000  H
  H82      1.0000 0.32340  0.47080  0.14820  Biso   1.000  H
  H83      1.0000 0.82340  0.02920  0.35180  Biso   1.000  H
  H84      1.0000 0.67660  0.97080  0.85180  Biso   1.000  H
  H85      1.0000 0.82340  0.47080  0.35180  Biso   1.000  H
  H86      1.0000 0.67660  0.52920  0.85180  Biso   1.000  H
  H87      1.0000 0.17660  0.97080  0.64820  Biso   1.000  H
  H88      1.0000 0.32340  0.02920  0.14820  Biso   1.000  H
  C105     1.0000 0.20550  0.45490  0.51410  Biso   1.000  C
  C106     1.0000 0.29450  0.54510  0.01410  Biso   1.000  C
  C107     1.0000 0.79450  0.95490  0.48590  Biso   1.000  C
  C108     1.0000 0.70550  0.04510  0.98590  Biso   1.000  C
  C109     1.0000 0.79450  0.54510  0.48590  Biso   1.000  C
  C110     1.0000 0.70550  0.45490  0.98590  Biso   1.000  C
  C111     1.0000 0.20550  0.04510  0.51410  Biso   1.000  C
  C112     1.0000 0.29450  0.95490  0.01410  Biso   1.000  C
  H89      1.0000 0.22760  0.41950  0.56640  Biso   1.000  H
  H90      1.0000 0.27240  0.58050  0.06640  Biso   1.000  H
  H91      1.0000 0.77240  0.91950  0.43360  Biso   1.000  H
  H92      1.0000 0.72760  0.08050  0.93360  Biso   1.000  H
  H93      1.0000 0.77240  0.58050  0.43360  Biso   1.000  H
  H94      1.0000 0.72760  0.41950  0.93360  Biso   1.000  H
  H95      1.0000 0.22760  0.08050  0.56640  Biso   1.000  H
  H96      1.0000 0.27240  0.91950  0.06640  Biso   1.000  H
  C113     1.0000 0.10880  0.62230  0.27470  Biso   1.000  C
  C114     1.0000 0.39120  0.37770  0.77470  Biso   1.000  C
  C115     1.0000 0.89120  0.12230  0.72530  Biso   1.000  C
  C116     1.0000 0.60880  0.87770  0.22530  Biso   1.000  C
  C117     1.0000 0.89120  0.37770  0.72530  Biso   1.000  C
  C118     1.0000 0.60880  0.62230  0.22530  Biso   1.000  C
  C119     1.0000 0.10880  0.87770  0.27470  Biso   1.000  C
  C120     1.0000 0.39120  0.12230  0.77470  Biso   1.000  C
  O33      1.0000 0.40320  0.25000  0.54090  Biso   1.000  O
  O34      1.0000 0.09680  0.75000  0.04090  Biso   1.000  O
  O35      1.0000 0.59680  0.75000  0.45910  Biso   1.000  O
  O36      1.0000 0.90320  0.25000  0.95910  Biso   1.000  O
  H97      1.0000 0.39350  0.20040  0.57650  Biso   1.000  H
  H98      1.0000 0.10650  0.79960  0.07650  Biso   1.000  H
  H99      1.0000 0.60650  0.70040  0.42350  Biso   1.000  H
  H100     1.0000 0.89350  0.29960  0.92350  Biso   1.000  H
  H101     1.0000 0.60650  0.79960  0.42350  Biso   1.000  H
  H102     1.0000 0.89350  0.20040  0.92350  Biso   1.000  H
  H103     1.0000 0.39350  0.29960  0.57650  Biso   1.000  H
  H104     1.0000 0.10650  0.70040  0.07650  Biso   1.000  H
  C121     1.0000 0.15890  0.25000  0.61070  Biso   1.000  C
  C122     1.0000 0.34110  0.75000  0.11070  Biso   1.000  C
  C123     1.0000 0.84110  0.75000  0.38930  Biso   1.000  C
  C124     1.0000 0.65890  0.25000  0.88930  Biso   1.000  C
  C125     1.0000 0.22490  0.25000  0.68690  Biso   1.000  C
  C126     1.0000 0.27510  0.75000  0.18690  Biso   1.000  C
  C127     1.0000 0.77510  0.75000  0.31310  Biso   1.000  C
  C128     1.0000 0.72490  0.25000  0.81310  Biso   1.000  C
  H105     1.0000 0.24320  0.19900  0.69510  Biso   1.000  H
  H106     1.0000 0.25680  0.80100  0.19510  Biso   1.000  H
  H107     1.0000 0.75680  0.69900  0.30490  Biso   1.000  H
  H108     1.0000 0.74320  0.30100  0.80490  Biso   1.000  H
  H109     1.0000 0.75680  0.80100  0.30490  Biso   1.000  H
  H110     1.0000 0.74320  0.19900  0.80490  Biso   1.000  H
  H111     1.0000 0.24320  0.30100  0.69510  Biso   1.000  H
  H112     1.0000 0.25680  0.69900  0.19510  Biso   1.000  H
  H113     1.0000 0.21300  0.26980  0.76750  Biso   1.000  H
  H114     1.0000 0.28700  0.73020  0.26750  Biso   1.000  H
  H115     1.0000 0.78700  0.76980  0.23250  Biso   1.000  H
  H116     1.0000 0.71300  0.23020  0.73250  Biso   1.000  H
  H117     1.0000 0.78700  0.73020  0.23250  Biso   1.000  H
  H118     1.0000 0.71300  0.26980  0.73250  Biso   1.000  H
  H119     1.0000 0.21300  0.23020  0.76750  Biso   1.000  H
  H120     1.0000 0.28700  0.76980  0.26750  Biso   1.000  H
  H121     1.0000 0.26240  0.28110  0.64890  Biso   1.000  H
  H122     1.0000 0.23760  0.71890  0.14890  Biso   1.000  H
  H123     1.0000 0.73760  0.78110  0.35110  Biso   1.000  H
  H124     1.0000 0.76240  0.21890  0.85110  Biso   1.000  H
  H125     1.0000 0.73760  0.71890  0.35110  Biso   1.000  H
  H126     1.0000 0.76240  0.28110  0.85110  Biso   1.000  H
  H127     1.0000 0.26240  0.21890  0.64890  Biso   1.000  H
  H128     1.0000 0.23760  0.78110  0.14890  Biso   1.000  H
  N33      1.0000 0.10720  0.25000  0.55440  Biso   1.000  N
  N34      1.0000 0.39280  0.75000  0.05440  Biso   1.000  N
  N35      1.0000 0.89280  0.75000  0.44560  Biso   1.000  N
  N36      1.0000 0.60720  0.25000  0.94560  Biso   1.000  N
  O37      1.0000 0.28460  0.25000  0.07310  Biso   1.000  O
  O38      1.0000 0.21540  0.75000  0.57310  Biso   1.000  O
  O39      1.0000 0.71540  0.75000  0.92690  Biso   1.000  O
  O40      1.0000 0.78460  0.25000  0.42690  Biso   1.000  O
  H129     1.0000 0.29060  0.21110  0.12340  Biso   1.000  H
  H130     1.0000 0.20940  0.78890  0.62340  Biso   1.000  H
  H131     1.0000 0.70940  0.71110  0.87660  Biso   1.000  H
  H132     1.0000 0.79060  0.28890  0.37660  Biso   1.000  H
  H133     1.0000 0.70940  0.78890  0.87660  Biso   1.000  H
  H134     1.0000 0.79060  0.21110  0.37660  Biso   1.000  H
  H135     1.0000 0.29060  0.28890  0.12340  Biso   1.000  H
  H136     1.0000 0.20940  0.71110  0.62340  Biso   1.000  H
