data_image0
_cell_length_a       8.833
_cell_length_b       10.9076
_cell_length_c       13.3956
_cell_angle_alpha    77.563
_cell_angle_beta     86.082
_cell_angle_gamma    66.593

_symmetry_space_group_name_H-M    "P 1"
_symmetry_int_tables_number       1

loop_
  _symmetry_equiv_pos_as_xyz
  'x, y, z'

loop_
  _atom_site_label
  _atom_site_occupancy
  _atom_site_fract_x
  _atom_site_fract_y
  _atom_site_fract_z
  _atom_site_thermal_displace_type
  _atom_site_B_iso_or_equiv
  _atom_site_type_symbol
  C1       1.0000 0.25460  0.45120  0.39150  Biso   1.000  C
  C2       1.0000 0.74540  0.54880  0.60850  Biso   1.000  C
  C3       1.0000 0.22160  0.46460  0.49270  Biso   1.000  C
  C4       1.0000 0.77840  0.53540  0.50730  Biso   1.000  C
  H1       1.0000 0.21730  0.54240  0.51270  Biso   1.000  H
  H2       1.0000 0.78270  0.45760  0.48730  Biso   1.000  H
  C5       1.0000 0.19540  0.36320  0.56310  Biso   1.000  C
  C6       1.0000 0.80460  0.63680  0.43690  Biso   1.000  C
  H3       1.0000 0.17490  0.37180  0.63080  Biso   1.000  H
  H4       1.0000 0.82510  0.62820  0.36920  Biso   1.000  H
  C7       1.0000 0.19950  0.25040  0.53330  Biso   1.000  C
  C8       1.0000 0.80050  0.74960  0.46670  Biso   1.000  C
  H5       1.0000 0.17890  0.18310  0.58070  Biso   1.000  H
  H6       1.0000 0.82110  0.81690  0.41930  Biso   1.000  H
  C9       1.0000 0.23380  0.23420  0.43420  Biso   1.000  C
  C10      1.0000 0.76620  0.76580  0.56580  Biso   1.000  C
  H7       1.0000 0.23700  0.15590  0.41560  Biso   1.000  H
  H8       1.0000 0.76300  0.84410  0.58440  Biso   1.000  H
  C11      1.0000 0.26360  0.33350  0.36160  Biso   1.000  C
  C12      1.0000 0.73640  0.66650  0.63840  Biso   1.000  C
  C13      1.0000 0.27650  0.20770  0.13860  Biso   1.000  C
  C14      1.0000 0.72350  0.79230  0.86140  Biso   1.000  C
  C15      1.0000 0.40370  0.22050  0.07170  Biso   1.000  C
  C16      1.0000 0.59630  0.77950  0.92830  Biso   1.000  C
  C17      1.0000 0.38900  0.17630  0.97770  Biso   1.000  C
  C18      1.0000 0.61100  0.82370  0.02230  Biso   1.000  C
  C19      1.0000 0.47800  0.17890  0.88860  Biso   1.000  C
  C20      1.0000 0.52200  0.82110  0.11140  Biso   1.000  C
  H9       1.0000 0.56630  0.20590  0.88280  Biso   1.000  H
  H10      1.0000 0.43370  0.79410  0.11720  Biso   1.000  H
  C21      1.0000 0.43050  0.14010  0.80900  Biso   1.000  C
  C22      1.0000 0.56950  0.85990  0.19100  Biso   1.000  C
  H11      1.0000 0.48690  0.14190  0.74780  Biso   1.000  H
  H12      1.0000 0.51310  0.85810  0.25220  Biso   1.000  H
  C23      1.0000 0.30100  0.09840  0.81790  Biso   1.000  C
  C24      1.0000 0.69900  0.90160  0.18210  Biso   1.000  C
  H13      1.0000 0.27240  0.07240  0.76270  Biso   1.000  H
  H14      1.0000 0.72760  0.92760  0.23730  Biso   1.000  H
  C25      1.0000 0.21230  0.09440  0.90710  Biso   1.000  C
  C26      1.0000 0.78770  0.90560  0.09290  Biso   1.000  C
  H15      1.0000 0.12520  0.06610  0.91290  Biso   1.000  H
  H16      1.0000 0.87480  0.93390  0.08710  Biso   1.000  H
  C27      1.0000 0.25910  0.13450  0.98750  Biso   1.000  C
  C28      1.0000 0.74090  0.86550  0.01250  Biso   1.000  C
  C29      1.0000 0.18700  0.14520  0.09120  Biso   1.000  C
  C30      1.0000 0.81300  0.85480  0.90880  Biso   1.000  C
  C31      1.0000 0.66870  0.22310  0.41810  Biso   1.000  C
  C32      1.0000 0.33130  0.77690  0.58190  Biso   1.000  C
  H17      1.0000 0.57270  0.28590  0.43980  Biso   1.000  H
  H18      1.0000 0.42730  0.71410  0.56020  Biso   1.000  H
  C33      1.0000 0.78910  0.13860  0.49020  Biso   1.000  C
  C34      1.0000 0.21090  0.86140  0.50980  Biso   1.000  C
  H19      1.0000 0.77210  0.14460  0.55860  Biso   1.000  H
  H20      1.0000 0.22790  0.85540  0.44140  Biso   1.000  H
  C35      1.0000 0.93370  0.04570  0.46200  Biso   1.000  C
  C36      1.0000 0.06630  0.95430  0.53800  Biso   1.000  C
  C37      1.0000 0.94760  0.04270  0.35950  Biso   1.000  C
  C38      1.0000 0.05240  0.95730  0.64050  Biso   1.000  C
  H21      1.0000 0.04310  0.98180  0.33560  Biso   1.000  H
  H22      1.0000 0.95690  0.01820  0.66440  Biso   1.000  H
  C39      1.0000 0.82080  0.12960  0.29280  Biso   1.000  C
  C40      1.0000 0.17920  0.87040  0.70720  Biso   1.000  C
  H23      1.0000 0.83380  0.12420  0.22410  Biso   1.000  H
  H24      1.0000 0.16620  0.87580  0.77590  Biso   1.000  H
  C41      1.0000 0.75630  0.46780  0.16760  Biso   1.000  C
  C42      1.0000 0.24370  0.53220  0.83240  Biso   1.000  C
  H25      1.0000 0.72500  0.48250  0.23310  Biso   1.000  H
  H26      1.0000 0.27500  0.51750  0.76690  Biso   1.000  H
  C43      1.0000 0.88300  0.50220  0.12390  Biso   1.000  C
  C44      1.0000 0.11700  0.49780  0.87610  Biso   1.000  C
  H27      1.0000 0.93590  0.53840  0.15980  Biso   1.000  H
  H28      1.0000 0.06410  0.46160  0.84020  Biso   1.000  H
  C45      1.0000 0.93170  0.48270  0.02580  Biso   1.000  C
  C46      1.0000 0.06830  0.51730  0.97420  Biso   1.000  C
  C47      1.0000 0.84640  0.42890  0.97750  Biso   1.000  C
  C48      1.0000 0.15360  0.57110  0.02250  Biso   1.000  C
  H29      1.0000 0.87350  0.41480  0.91140  Biso   1.000  H
  H30      1.0000 0.12650  0.58520  0.08860  Biso   1.000  H
  C49      1.0000 0.72200  0.39660  0.02660  Biso   1.000  C
  C50      1.0000 0.27800  0.60340  0.97340  Biso   1.000  C
  H31      1.0000 0.66700  0.36030  0.99240  Biso   1.000  H
  H32      1.0000 0.33300  0.63970  0.00760  Biso   1.000  H
  N1       1.0000 0.30990  0.31180  0.26069  Biso   1.000  N
  N2       1.0000 0.69010  0.68820  0.73931  Biso   1.000  N
  N3       1.0000 0.23760  0.24470  0.22840  Biso   1.000  N
  N4       1.0000 0.76240  0.75530  0.77160  Biso   1.000  N
  N5       1.0000 0.68170  0.22020  0.31923  Biso   1.000  N
  N6       1.0000 0.31830  0.77980  0.68077  Biso   1.000  N
  N7       1.0000 0.67550  0.41440  0.12119  Biso   1.000  N
  N8       1.0000 0.32450  0.58560  0.87881  Biso   1.000  N
  O1       1.0000 0.51150  0.26160  0.08700  Biso   1.000  O
  O2       1.0000 0.48850  0.73840  0.91300  Biso   1.000  O
  O3       1.0000 0.07760  0.10910  0.12660  Biso   1.000  O
  O4       1.0000 0.92240  0.89090  0.87340  Biso   1.000  O
  O5       1.0000 0.28640  0.68190  0.35690  Biso   1.000  O
  O6       1.0000 0.71360  0.31810  0.64310  Biso   1.000  O
  O7       1.0000 0.11750  0.64560  0.24080  Biso   1.000  O
  O8       1.0000 0.88250  0.35440  0.75920  Biso   1.000  O
  O9       1.0000 0.41190  0.53330  0.24100  Biso   1.000  O
  O10      1.0000 0.58810  0.46670  0.75900  Biso   1.000  O
  S1       1.0000 0.26751  0.59148  0.30198  Biso   1.000  S
  S2       1.0000 0.73249  0.40852  0.69802  Biso   1.000  S
  Cu1      1.0000 0.49799  0.35745  0.19687  Biso   1.000  Cu
  Cu2      1.0000 0.50201  0.64255  0.80313  Biso   1.000  Cu
