data_image0
_cell_length_a       24.638
_cell_length_b       19.9545
_cell_length_c       7.9009
_cell_angle_alpha    90
_cell_angle_beta     90
_cell_angle_gamma    90

_symmetry_space_group_name_H-M    "P 1"
_symmetry_int_tables_number       1

loop_
  _symmetry_equiv_pos_as_xyz
  'x, y, z'

loop_
  _atom_site_label
  _atom_site_occupancy
  _atom_site_fract_x
  _atom_site_fract_y
  _atom_site_fract_z
  _atom_site_thermal_displace_type
  _atom_site_B_iso_or_equiv
  _atom_site_type_symbol
  C1       1.0000 0.19500  0.08920  0.07310  Biso   1.000  C
  C2       1.0000 0.30500  0.91080  0.57310  Biso   1.000  C
  C3       1.0000 0.69500  0.41080  0.42690  Biso   1.000  C
  C4       1.0000 0.80500  0.58920  0.92690  Biso   1.000  C
  C5       1.0000 0.80500  0.91080  0.92690  Biso   1.000  C
  C6       1.0000 0.69500  0.08920  0.42690  Biso   1.000  C
  C7       1.0000 0.30500  0.58920  0.57310  Biso   1.000  C
  C8       1.0000 0.19500  0.41080  0.07310  Biso   1.000  C
  C9       1.0000 0.13590  0.10330  0.06420  Biso   1.000  C
  C10      1.0000 0.36410  0.89670  0.56420  Biso   1.000  C
  C11      1.0000 0.63590  0.39670  0.43580  Biso   1.000  C
  C12      1.0000 0.86410  0.60330  0.93580  Biso   1.000  C
  C13      1.0000 0.86410  0.89670  0.93580  Biso   1.000  C
  C14      1.0000 0.63590  0.10330  0.43580  Biso   1.000  C
  C15      1.0000 0.36410  0.60330  0.56420  Biso   1.000  C
  C16      1.0000 0.13590  0.39670  0.06420  Biso   1.000  C
  C17      1.0000 0.10650  0.15620  0.12500  Biso   1.000  C
  C18      1.0000 0.39350  0.84380  0.62500  Biso   1.000  C
  C19      1.0000 0.60650  0.34380  0.37500  Biso   1.000  C
  C20      1.0000 0.89350  0.65620  0.87500  Biso   1.000  C
  C21      1.0000 0.89350  0.84380  0.87500  Biso   1.000  C
  C22      1.0000 0.60650  0.15620  0.37500  Biso   1.000  C
  C23      1.0000 0.39350  0.65620  0.62500  Biso   1.000  C
  C24      1.0000 0.10650  0.34380  0.12500  Biso   1.000  C
  H1       1.0000 0.12300  0.19060  0.18560  Biso   1.000  H
  H2       1.0000 0.37700  0.80940  0.68560  Biso   1.000  H
  H3       1.0000 0.62300  0.30940  0.31440  Biso   1.000  H
  H4       1.0000 0.87700  0.69060  0.81440  Biso   1.000  H
  H5       1.0000 0.87700  0.80940  0.81440  Biso   1.000  H
  H6       1.0000 0.62300  0.19060  0.31440  Biso   1.000  H
  H7       1.0000 0.37700  0.69060  0.68560  Biso   1.000  H
  H8       1.0000 0.12300  0.30940  0.18560  Biso   1.000  H
  C25      1.0000 0.05090  0.15650  0.09260  Biso   1.000  C
  C26      1.0000 0.44910  0.84350  0.59260  Biso   1.000  C
  C27      1.0000 0.55090  0.34350  0.40740  Biso   1.000  C
  C28      1.0000 0.94910  0.65650  0.90740  Biso   1.000  C
  C29      1.0000 0.94910  0.84350  0.90740  Biso   1.000  C
  C30      1.0000 0.55090  0.15650  0.40740  Biso   1.000  C
  C31      1.0000 0.44910  0.65650  0.59260  Biso   1.000  C
  C32      1.0000 0.05090  0.34350  0.09260  Biso   1.000  C
  H9       1.0000 0.02970  0.19110  0.13560  Biso   1.000  H
  H10      1.0000 0.47030  0.80890  0.63560  Biso   1.000  H
  H11      1.0000 0.52970  0.30890  0.36440  Biso   1.000  H
  H12      1.0000 0.97030  0.69110  0.86440  Biso   1.000  H
  H13      1.0000 0.97030  0.80890  0.86440  Biso   1.000  H
  H14      1.0000 0.52970  0.19110  0.36440  Biso   1.000  H
  H15      1.0000 0.47030  0.69110  0.63560  Biso   1.000  H
  H16      1.0000 0.02970  0.30890  0.13560  Biso   1.000  H
  C33      1.0000 0.02660  0.10700  0.99870  Biso   1.000  C
  C34      1.0000 0.47340  0.89300  0.49870  Biso   1.000  C
  C35      1.0000 0.52660  0.39300  0.50130  Biso   1.000  C
  C36      1.0000 0.97340  0.60700  0.00130  Biso   1.000  C
  C37      1.0000 0.97340  0.89300  0.00130  Biso   1.000  C
  C38      1.0000 0.52660  0.10700  0.50130  Biso   1.000  C
  C39      1.0000 0.47340  0.60700  0.49870  Biso   1.000  C
  C40      1.0000 0.02660  0.39300  0.99870  Biso   1.000  C
  H17      1.0000 0.98960  0.10920  0.97680  Biso   1.000  H
  H18      1.0000 0.51040  0.89080  0.47680  Biso   1.000  H
  H19      1.0000 0.48960  0.39080  0.52320  Biso   1.000  H
  H20      1.0000 0.01040  0.60920  0.02320  Biso   1.000  H
  H21      1.0000 0.01040  0.89080  0.02320  Biso   1.000  H
  H22      1.0000 0.48960  0.10920  0.52320  Biso   1.000  H
  H23      1.0000 0.51040  0.60920  0.47680  Biso   1.000  H
  H24      1.0000 0.98960  0.39080  0.97680  Biso   1.000  H
  C41      1.0000 0.05650  0.05400  0.93640  Biso   1.000  C
  C42      1.0000 0.44350  0.94600  0.43640  Biso   1.000  C
  C43      1.0000 0.55650  0.44600  0.56360  Biso   1.000  C
  C44      1.0000 0.94350  0.55400  0.06360  Biso   1.000  C
  C45      1.0000 0.94350  0.94600  0.06360  Biso   1.000  C
  C46      1.0000 0.55650  0.05400  0.56360  Biso   1.000  C
  C47      1.0000 0.44350  0.55400  0.43640  Biso   1.000  C
  C48      1.0000 0.05650  0.44600  0.93640  Biso   1.000  C
  H25      1.0000 0.04010  0.02030  0.87310  Biso   1.000  H
  H26      1.0000 0.45990  0.97970  0.37310  Biso   1.000  H
  H27      1.0000 0.54010  0.47970  0.62690  Biso   1.000  H
  H28      1.0000 0.95990  0.52030  0.12690  Biso   1.000  H
  H29      1.0000 0.95990  0.97970  0.12690  Biso   1.000  H
  H30      1.0000 0.54010  0.02030  0.62690  Biso   1.000  H
  H31      1.0000 0.45990  0.52030  0.37310  Biso   1.000  H
  H32      1.0000 0.04010  0.47970  0.87310  Biso   1.000  H
  C49      1.0000 0.11100  0.05230  0.97050  Biso   1.000  C
  C50      1.0000 0.38900  0.94770  0.47050  Biso   1.000  C
  C51      1.0000 0.61100  0.44770  0.52950  Biso   1.000  C
  C52      1.0000 0.88900  0.55230  0.02950  Biso   1.000  C
  C53      1.0000 0.88900  0.94770  0.02950  Biso   1.000  C
  C54      1.0000 0.61100  0.05230  0.52950  Biso   1.000  C
  C55      1.0000 0.38900  0.55230  0.47050  Biso   1.000  C
  C56      1.0000 0.11100  0.44770  0.97050  Biso   1.000  C
  C57      1.0000 0.15300  0.00330  0.91780  Biso   1.000  C
  C58      1.0000 0.34700  0.99670  0.41780  Biso   1.000  C
  C59      1.0000 0.65300  0.49670  0.58220  Biso   1.000  C
  C60      1.0000 0.84700  0.50330  0.08220  Biso   1.000  C
  C61      1.0000 0.84700  0.99670  0.08220  Biso   1.000  C
  C62      1.0000 0.65300  0.00330  0.58220  Biso   1.000  C
  C63      1.0000 0.34700  0.50330  0.41780  Biso   1.000  C
  C64      1.0000 0.15300  0.49670  0.91780  Biso   1.000  C
  C65      1.0000 0.20420  0.02750  0.98500  Biso   1.000  C
  C66      1.0000 0.29580  0.97250  0.48500  Biso   1.000  C
  C67      1.0000 0.70420  0.47250  0.51500  Biso   1.000  C
  C68      1.0000 0.79580  0.52750  0.01500  Biso   1.000  C
  C69      1.0000 0.79580  0.97250  0.01500  Biso   1.000  C
  C70      1.0000 0.70420  0.02750  0.51500  Biso   1.000  C
  C71      1.0000 0.29580  0.52750  0.48500  Biso   1.000  C
  C72      1.0000 0.20420  0.47250  0.98500  Biso   1.000  C
  C73      1.0000 0.34020  0.97460  0.00370  Biso   1.000  C
  C74      1.0000 0.15980  0.02540  0.50370  Biso   1.000  C
  C75      1.0000 0.84020  0.52540  0.49630  Biso   1.000  C
  C76      1.0000 0.65980  0.47460  0.99630  Biso   1.000  C
  C77      1.0000 0.65980  0.02540  0.99630  Biso   1.000  C
  C78      1.0000 0.84020  0.97460  0.49630  Biso   1.000  C
  C79      1.0000 0.15980  0.47460  0.50370  Biso   1.000  C
  C80      1.0000 0.34020  0.52540  0.00370  Biso   1.000  C
  C81      1.0000 0.38850  0.99960  0.93880  Biso   1.000  C
  C82      1.0000 0.11150  0.00040  0.43880  Biso   1.000  C
  C83      1.0000 0.88850  0.50040  0.56120  Biso   1.000  C
  C84      1.0000 0.61150  0.49960  0.06120  Biso   1.000  C
  C85      1.0000 0.61150  0.00040  0.06120  Biso   1.000  C
  C86      1.0000 0.88850  0.99960  0.56120  Biso   1.000  C
  C87      1.0000 0.11150  0.49960  0.43880  Biso   1.000  C
  C88      1.0000 0.38850  0.50040  0.93880  Biso   1.000  C
  C89      1.0000 0.43380  0.95900  0.93840  Biso   1.000  C
  C90      1.0000 0.06620  0.04100  0.43840  Biso   1.000  C
  C91      1.0000 0.93380  0.54100  0.56160  Biso   1.000  C
  C92      1.0000 0.56620  0.45900  0.06160  Biso   1.000  C
  C93      1.0000 0.56620  0.04100  0.06160  Biso   1.000  C
  C94      1.0000 0.93380  0.95900  0.56160  Biso   1.000  C
  C95      1.0000 0.06620  0.45900  0.43840  Biso   1.000  C
  C96      1.0000 0.43380  0.54100  0.93840  Biso   1.000  C
  H33      1.0000 0.46640  0.97570  0.89660  Biso   1.000  H
  H34      1.0000 0.03360  0.02430  0.39660  Biso   1.000  H
  H35      1.0000 0.96640  0.52430  0.60340  Biso   1.000  H
  H36      1.0000 0.53360  0.47570  0.10340  Biso   1.000  H
  H37      1.0000 0.53360  0.02430  0.10340  Biso   1.000  H
  H38      1.0000 0.96640  0.97570  0.60340  Biso   1.000  H
  H39      1.0000 0.03360  0.47570  0.39660  Biso   1.000  H
  H40      1.0000 0.46640  0.52430  0.89660  Biso   1.000  H
  C97      1.0000 0.43170  0.89450  0.99860  Biso   1.000  C
  C98      1.0000 0.06830  0.10550  0.49860  Biso   1.000  C
  C99      1.0000 0.93170  0.60550  0.50140  Biso   1.000  C
  C100     1.0000 0.56830  0.39450  0.00140  Biso   1.000  C
  C101     1.0000 0.56830  0.10550  0.00140  Biso   1.000  C
  C102     1.0000 0.93170  0.89450  0.50140  Biso   1.000  C
  C103     1.0000 0.06830  0.39450  0.49860  Biso   1.000  C
  C104     1.0000 0.43170  0.60550  0.99860  Biso   1.000  C
  H41      1.0000 0.46270  0.86780  0.99760  Biso   1.000  H
  H42      1.0000 0.03730  0.13220  0.49760  Biso   1.000  H
  H43      1.0000 0.96270  0.63220  0.50240  Biso   1.000  H
  H44      1.0000 0.53730  0.36780  0.00240  Biso   1.000  H
  H45      1.0000 0.53730  0.13220  0.00240  Biso   1.000  H
  H46      1.0000 0.96270  0.86780  0.50240  Biso   1.000  H
  H47      1.0000 0.03730  0.36780  0.49760  Biso   1.000  H
  H48      1.0000 0.46270  0.63220  0.99760  Biso   1.000  H
  C105     1.0000 0.38340  0.86950  0.06040  Biso   1.000  C
  C106     1.0000 0.11660  0.13050  0.56040  Biso   1.000  C
  C107     1.0000 0.88340  0.63050  0.43960  Biso   1.000  C
  C108     1.0000 0.61660  0.36950  0.93960  Biso   1.000  C
  C109     1.0000 0.61660  0.13050  0.93960  Biso   1.000  C
  C110     1.0000 0.88340  0.86950  0.43960  Biso   1.000  C
  C111     1.0000 0.11660  0.36950  0.56040  Biso   1.000  C
  C112     1.0000 0.38340  0.63050  0.06040  Biso   1.000  C
  H49      1.0000 0.38180  0.82580  0.10040  Biso   1.000  H
  H50      1.0000 0.11820  0.17420  0.60040  Biso   1.000  H
  H51      1.0000 0.88180  0.67420  0.39960  Biso   1.000  H
  H52      1.0000 0.61820  0.32580  0.89960  Biso   1.000  H
  H53      1.0000 0.61820  0.17420  0.89960  Biso   1.000  H
  H54      1.0000 0.88180  0.82580  0.39960  Biso   1.000  H
  H55      1.0000 0.11820  0.32580  0.60040  Biso   1.000  H
  H56      1.0000 0.38180  0.67420  0.10040  Biso   1.000  H
  C113     1.0000 0.33770  0.90870  0.06330  Biso   1.000  C
  C114     1.0000 0.16230  0.09130  0.56330  Biso   1.000  C
  C115     1.0000 0.83770  0.59130  0.43670  Biso   1.000  C
  C116     1.0000 0.66230  0.40870  0.93670  Biso   1.000  C
  C117     1.0000 0.66230  0.09130  0.93670  Biso   1.000  C
  C118     1.0000 0.83770  0.90870  0.43670  Biso   1.000  C
  C119     1.0000 0.16230  0.40870  0.56330  Biso   1.000  C
  C120     1.0000 0.33770  0.59130  0.06330  Biso   1.000  C
  H57      1.0000 0.30530  0.89150  0.10470  Biso   1.000  H
  H58      1.0000 0.19470  0.10850  0.60470  Biso   1.000  H
  H59      1.0000 0.80530  0.60850  0.39530  Biso   1.000  H
  H60      1.0000 0.69470  0.39150  0.89530  Biso   1.000  H
  H61      1.0000 0.69470  0.10850  0.89530  Biso   1.000  H
  H62      1.0000 0.80530  0.89150  0.39530  Biso   1.000  H
  H63      1.0000 0.19470  0.39150  0.60470  Biso   1.000  H
  H64      1.0000 0.30530  0.60850  0.10470  Biso   1.000  H
  C121     1.0000 0.29260  0.19060  0.43610  Biso   1.000  C
  C122     1.0000 0.20740  0.80940  0.93610  Biso   1.000  C
  C123     1.0000 0.79260  0.30940  0.06390  Biso   1.000  C
  C124     1.0000 0.70740  0.69060  0.56390  Biso   1.000  C
  C125     1.0000 0.70740  0.80940  0.56390  Biso   1.000  C
  C126     1.0000 0.79260  0.19060  0.06390  Biso   1.000  C
  C127     1.0000 0.20740  0.69060  0.93610  Biso   1.000  C
  C128     1.0000 0.29260  0.30940  0.43610  Biso   1.000  C
  H65      1.0000 0.25420  0.18970  0.40910  Biso   1.000  H
  H66      1.0000 0.24580  0.81030  0.90910  Biso   1.000  H
  H67      1.0000 0.75420  0.31030  0.09090  Biso   1.000  H
  H68      1.0000 0.74580  0.68970  0.59090  Biso   1.000  H
  H69      1.0000 0.74580  0.81030  0.59090  Biso   1.000  H
  H70      1.0000 0.75420  0.18970  0.09090  Biso   1.000  H
  H71      1.0000 0.24580  0.68970  0.90910  Biso   1.000  H
  H72      1.0000 0.25420  0.31030  0.40910  Biso   1.000  H
  H73      1.0000 0.30070  0.15110  0.50340  Biso   1.000  H
  H74      1.0000 0.19930  0.84890  0.00340  Biso   1.000  H
  H75      1.0000 0.80070  0.34890  0.99660  Biso   1.000  H
  H76      1.0000 0.69930  0.65110  0.49660  Biso   1.000  H
  H77      1.0000 0.69930  0.84890  0.49660  Biso   1.000  H
  H78      1.0000 0.80070  0.15110  0.99660  Biso   1.000  H
  H79      1.0000 0.19930  0.65110  0.00340  Biso   1.000  H
  H80      1.0000 0.30070  0.34890  0.50340  Biso   1.000  H
  C129     1.0000 0.31260  0.25000  0.17680  Biso   1.000  C
  C130     1.0000 0.18740  0.75000  0.67680  Biso   1.000  C
  C131     1.0000 0.81260  0.25000  0.32320  Biso   1.000  C
  C132     1.0000 0.68740  0.75000  0.82320  Biso   1.000  C
  H81      1.0000 0.27460  0.25000  0.14520  Biso   1.000  H
  H82      1.0000 0.22540  0.75000  0.64520  Biso   1.000  H
  H83      1.0000 0.77460  0.25000  0.35480  Biso   1.000  H
  H84      1.0000 0.72540  0.75000  0.85480  Biso   1.000  H
  H85      1.0000 0.33400  0.25000  0.07360  Biso   1.000  H
  H86      1.0000 0.16600  0.75000  0.57360  Biso   1.000  H
  H87      1.0000 0.83400  0.25000  0.42640  Biso   1.000  H
  H88      1.0000 0.66600  0.75000  0.92640  Biso   1.000  H
  C133     1.0000 0.38420  0.19050  0.32550  Biso   1.000  C
  C134     1.0000 0.11580  0.80950  0.82550  Biso   1.000  C
  C135     1.0000 0.88420  0.30950  0.17450  Biso   1.000  C
  C136     1.0000 0.61580  0.69050  0.67450  Biso   1.000  C
  C137     1.0000 0.61580  0.80950  0.67450  Biso   1.000  C
  C138     1.0000 0.88420  0.19050  0.17450  Biso   1.000  C
  C139     1.0000 0.11580  0.69050  0.82550  Biso   1.000  C
  C140     1.0000 0.38420  0.30950  0.32550  Biso   1.000  C
  H89      1.0000 0.39300  0.15100  0.39140  Biso   1.000  H
  H90      1.0000 0.10700  0.84900  0.89140  Biso   1.000  H
  H91      1.0000 0.89300  0.34900  0.10860  Biso   1.000  H
  H92      1.0000 0.60700  0.65100  0.60860  Biso   1.000  H
  H93      1.0000 0.60700  0.84900  0.60860  Biso   1.000  H
  H94      1.0000 0.89300  0.15100  0.10860  Biso   1.000  H
  H95      1.0000 0.10700  0.65100  0.89140  Biso   1.000  H
  H96      1.0000 0.39300  0.34900  0.39140  Biso   1.000  H
  H97      1.0000 0.40650  0.19010  0.22440  Biso   1.000  H
  H98      1.0000 0.09350  0.80990  0.72440  Biso   1.000  H
  H99      1.0000 0.90650  0.30990  0.27560  Biso   1.000  H
  H100     1.0000 0.59350  0.69010  0.77560  Biso   1.000  H
  H101     1.0000 0.59350  0.80990  0.77560  Biso   1.000  H
  H102     1.0000 0.90650  0.19010  0.27560  Biso   1.000  H
  H103     1.0000 0.09350  0.69010  0.72440  Biso   1.000  H
  H104     1.0000 0.40650  0.30990  0.22440  Biso   1.000  H
  C141     1.0000 0.36340  0.25000  0.57380  Biso   1.000  C
  C142     1.0000 0.13660  0.75000  0.07380  Biso   1.000  C
  C143     1.0000 0.86340  0.25000  0.92620  Biso   1.000  C
  C144     1.0000 0.63660  0.75000  0.42620  Biso   1.000  C
  N1       1.0000 0.29460  0.01780  0.02030  Biso   1.000  N
  N2       1.0000 0.20540  0.98220  0.52030  Biso   1.000  N
  N3       1.0000 0.79460  0.48220  0.47970  Biso   1.000  N
  N4       1.0000 0.70540  0.51780  0.97970  Biso   1.000  N
  N5       1.0000 0.70540  0.98220  0.97970  Biso   1.000  N
  N6       1.0000 0.79460  0.01780  0.47970  Biso   1.000  N
  N7       1.0000 0.20540  0.51780  0.52030  Biso   1.000  N
  N8       1.0000 0.29460  0.48220  0.02030  Biso   1.000  N
  N9       1.0000 0.24986  0.99300  0.96430  Biso   1.000  N
  N10      1.0000 0.25014  0.00700  0.46430  Biso   1.000  N
  N11      1.0000 0.74986  0.50700  0.53570  Biso   1.000  N
  N12      1.0000 0.75014  0.49300  0.03570  Biso   1.000  N
  N13      1.0000 0.75014  0.00700  0.03570  Biso   1.000  N
  N14      1.0000 0.74986  0.99300  0.53570  Biso   1.000  N
  N15      1.0000 0.25014  0.49300  0.46430  Biso   1.000  N
  N16      1.0000 0.24986  0.50700  0.96430  Biso   1.000  N
  N17      1.0000 0.32488  0.18840  0.27530  Biso   1.000  N
  N18      1.0000 0.17512  0.81160  0.77530  Biso   1.000  N
  N19      1.0000 0.82488  0.31160  0.22470  Biso   1.000  N
  N20      1.0000 0.67512  0.68840  0.72470  Biso   1.000  N
  N21      1.0000 0.67512  0.81160  0.72470  Biso   1.000  N
  N22      1.0000 0.82488  0.18840  0.22470  Biso   1.000  N
  N23      1.0000 0.17512  0.68840  0.77530  Biso   1.000  N
  N24      1.0000 0.32488  0.31160  0.27530  Biso   1.000  N
  N25      1.0000 0.30460  0.25000  0.53380  Biso   1.000  N
  N26      1.0000 0.19540  0.75000  0.03380  Biso   1.000  N
  N27      1.0000 0.80460  0.25000  0.96620  Biso   1.000  N
  N28      1.0000 0.69540  0.75000  0.46620  Biso   1.000  N
  N29      1.0000 0.39630  0.25000  0.42380  Biso   1.000  N
  N30      1.0000 0.10370  0.75000  0.92380  Biso   1.000  N
  N31      1.0000 0.89630  0.25000  0.07620  Biso   1.000  N
  N32      1.0000 0.60370  0.75000  0.57620  Biso   1.000  N
  O1       1.0000 0.22885  0.12503  0.14910  Biso   1.000  O
  O2       1.0000 0.27115  0.87497  0.64910  Biso   1.000  O
  O3       1.0000 0.72885  0.37497  0.35090  Biso   1.000  O
  O4       1.0000 0.77115  0.62503  0.85090  Biso   1.000  O
  O5       1.0000 0.77115  0.87497  0.85090  Biso   1.000  O
  O6       1.0000 0.72885  0.12503  0.35090  Biso   1.000  O
  O7       1.0000 0.27115  0.62503  0.64910  Biso   1.000  O
  O8       1.0000 0.22885  0.37497  0.14910  Biso   1.000  O
  O9       1.0000 0.37172  0.12448  0.99490  Biso   1.000  O
  O10      1.0000 0.12828  0.87552  0.49490  Biso   1.000  O
  O11      1.0000 0.87172  0.37552  0.50510  Biso   1.000  O
  O12      1.0000 0.62828  0.62448  0.00510  Biso   1.000  O
  O13      1.0000 0.62828  0.87552  0.00510  Biso   1.000  O
  O14      1.0000 0.87172  0.12448  0.50510  Biso   1.000  O
  O15      1.0000 0.12828  0.62448  0.49490  Biso   1.000  O
  O16      1.0000 0.37172  0.37552  0.99490  Biso   1.000  O
  O17      1.0000 0.35410  0.08190  0.71720  Biso   1.000  O
  O18      1.0000 0.14590  0.91810  0.21720  Biso   1.000  O
  O19      1.0000 0.85410  0.41810  0.78280  Biso   1.000  O
  O20      1.0000 0.64590  0.58190  0.28280  Biso   1.000  O
  O21      1.0000 0.64590  0.91810  0.28280  Biso   1.000  O
  O22      1.0000 0.85410  0.08190  0.78280  Biso   1.000  O
  O23      1.0000 0.14590  0.58190  0.21720  Biso   1.000  O
  O24      1.0000 0.35410  0.41810  0.71720  Biso   1.000  O
  O25      1.0000 0.44580  0.09540  0.81380  Biso   1.000  O
  O26      1.0000 0.05420  0.90460  0.31380  Biso   1.000  O
  O27      1.0000 0.94580  0.40460  0.68620  Biso   1.000  O
  O28      1.0000 0.55420  0.59540  0.18620  Biso   1.000  O
  O29      1.0000 0.55420  0.90460  0.18620  Biso   1.000  O
  O30      1.0000 0.94580  0.09540  0.68620  Biso   1.000  O
  O31      1.0000 0.05420  0.59540  0.31380  Biso   1.000  O
  O32      1.0000 0.44580  0.40460  0.81380  Biso   1.000  O
  O33      1.0000 0.14494  0.95392  0.82930  Biso   1.000  O
  O34      1.0000 0.35506  0.04608  0.32930  Biso   1.000  O
  O35      1.0000 0.64494  0.54608  0.67070  Biso   1.000  O
  O36      1.0000 0.85506  0.45392  0.17070  Biso   1.000  O
  O37      1.0000 0.85506  0.04608  0.17070  Biso   1.000  O
  O38      1.0000 0.64494  0.95392  0.67070  Biso   1.000  O
  O39      1.0000 0.35506  0.45392  0.32930  Biso   1.000  O
  O40      1.0000 0.14494  0.54608  0.82930  Biso   1.000  O
  S1       1.0000 0.39113  0.08118  0.85650  Biso   1.000  S
  S2       1.0000 0.10887  0.91882  0.35650  Biso   1.000  S
  S3       1.0000 0.89113  0.41882  0.64350  Biso   1.000  S
  S4       1.0000 0.60887  0.58118  0.14350  Biso   1.000  S
  S5       1.0000 0.60887  0.91882  0.14350  Biso   1.000  S
  S6       1.0000 0.89113  0.08118  0.64350  Biso   1.000  S
  S7       1.0000 0.10887  0.58118  0.35650  Biso   1.000  S
  S8       1.0000 0.39113  0.41882  0.85650  Biso   1.000  S
  Cu1      1.0000 0.30714  0.10365  0.14016  Biso   1.000  Cu
  Cu2      1.0000 0.19286  0.89635  0.64016  Biso   1.000  Cu
  Cu3      1.0000 0.80714  0.39635  0.35984  Biso   1.000  Cu
  Cu4      1.0000 0.69286  0.60365  0.85984  Biso   1.000  Cu
  Cu5      1.0000 0.69286  0.89635  0.85984  Biso   1.000  Cu
  Cu6      1.0000 0.80714  0.10365  0.35984  Biso   1.000  Cu
  Cu7      1.0000 0.19286  0.60365  0.64016  Biso   1.000  Cu
  Cu8      1.0000 0.30714  0.39635  0.14016  Biso   1.000  Cu
  H105     1.0000 0.37000  0.21400  0.63000  Biso   1.000  H
  H106     1.0000 0.13000  0.78600  0.13000  Biso   1.000  H
  H107     1.0000 0.87000  0.28600  0.87000  Biso   1.000  H
  H108     1.0000 0.63000  0.71400  0.37000  Biso   1.000  H
  H109     1.0000 0.63000  0.78600  0.37000  Biso   1.000  H
  H110     1.0000 0.87000  0.21400  0.87000  Biso   1.000  H
  H111     1.0000 0.13000  0.71400  0.13000  Biso   1.000  H
  H112     1.0000 0.37000  0.28600  0.63000  Biso   1.000  H
