data_image0
_cell_length_a       13.701
_cell_length_b       7.5535
_cell_length_c       19.577
_cell_angle_alpha    90
_cell_angle_beta     94.37
_cell_angle_gamma    90

_symmetry_space_group_name_H-M    "P 1"
_symmetry_int_tables_number       1

loop_
  _symmetry_equiv_pos_as_xyz
  'x, y, z'

loop_
  _atom_site_label
  _atom_site_occupancy
  _atom_site_fract_x
  _atom_site_fract_y
  _atom_site_fract_z
  _atom_site_thermal_displace_type
  _atom_site_B_iso_or_equiv
  _atom_site_type_symbol
  Cu1      1.0000 0.63358  0.94945  0.83429  Biso   1.000  Cu
  Cu2      1.0000 0.36642  0.44945  0.66571  Biso   1.000  Cu
  Cu3      1.0000 0.36642  0.05055  0.16571  Biso   1.000  Cu
  Cu4      1.0000 0.63358  0.55055  0.33429  Biso   1.000  Cu
  N1       1.0000 0.59620  0.81870  0.91565  Biso   1.000  N
  N2       1.0000 0.40380  0.31870  0.58435  Biso   1.000  N
  N3       1.0000 0.40380  0.18130  0.08435  Biso   1.000  N
  N4       1.0000 0.59620  0.68130  0.41565  Biso   1.000  N
  N5       1.0000 0.75820  0.81670  0.85560  Biso   1.000  N
  N6       1.0000 0.24180  0.31670  0.64440  Biso   1.000  N
  N7       1.0000 0.24180  0.18330  0.14440  Biso   1.000  N
  N8       1.0000 0.75820  0.68330  0.35560  Biso   1.000  N
  H1       1.0000 0.71300  0.10600  0.74200  Biso   1.000  H
  H2       1.0000 0.28700  0.60600  0.75800  Biso   1.000  H
  H3       1.0000 0.28700  0.89400  0.25800  Biso   1.000  H
  H4       1.0000 0.71300  0.39400  0.24200  Biso   1.000  H
  N9       1.0000 0.67350  0.13220  0.76753  Biso   1.000  N
  N10      1.0000 0.32650  0.63220  0.73247  Biso   1.000  N
  N11      1.0000 0.32650  0.86780  0.23247  Biso   1.000  N
  N12      1.0000 0.67350  0.36780  0.26753  Biso   1.000  N
  C1       1.0000 0.67050  0.72960  0.94953  Biso   1.000  C
  C2       1.0000 0.32950  0.22960  0.55047  Biso   1.000  C
  C3       1.0000 0.32950  0.27040  0.05047  Biso   1.000  C
  C4       1.0000 0.67050  0.77040  0.44953  Biso   1.000  C
  C5       1.0000 0.65940  0.65010  0.01160  Biso   1.000  C
  C6       1.0000 0.34060  0.15010  0.48840  Biso   1.000  C
  C7       1.0000 0.34060  0.34990  0.98840  Biso   1.000  C
  C8       1.0000 0.65940  0.84990  0.51160  Biso   1.000  C
  H5       1.0000 0.71060  0.58710  0.03400  Biso   1.000  H
  H6       1.0000 0.28940  0.08710  0.46600  Biso   1.000  H
  H7       1.0000 0.28940  0.41290  0.96600  Biso   1.000  H
  H8       1.0000 0.71060  0.91290  0.53400  Biso   1.000  H
  C9       1.0000 0.57100  0.66540  0.04000  Biso   1.000  C
  C10      1.0000 0.42900  0.16540  0.46000  Biso   1.000  C
  C11      1.0000 0.42900  0.33460  0.96000  Biso   1.000  C
  C12      1.0000 0.57100  0.83460  0.54000  Biso   1.000  C
  H9       1.0000 0.56300  0.61610  0.08280  Biso   1.000  H
  H10      1.0000 0.43700  0.11610  0.41720  Biso   1.000  H
  H11      1.0000 0.43700  0.38390  0.91720  Biso   1.000  H
  H12      1.0000 0.56300  0.88390  0.58280  Biso   1.000  H
  C13      1.0000 0.49480  0.75280  0.00570  Biso   1.000  C
  C14      1.0000 0.50520  0.25280  0.49430  Biso   1.000  C
  C15      1.0000 0.50520  0.24720  0.99430  Biso   1.000  C
  C16      1.0000 0.49480  0.74720  0.50570  Biso   1.000  C
  H13      1.0000 0.43440  0.76060  0.02420  Biso   1.000  H
  H14      1.0000 0.56560  0.26060  0.47580  Biso   1.000  H
  H15      1.0000 0.56560  0.23940  0.97580  Biso   1.000  H
  H16      1.0000 0.43440  0.73940  0.52420  Biso   1.000  H
  C17      1.0000 0.50930  0.82910  0.94340  Biso   1.000  C
  C18      1.0000 0.49070  0.32910  0.55660  Biso   1.000  C
  C19      1.0000 0.49070  0.17090  0.05660  Biso   1.000  C
  C20      1.0000 0.50930  0.67090  0.44340  Biso   1.000  C
  H17      1.0000 0.45780  0.88920  0.91990  Biso   1.000  H
  H18      1.0000 0.54220  0.38920  0.58010  Biso   1.000  H
  H19      1.0000 0.54220  0.11080  0.08010  Biso   1.000  H
  H20      1.0000 0.45780  0.61080  0.41990  Biso   1.000  H
  C21      1.0000 0.76190  0.72800  0.91530  Biso   1.000  C
  C22      1.0000 0.23810  0.22800  0.58470  Biso   1.000  C
  C23      1.0000 0.23810  0.27200  0.08470  Biso   1.000  C
  C24      1.0000 0.76190  0.77200  0.41530  Biso   1.000  C
  C25      1.0000 0.84600  0.64390  0.94160  Biso   1.000  C
  C26      1.0000 0.15400  0.14390  0.55840  Biso   1.000  C
  C27      1.0000 0.15400  0.35610  0.05840  Biso   1.000  C
  C28      1.0000 0.84600  0.85610  0.44160  Biso   1.000  C
  H21      1.0000 0.84690  0.58340  0.98310  Biso   1.000  H
  H22      1.0000 0.15310  0.08340  0.51690  Biso   1.000  H
  H23      1.0000 0.15310  0.41660  0.01690  Biso   1.000  H
  H24      1.0000 0.84690  0.91660  0.48310  Biso   1.000  H
  C29      1.0000 0.92860  0.65080  0.90570  Biso   1.000  C
  C30      1.0000 0.07140  0.15080  0.59430  Biso   1.000  C
  C31      1.0000 0.07140  0.34920  0.09430  Biso   1.000  C
  C32      1.0000 0.92860  0.84920  0.40570  Biso   1.000  C
  H25      1.0000 0.98630  0.59720  0.92310  Biso   1.000  H
  H26      1.0000 0.01370  0.09720  0.57690  Biso   1.000  H
  H27      1.0000 0.01370  0.40280  0.07690  Biso   1.000  H
  H28      1.0000 0.98630  0.90280  0.42310  Biso   1.000  H
  C33      1.0000 0.92500  0.73600  0.84510  Biso   1.000  C
  C34      1.0000 0.07500  0.23600  0.65490  Biso   1.000  C
  C35      1.0000 0.07500  0.26400  0.15490  Biso   1.000  C
  C36      1.0000 0.92500  0.76400  0.34510  Biso   1.000  C
  H29      1.0000 0.97970  0.73900  0.81980  Biso   1.000  H
  H30      1.0000 0.02030  0.23900  0.68020  Biso   1.000  H
  H31      1.0000 0.02030  0.26100  0.18020  Biso   1.000  H
  H32      1.0000 0.97970  0.76100  0.31980  Biso   1.000  H
  C37      1.0000 0.83780  0.82040  0.82050  Biso   1.000  C
  C38      1.0000 0.16220  0.32040  0.67950  Biso   1.000  C
  C39      1.0000 0.16220  0.17960  0.17950  Biso   1.000  C
  C40      1.0000 0.83780  0.67960  0.32050  Biso   1.000  C
  H33      1.0000 0.83560  0.88000  0.77890  Biso   1.000  H
  H34      1.0000 0.16440  0.38000  0.72110  Biso   1.000  H
  H35      1.0000 0.16440  0.12000  0.22110  Biso   1.000  H
  H36      1.0000 0.83560  0.62000  0.27890  Biso   1.000  H
  C41      1.0000 0.81220  0.25370  0.84020  Biso   1.000  C
  C42      1.0000 0.18780  0.75370  0.65980  Biso   1.000  C
  C43      1.0000 0.18780  0.74630  0.15980  Biso   1.000  C
  C44      1.0000 0.81220  0.24630  0.34020  Biso   1.000  C
  C45      1.0000 0.81630  0.19610  0.90690  Biso   1.000  C
  C46      1.0000 0.18370  0.69610  0.59310  Biso   1.000  C
  C47      1.0000 0.18370  0.80390  0.09310  Biso   1.000  C
  C48      1.0000 0.81630  0.30390  0.40690  Biso   1.000  C
  C49      1.0000 0.90700  0.16020  0.94230  Biso   1.000  C
  C50      1.0000 0.09300  0.66020  0.55770  Biso   1.000  C
  C51      1.0000 0.09300  0.83980  0.05770  Biso   1.000  C
  C52      1.0000 0.90700  0.33980  0.44230  Biso   1.000  C
  H37      1.0000 0.90990  0.12420  0.98780  Biso   1.000  H
  H38      1.0000 0.09010  0.62420  0.51220  Biso   1.000  H
  H39      1.0000 0.09010  0.87580  0.01220  Biso   1.000  H
  H40      1.0000 0.90990  0.37580  0.48780  Biso   1.000  H
  C53      1.0000 0.99140  0.17800  0.90960  Biso   1.000  C
  C54      1.0000 0.00860  0.67800  0.59040  Biso   1.000  C
  C55      1.0000 0.00860  0.82200  0.09040  Biso   1.000  C
  C56      1.0000 0.99140  0.32200  0.40960  Biso   1.000  C
  H41      1.0000 0.05120  0.15220  0.93310  Biso   1.000  H
  H42      1.0000 0.94880  0.65220  0.56690  Biso   1.000  H
  H43      1.0000 0.94880  0.84780  0.06690  Biso   1.000  H
  H44      1.0000 0.05120  0.34780  0.43310  Biso   1.000  H
  C57      1.0000 0.98910  0.23230  0.84390  Biso   1.000  C
  C58      1.0000 0.01090  0.73230  0.65610  Biso   1.000  C
  C59      1.0000 0.01090  0.76770  0.15610  Biso   1.000  C
  C60      1.0000 0.98910  0.26770  0.34390  Biso   1.000  C
  H45      1.0000 0.04680  0.24380  0.82220  Biso   1.000  H
  H46      1.0000 0.95320  0.74380  0.67780  Biso   1.000  H
  H47      1.0000 0.95320  0.75620  0.17780  Biso   1.000  H
  H48      1.0000 0.04680  0.25620  0.32220  Biso   1.000  H
  C61      1.0000 0.89960  0.27100  0.80890  Biso   1.000  C
  C62      1.0000 0.10040  0.77100  0.69110  Biso   1.000  C
  C63      1.0000 0.10040  0.72900  0.19110  Biso   1.000  C
  C64      1.0000 0.89960  0.22900  0.30890  Biso   1.000  C
  H49      1.0000 0.89810  0.30920  0.76370  Biso   1.000  H
  H50      1.0000 0.10190  0.80920  0.73630  Biso   1.000  H
  H51      1.0000 0.10190  0.69080  0.23630  Biso   1.000  H
  H52      1.0000 0.89810  0.19080  0.26370  Biso   1.000  H
  C65      1.0000 0.71730  0.29320  0.80100  Biso   1.000  C
  C66      1.0000 0.28270  0.79320  0.69900  Biso   1.000  C
  C67      1.0000 0.28270  0.70680  0.19900  Biso   1.000  C
  C68      1.0000 0.71730  0.20680  0.30100  Biso   1.000  C
  H53      1.0000 0.67210  0.34200  0.83180  Biso   1.000  H
  H54      1.0000 0.32790  0.84200  0.66820  Biso   1.000  H
  H55      1.0000 0.32790  0.65800  0.16820  Biso   1.000  H
  H56      1.0000 0.67210  0.15800  0.33180  Biso   1.000  H
  H57      1.0000 0.72770  0.38150  0.76630  Biso   1.000  H
  H58      1.0000 0.27230  0.88150  0.73370  Biso   1.000  H
  H59      1.0000 0.27230  0.61850  0.23370  Biso   1.000  H
  H60      1.0000 0.72770  0.11850  0.26630  Biso   1.000  H
  C69      1.0000 0.58130  0.17940  0.72662  Biso   1.000  C
  C70      1.0000 0.41870  0.67940  0.77338  Biso   1.000  C
  C71      1.0000 0.41870  0.82060  0.27338  Biso   1.000  C
  C72      1.0000 0.58130  0.32060  0.22662  Biso   1.000  C
  H61      1.0000 0.57020  0.09800  0.68850  Biso   1.000  H
  H62      1.0000 0.42980  0.59800  0.81150  Biso   1.000  H
  H63      1.0000 0.42980  0.90200  0.31150  Biso   1.000  H
  H64      1.0000 0.57020  0.40200  0.18850  Biso   1.000  H
  H65      1.0000 0.58640  0.29810  0.70830  Biso   1.000  H
  H66      1.0000 0.41360  0.79810  0.79170  Biso   1.000  H
  H67      1.0000 0.41360  0.70190  0.29170  Biso   1.000  H
  H68      1.0000 0.58640  0.20190  0.20830  Biso   1.000  H
  C73      1.0000 0.49670  0.17050  0.77163  Biso   1.000  C
  C74      1.0000 0.50330  0.67050  0.72837  Biso   1.000  C
  C75      1.0000 0.50330  0.82950  0.22837  Biso   1.000  C
  C76      1.0000 0.49670  0.32950  0.27163  Biso   1.000  C
  O1       1.0000 0.50982  0.07960  0.82562  Biso   1.000  O
  O2       1.0000 0.49018  0.57960  0.67438  Biso   1.000  O
  O3       1.0000 0.49018  0.92040  0.17438  Biso   1.000  O
  O4       1.0000 0.50982  0.42040  0.32562  Biso   1.000  O
  O5       1.0000 0.41873  0.24750  0.75356  Biso   1.000  O
  O6       1.0000 0.58127  0.74750  0.74644  Biso   1.000  O
  O7       1.0000 0.58127  0.75250  0.24644  Biso   1.000  O
  O8       1.0000 0.41873  0.25250  0.25356  Biso   1.000  O
  O9       1.0000 0.73035  0.17380  0.93545  Biso   1.000  O
  O10      1.0000 0.26965  0.67380  0.56455  Biso   1.000  O
  O11      1.0000 0.26965  0.82620  0.06455  Biso   1.000  O
  O12      1.0000 0.73035  0.32620  0.43545  Biso   1.000  O
  H69      1.0000 0.74100  0.15170  0.97640  Biso   1.000  H
  H70      1.0000 0.25900  0.65170  0.52360  Biso   1.000  H
  H71      1.0000 0.25900  0.84830  0.02360  Biso   1.000  H
  H72      1.0000 0.74100  0.34830  0.47640  Biso   1.000  H
  O13      1.0000 0.26110  0.15800  0.83497  Biso   1.000  O
  O14      1.0000 0.73890  0.65800  0.66503  Biso   1.000  O
  O15      1.0000 0.73890  0.84200  0.16503  Biso   1.000  O
  O16      1.0000 0.26110  0.34200  0.33497  Biso   1.000  O
  O17      1.0000 0.74220  0.10110  0.06755  Biso   1.000  O
  O18      1.0000 0.25780  0.60110  0.43245  Biso   1.000  O
  O19      1.0000 0.25780  0.89890  0.93245  Biso   1.000  O
  O20      1.0000 0.74220  0.39890  0.56755  Biso   1.000  O
  Cl1      1.0000 0.81062  0.05388  0.64357  Biso   1.000  Cl
  Cl2      1.0000 0.18938  0.55388  0.85643  Biso   1.000  Cl
  Cl3      1.0000 0.18938  0.94612  0.35643  Biso   1.000  Cl
  Cl4      1.0000 0.81062  0.44612  0.14357  Biso   1.000  Cl
