data_image0
_cell_length_a       15.7313
_cell_length_b       10.8707
_cell_length_c       8.8217
_cell_angle_alpha    90
_cell_angle_beta     90
_cell_angle_gamma    90

_symmetry_space_group_name_H-M    "P 1"
_symmetry_int_tables_number       1

loop_
  _symmetry_equiv_pos_as_xyz
  'x, y, z'

loop_
  _atom_site_label
  _atom_site_occupancy
  _atom_site_fract_x
  _atom_site_fract_y
  _atom_site_fract_z
  _atom_site_thermal_displace_type
  _atom_site_B_iso_or_equiv
  _atom_site_type_symbol
  Cu1      1.0000 0.01287  0.35537  0.11519  Biso   1.000  Cu
  Cu2      1.0000 0.98712  0.64463  0.61519  Biso   1.000  Cu
  Cu3      1.0000 0.48712  0.85537  0.61519  Biso   1.000  Cu
  Cu4      1.0000 0.51287  0.14463  0.11519  Biso   1.000  Cu
  S1       1.0000 0.26822  0.59627  0.83982  Biso   1.000  S
  S2       1.0000 0.73178  0.40373  0.33982  Biso   1.000  S
  S3       1.0000 0.23178  0.09627  0.33982  Biso   1.000  S
  S4       1.0000 0.76822  0.90373  0.83982  Biso   1.000  S
  O1       1.0000 0.10176  0.48335  0.13842  Biso   1.000  O
  O2       1.0000 0.89824  0.51665  0.63842  Biso   1.000  O
  O3       1.0000 0.39824  0.98335  0.63842  Biso   1.000  O
  O4       1.0000 0.60176  0.01665  0.13842  Biso   1.000  O
  O5       1.0000 0.12021  0.43272  0.89569  Biso   1.000  O
  O6       1.0000 0.87979  0.56728  0.39569  Biso   1.000  O
  O7       1.0000 0.37979  0.93272  0.39569  Biso   1.000  O
  O8       1.0000 0.62021  0.06728  0.89569  Biso   1.000  O
  O9       1.0000 0.46218  0.81735  0.89642  Biso   1.000  O
  O10      1.0000 0.53782  0.18265  0.39642  Biso   1.000  O
  O11      1.0000 0.03782  0.31735  0.39642  Biso   1.000  O
  O12      1.0000 0.96218  0.68265  0.89642  Biso   1.000  O
  O13      1.0000 0.40674  0.73082  0.69038  Biso   1.000  O
  O14      1.0000 0.59326  0.26918  0.19038  Biso   1.000  O
  O15      1.0000 0.09326  0.23082  0.19038  Biso   1.000  O
  O16      1.0000 0.90674  0.76918  0.69038  Biso   1.000  O
  N1       1.0000 0.92122  0.47748  0.08933  Biso   1.000  N
  N2       1.0000 0.07878  0.52252  0.58933  Biso   1.000  N
  N3       1.0000 0.57878  0.97748  0.58933  Biso   1.000  N
  N4       1.0000 0.42122  0.02252  0.08933  Biso   1.000  N
  H1       1.0000 0.89850  0.49690  0.18240  Biso   1.000  H
  H2       1.0000 0.10150  0.50310  0.68240  Biso   1.000  H
  H3       1.0000 0.60150  0.99690  0.68240  Biso   1.000  H
  H4       1.0000 0.39850  0.00310  0.18240  Biso   1.000  H
  H5       1.0000 0.94320  0.54830  0.04770  Biso   1.000  H
  H6       1.0000 0.05680  0.45170  0.54770  Biso   1.000  H
  H7       1.0000 0.55680  0.04830  0.54770  Biso   1.000  H
  H8       1.0000 0.44320  0.95170  0.04770  Biso   1.000  H
  N5       1.0000 0.93277  0.23375  0.01048  Biso   1.000  N
  N6       1.0000 0.06723  0.76625  0.51048  Biso   1.000  N
  N7       1.0000 0.56723  0.73375  0.51048  Biso   1.000  N
  N8       1.0000 0.43277  0.26625  0.01048  Biso   1.000  N
  C1       1.0000 0.85379  0.42834  0.98980  Biso   1.000  C
  C2       1.0000 0.14621  0.57166  0.48980  Biso   1.000  C
  C3       1.0000 0.64621  0.92834  0.48980  Biso   1.000  C
  C4       1.0000 0.35379  0.07166  0.98980  Biso   1.000  C
  H9       1.0000 0.86770  0.44570  0.88250  Biso   1.000  H
  H10      1.0000 0.13230  0.55430  0.38250  Biso   1.000  H
  H11      1.0000 0.63230  0.94570  0.38250  Biso   1.000  H
  H12      1.0000 0.36770  0.05430  0.88250  Biso   1.000  H
  H13      1.0000 0.79880  0.46820  0.01390  Biso   1.000  H
  H14      1.0000 0.20120  0.53180  0.51390  Biso   1.000  H
  H15      1.0000 0.70120  0.96820  0.51390  Biso   1.000  H
  H16      1.0000 0.29880  0.03180  0.01390  Biso   1.000  H
  C5       1.0000 0.84716  0.29004  0.01480  Biso   1.000  C
  C6       1.0000 0.15284  0.70996  0.51480  Biso   1.000  C
  C7       1.0000 0.65284  0.79004  0.51480  Biso   1.000  C
  C8       1.0000 0.34716  0.20996  0.01480  Biso   1.000  C
  H17      1.0000 0.82030  0.27350  0.11410  Biso   1.000  H
  H18      1.0000 0.17970  0.72650  0.61410  Biso   1.000  H
  H19      1.0000 0.67970  0.77350  0.61410  Biso   1.000  H
  H20      1.0000 0.32030  0.22650  0.11410  Biso   1.000  H
  H21      1.0000 0.81110  0.25310  0.93490  Biso   1.000  H
  H22      1.0000 0.18890  0.74690  0.43490  Biso   1.000  H
  H23      1.0000 0.68890  0.75310  0.43490  Biso   1.000  H
  H24      1.0000 0.31110  0.24690  0.93490  Biso   1.000  H
  C9       1.0000 0.93064  0.10655  0.07620  Biso   1.000  C
  C10      1.0000 0.06936  0.89345  0.57620  Biso   1.000  C
  C11      1.0000 0.56936  0.60655  0.57620  Biso   1.000  C
  C12      1.0000 0.43064  0.39345  0.07620  Biso   1.000  C
  H25      1.0000 0.98820  0.07030  0.06880  Biso   1.000  H
  H26      1.0000 0.01180  0.92970  0.56880  Biso   1.000  H
  H27      1.0000 0.51180  0.57030  0.56880  Biso   1.000  H
  H28      1.0000 0.48820  0.42970  0.06880  Biso   1.000  H
  H29      1.0000 0.89180  0.05520  0.01450  Biso   1.000  H
  H30      1.0000 0.10820  0.94480  0.51450  Biso   1.000  H
  H31      1.0000 0.60820  0.55520  0.51450  Biso   1.000  H
  H32      1.0000 0.39180  0.44480  0.01450  Biso   1.000  H
  C13      1.0000 0.90205  0.10185  0.23940  Biso   1.000  C
  C14      1.0000 0.09795  0.89815  0.73940  Biso   1.000  C
  C15      1.0000 0.59795  0.60185  0.73940  Biso   1.000  C
  C16      1.0000 0.40205  0.39815  0.23940  Biso   1.000  C
  H33      1.0000 0.93110  0.16640  0.29720  Biso   1.000  H
  H34      1.0000 0.06890  0.83360  0.79720  Biso   1.000  H
  H35      1.0000 0.56890  0.66640  0.79720  Biso   1.000  H
  H36      1.0000 0.43110  0.33360  0.29720  Biso   1.000  H
  H37      1.0000 0.91600  0.02130  0.28250  Biso   1.000  H
  H38      1.0000 0.08400  0.97870  0.78250  Biso   1.000  H
  H39      1.0000 0.58400  0.52130  0.78250  Biso   1.000  H
  H40      1.0000 0.41600  0.47870  0.28250  Biso   1.000  H
  H41      1.0000 0.84050  0.11490  0.24450  Biso   1.000  H
  H42      1.0000 0.15950  0.88510  0.74450  Biso   1.000  H
  H43      1.0000 0.65950  0.61490  0.74450  Biso   1.000  H
  H44      1.0000 0.34050  0.38510  0.24450  Biso   1.000  H
  C17      1.0000 0.96963  0.23127  0.85410  Biso   1.000  C
  C18      1.0000 0.03037  0.76873  0.35410  Biso   1.000  C
  C19      1.0000 0.53037  0.73127  0.35410  Biso   1.000  C
  C20      1.0000 0.46963  0.26873  0.85410  Biso   1.000  C
  H45      1.0000 0.02910  0.20210  0.86180  Biso   1.000  H
  H46      1.0000 0.97090  0.79790  0.36180  Biso   1.000  H
  H47      1.0000 0.47090  0.70210  0.36180  Biso   1.000  H
  H48      1.0000 0.52910  0.29790  0.86180  Biso   1.000  H
  H49      1.0000 0.97150  0.31690  0.81590  Biso   1.000  H
  H50      1.0000 0.02850  0.68310  0.31590  Biso   1.000  H
  H51      1.0000 0.52850  0.81690  0.31590  Biso   1.000  H
  H52      1.0000 0.47150  0.18310  0.81590  Biso   1.000  H
  C21      1.0000 0.92429  0.15244  0.73580  Biso   1.000  C
  C22      1.0000 0.07571  0.84756  0.23580  Biso   1.000  C
  C23      1.0000 0.57571  0.65244  0.23580  Biso   1.000  C
  C24      1.0000 0.42429  0.34756  0.73580  Biso   1.000  C
  H53      1.0000 0.92710  0.06570  0.76590  Biso   1.000  H
  H54      1.0000 0.07290  0.93430  0.26590  Biso   1.000  H
  H55      1.0000 0.57290  0.56570  0.26590  Biso   1.000  H
  H56      1.0000 0.42710  0.43430  0.76590  Biso   1.000  H
  H57      1.0000 0.95200  0.16310  0.63710  Biso   1.000  H
  H58      1.0000 0.04800  0.83690  0.13710  Biso   1.000  H
  H59      1.0000 0.54800  0.66310  0.13710  Biso   1.000  H
  H60      1.0000 0.45200  0.33690  0.63710  Biso   1.000  H
  H61      1.0000 0.86470  0.17790  0.72850  Biso   1.000  H
  H62      1.0000 0.13530  0.82210  0.22850  Biso   1.000  H
  H63      1.0000 0.63530  0.67790  0.22850  Biso   1.000  H
  H64      1.0000 0.36470  0.32210  0.72850  Biso   1.000  H
  C25      1.0000 0.14086  0.48975  0.01260  Biso   1.000  C
  C26      1.0000 0.85914  0.51025  0.51260  Biso   1.000  C
  C27      1.0000 0.35914  0.98975  0.51260  Biso   1.000  C
  C28      1.0000 0.64086  0.01025  0.01260  Biso   1.000  C
  C29      1.0000 0.21709  0.57171  0.00840  Biso   1.000  C
  C30      1.0000 0.78291  0.42829  0.50840  Biso   1.000  C
  C31      1.0000 0.28291  0.07171  0.50840  Biso   1.000  C
  C32      1.0000 0.71709  0.92829  0.00840  Biso   1.000  C
  C33      1.0000 0.25523  0.63377  0.12450  Biso   1.000  C
  C34      1.0000 0.74477  0.36623  0.62450  Biso   1.000  C
  C35      1.0000 0.24477  0.13377  0.62450  Biso   1.000  C
  C36      1.0000 0.75523  0.86623  0.12450  Biso   1.000  C
  H65      1.0000 0.23580  0.63100  0.22640  Biso   1.000  H
  H66      1.0000 0.76420  0.36900  0.72640  Biso   1.000  H
  H67      1.0000 0.26420  0.13100  0.72640  Biso   1.000  H
  H68      1.0000 0.73580  0.86900  0.22640  Biso   1.000  H
  C37      1.0000 0.32677  0.70260  0.07710  Biso   1.000  C
  C38      1.0000 0.67323  0.29740  0.57710  Biso   1.000  C
  C39      1.0000 0.17323  0.20260  0.57710  Biso   1.000  C
  C40      1.0000 0.82677  0.79740  0.07710  Biso   1.000  C
  H69      1.0000 0.36090  0.75040  0.14350  Biso   1.000  H
  H70      1.0000 0.63910  0.24960  0.64350  Biso   1.000  H
  H71      1.0000 0.13910  0.25040  0.64350  Biso   1.000  H
  H72      1.0000 0.86090  0.74960  0.14350  Biso   1.000  H
  C41      1.0000 0.34110  0.69241  0.92480  Biso   1.000  C
  C42      1.0000 0.65890  0.30759  0.42480  Biso   1.000  C
  C43      1.0000 0.15890  0.19241  0.42480  Biso   1.000  C
  C44      1.0000 0.84110  0.80759  0.92480  Biso   1.000  C
  C45      1.0000 0.40824  0.75153  0.83300  Biso   1.000  C
  C46      1.0000 0.59176  0.24847  0.33300  Biso   1.000  C
  C47      1.0000 0.09176  0.25153  0.33300  Biso   1.000  C
  C48      1.0000 0.90824  0.74847  0.83300  Biso   1.000  C
