data_image0
_cell_length_a       7.849
_cell_length_b       9.782
_cell_length_c       17.355
_cell_angle_alpha    90
_cell_angle_beta     90
_cell_angle_gamma    90

_symmetry_space_group_name_H-M    "P 1"
_symmetry_int_tables_number       1

loop_
  _symmetry_equiv_pos_as_xyz
  'x, y, z'

loop_
  _atom_site_label
  _atom_site_occupancy
  _atom_site_fract_x
  _atom_site_fract_y
  _atom_site_fract_z
  _atom_site_thermal_displace_type
  _atom_site_B_iso_or_equiv
  _atom_site_type_symbol
  Cu1      1.0000 0.35077  0.01235  0.99889  Biso   1.000  Cu
  Cu2      1.0000 0.85077  0.48765  0.00111  Biso   1.000  Cu
  Cu3      1.0000 0.64923  0.51235  0.50111  Biso   1.000  Cu
  Cu4      1.0000 0.14923  0.98765  0.49889  Biso   1.000  Cu
  N1       1.0000 0.16800  0.93570  0.06840  Biso   1.000  N
  N2       1.0000 0.66800  0.56430  0.93160  Biso   1.000  N
  N3       1.0000 0.83200  0.43570  0.43160  Biso   1.000  N
  N4       1.0000 0.33200  0.06430  0.56840  Biso   1.000  N
  H1       1.0000 0.18410  0.84160  0.06940  Biso   1.000  H
  H2       1.0000 0.68410  0.65840  0.93060  Biso   1.000  H
  H3       1.0000 0.81590  0.34160  0.43060  Biso   1.000  H
  H4       1.0000 0.31590  0.15840  0.56940  Biso   1.000  H
  N5       1.0000 0.16360  0.01970  0.91994  Biso   1.000  N
  N6       1.0000 0.66360  0.48030  0.08006  Biso   1.000  N
  N7       1.0000 0.83640  0.51970  0.58006  Biso   1.000  N
  N8       1.0000 0.33640  0.98030  0.41994  Biso   1.000  N
  H5       1.0000 0.12180  0.10850  0.92270  Biso   1.000  H
  H6       1.0000 0.62180  0.39150  0.07730  Biso   1.000  H
  H7       1.0000 0.87820  0.60850  0.57730  Biso   1.000  H
  H8       1.0000 0.37820  0.89150  0.42270  Biso   1.000  H
  S1       1.0000 0.75448  0.14053  0.25763  Biso   1.000  S
  S2       1.0000 0.25448  0.35947  0.74237  Biso   1.000  S
  S3       1.0000 0.24552  0.64053  0.24237  Biso   1.000  S
  S4       1.0000 0.74552  0.85947  0.75763  Biso   1.000  S
  O1       1.0000 0.52190  0.98940  0.07936  Biso   1.000  O
  O2       1.0000 0.02190  0.51060  0.92064  Biso   1.000  O
  O3       1.0000 0.47810  0.48940  0.42064  Biso   1.000  O
  O4       1.0000 0.97810  0.01060  0.57936  Biso   1.000  O
  O5       1.0000 0.53540  0.20390  0.12351  Biso   1.000  O
  O6       1.0000 0.03540  0.29610  0.87649  Biso   1.000  O
  O7       1.0000 0.46460  0.70390  0.37649  Biso   1.000  O
  O8       1.0000 0.96460  0.79610  0.62351  Biso   1.000  O
  O9       1.0000 0.97640  0.93560  0.42212  Biso   1.000  O
  O10      1.0000 0.47640  0.56440  0.57788  Biso   1.000  O
  O11      1.0000 0.02360  0.43560  0.07788  Biso   1.000  O
  O12      1.0000 0.52360  0.06440  0.92212  Biso   1.000  O
  O13      1.0000 0.95370  0.15780  0.40337  Biso   1.000  O
  O14      1.0000 0.45370  0.34220  0.59663  Biso   1.000  O
  O15      1.0000 0.04630  0.65780  0.09663  Biso   1.000  O
  O16      1.0000 0.54630  0.84220  0.90337  Biso   1.000  O
  C1       1.0000 0.56970  0.08100  0.12603  Biso   1.000  C
  C2       1.0000 0.06970  0.41900  0.87397  Biso   1.000  C
  C3       1.0000 0.43030  0.58100  0.37397  Biso   1.000  C
  C4       1.0000 0.93030  0.91900  0.62603  Biso   1.000  C
  C5       1.0000 0.67040  0.02980  0.19230  Biso   1.000  C
  C6       1.0000 0.17040  0.47020  0.80770  Biso   1.000  C
  C7       1.0000 0.32960  0.52980  0.30770  Biso   1.000  C
  C8       1.0000 0.82960  0.97020  0.69230  Biso   1.000  C
  C9       1.0000 0.70000  0.89800  0.21340  Biso   1.000  C
  C10      1.0000 0.20000  0.60200  0.78660  Biso   1.000  C
  C11      1.0000 0.30000  0.39800  0.28660  Biso   1.000  C
  C12      1.0000 0.80000  0.10200  0.71340  Biso   1.000  C
  H9       1.0000 0.66270  0.82140  0.18430  Biso   1.000  H
  H10      1.0000 0.16270  0.67860  0.81570  Biso   1.000  H
  H11      1.0000 0.33730  0.32140  0.31570  Biso   1.000  H
  H12      1.0000 0.83730  0.17860  0.68430  Biso   1.000  H
  C13      1.0000 0.79070  0.88680  0.28203  Biso   1.000  C
  C14      1.0000 0.29070  0.61320  0.71797  Biso   1.000  C
  C15      1.0000 0.20930  0.38680  0.21797  Biso   1.000  C
  C16      1.0000 0.70930  0.11320  0.78203  Biso   1.000  C
  H13      1.0000 0.82200  0.80190  0.30450  Biso   1.000  H
  H14      1.0000 0.32200  0.69810  0.69550  Biso   1.000  H
  H15      1.0000 0.17800  0.30190  0.19550  Biso   1.000  H
  H16      1.0000 0.67800  0.19810  0.80450  Biso   1.000  H
  C17      1.0000 0.82970  0.01000  0.31345  Biso   1.000  C
  C18      1.0000 0.32970  0.49000  0.68655  Biso   1.000  C
  C19      1.0000 0.17030  0.51000  0.18655  Biso   1.000  C
  C20      1.0000 0.67030  0.99000  0.81345  Biso   1.000  C
  C21      1.0000 0.92470  0.03860  0.38495  Biso   1.000  C
  C22      1.0000 0.42470  0.46140  0.61505  Biso   1.000  C
  C23      1.0000 0.07530  0.53860  0.11505  Biso   1.000  C
  C24      1.0000 0.57530  0.96140  0.88495  Biso   1.000  C
  C25      1.0000 0.00260  0.95910  0.03173  Biso   1.000  C
  C26      1.0000 0.50260  0.54090  0.96827  Biso   1.000  C
  C27      1.0000 0.99740  0.45910  0.46827  Biso   1.000  C
  C28      1.0000 0.49740  0.04090  0.53173  Biso   1.000  C
  H17      1.0000 0.96490  0.05440  0.04050  Biso   1.000  H
  H18      1.0000 0.46490  0.44560  0.95950  Biso   1.000  H
  H19      1.0000 0.03510  0.55440  0.45950  Biso   1.000  H
  H20      1.0000 0.53510  0.94560  0.54050  Biso   1.000  H
  H21      1.0000 0.91600  0.89660  0.05370  Biso   1.000  H
  H22      1.0000 0.41600  0.60340  0.94630  Biso   1.000  H
  H23      1.0000 0.08400  0.39660  0.44630  Biso   1.000  H
  H24      1.0000 0.58400  0.10340  0.55370  Biso   1.000  H
  C29      1.0000 0.02310  0.93300  0.94791  Biso   1.000  C
  C30      1.0000 0.52310  0.56700  0.05209  Biso   1.000  C
  C31      1.0000 0.97690  0.43300  0.55209  Biso   1.000  C
  C32      1.0000 0.47690  0.06700  0.44791  Biso   1.000  C
  H25      1.0000 0.04960  0.83540  0.93880  Biso   1.000  H
  H26      1.0000 0.54960  0.66460  0.06120  Biso   1.000  H
  H27      1.0000 0.95040  0.33540  0.56120  Biso   1.000  H
  H28      1.0000 0.45040  0.16460  0.43880  Biso   1.000  H
  H29      1.0000 0.91640  0.95570  0.92030  Biso   1.000  H
  H30      1.0000 0.41640  0.54430  0.07970  Biso   1.000  H
  H31      1.0000 0.08360  0.45570  0.57970  Biso   1.000  H
  H32      1.0000 0.58360  0.04430  0.42030  Biso   1.000  H
  C33      1.0000 0.19650  0.99650  0.83786  Biso   1.000  C
  C34      1.0000 0.69650  0.50350  0.16214  Biso   1.000  C
  C35      1.0000 0.80350  0.49650  0.66214  Biso   1.000  C
  C36      1.0000 0.30350  0.00350  0.33786  Biso   1.000  C
  H33      1.0000 0.28880  0.05660  0.82070  Biso   1.000  H
  H34      1.0000 0.78880  0.44340  0.17930  Biso   1.000  H
  H35      1.0000 0.71120  0.55660  0.67930  Biso   1.000  H
  H36      1.0000 0.21120  0.94340  0.32070  Biso   1.000  H
  H37      1.0000 0.09310  0.01640  0.80830  Biso   1.000  H
  H38      1.0000 0.59310  0.48360  0.19170  Biso   1.000  H
  H39      1.0000 0.90690  0.51640  0.69170  Biso   1.000  H
  H40      1.0000 0.40690  0.98360  0.30830  Biso   1.000  H
  H41      1.0000 0.22940  0.90100  0.82980  Biso   1.000  H
  H42      1.0000 0.72940  0.59900  0.17020  Biso   1.000  H
  H43      1.0000 0.77060  0.40100  0.67020  Biso   1.000  H
  H44      1.0000 0.27060  0.09900  0.32980  Biso   1.000  H
  C37      1.0000 0.16680  0.98120  0.14914  Biso   1.000  C
  C38      1.0000 0.66680  0.51880  0.85086  Biso   1.000  C
  C39      1.0000 0.83320  0.48120  0.35086  Biso   1.000  C
  C40      1.0000 0.33320  0.01880  0.64914  Biso   1.000  C
  H45      1.0000 0.27860  0.96390  0.17230  Biso   1.000  H
  H46      1.0000 0.77860  0.53610  0.82770  Biso   1.000  H
  H47      1.0000 0.72140  0.46390  0.32770  Biso   1.000  H
  H48      1.0000 0.22140  0.03610  0.67230  Biso   1.000  H
  H49      1.0000 0.07930  0.93060  0.17760  Biso   1.000  H
  H50      1.0000 0.57930  0.56940  0.82240  Biso   1.000  H
  H51      1.0000 0.92070  0.43060  0.32240  Biso   1.000  H
  H52      1.0000 0.42070  0.06940  0.67760  Biso   1.000  H
  H53      1.0000 0.14160  0.07920  0.15130  Biso   1.000  H
  H54      1.0000 0.64160  0.42080  0.84870  Biso   1.000  H
  H55      1.0000 0.85840  0.57920  0.34870  Biso   1.000  H
  H56      1.0000 0.35840  0.92080  0.65130  Biso   1.000  H
  O17      1.0000 0.28250  0.24670  0.02608  Biso   1.000  O
  O18      1.0000 0.78250  0.25330  0.97392  Biso   1.000  O
  O19      1.0000 0.71750  0.74670  0.47392  Biso   1.000  O
  O20      1.0000 0.21750  0.75330  0.52608  Biso   1.000  O
  H57      1.0000 0.26450  0.28960  0.98290  Biso   1.000  H
  H58      1.0000 0.76450  0.21040  0.01710  Biso   1.000  H
  H59      1.0000 0.73550  0.78960  0.51710  Biso   1.000  H
  H60      1.0000 0.23550  0.71040  0.48290  Biso   1.000  H
  H61      1.0000 0.19080  0.24980  0.05430  Biso   1.000  H
  H62      1.0000 0.69080  0.25020  0.94570  Biso   1.000  H
  H63      1.0000 0.80920  0.74980  0.44570  Biso   1.000  H
  H64      1.0000 0.30920  0.75020  0.55430  Biso   1.000  H
