data_image0
_cell_length_a       8.1153
_cell_length_b       10.533
_cell_length_c       26.286
_cell_angle_alpha    90
_cell_angle_beta     90
_cell_angle_gamma    90

_symmetry_space_group_name_H-M    "P 1"
_symmetry_int_tables_number       1

loop_
  _symmetry_equiv_pos_as_xyz
  'x, y, z'

loop_
  _atom_site_label
  _atom_site_occupancy
  _atom_site_fract_x
  _atom_site_fract_y
  _atom_site_fract_z
  _atom_site_thermal_displace_type
  _atom_site_B_iso_or_equiv
  _atom_site_type_symbol
  Cu1      1.0000 0.59672  0.87980  0.06724  Biso   1.000  Cu
  Cu2      1.0000 0.90328  0.12020  0.56724  Biso   1.000  Cu
  Cu3      1.0000 0.40328  0.37980  0.43276  Biso   1.000  Cu
  Cu4      1.0000 0.09672  0.62020  0.93276  Biso   1.000  Cu
  N1       1.0000 0.50710  0.05250  0.05080  Biso   1.000  N
  N2       1.0000 0.99290  0.94750  0.55080  Biso   1.000  N
  N3       1.0000 0.49290  0.55250  0.44920  Biso   1.000  N
  N4       1.0000 0.00710  0.44750  0.94920  Biso   1.000  N
  N5       1.0000 0.48570  0.91570  0.13390  Biso   1.000  N
  N6       1.0000 0.01430  0.08430  0.63390  Biso   1.000  N
  N7       1.0000 0.51430  0.41570  0.36610  Biso   1.000  N
  N8       1.0000 0.98570  0.58430  0.86610  Biso   1.000  N
  N9       1.0000 0.75170  0.73560  0.08510  Biso   1.000  N
  N10      1.0000 0.74830  0.26440  0.58510  Biso   1.000  N
  N11      1.0000 0.24830  0.23560  0.41490  Biso   1.000  N
  N12      1.0000 0.25170  0.76440  0.91490  Biso   1.000  N
  C1       1.0000 0.43620  0.10940  0.09030  Biso   1.000  C
  C2       1.0000 0.06380  0.89060  0.59030  Biso   1.000  C
  C3       1.0000 0.56380  0.60940  0.40970  Biso   1.000  C
  C4       1.0000 0.93620  0.39060  0.90970  Biso   1.000  C
  C5       1.0000 0.38780  0.23500  0.08640  Biso   1.000  C
  C6       1.0000 0.11220  0.76500  0.58640  Biso   1.000  C
  C7       1.0000 0.61220  0.73500  0.41360  Biso   1.000  C
  C8       1.0000 0.88780  0.26500  0.91360  Biso   1.000  C
  H1       1.0000 0.33850  0.27570  0.11380  Biso   1.000  H
  H2       1.0000 0.16150  0.72430  0.61380  Biso   1.000  H
  H3       1.0000 0.66150  0.77570  0.38620  Biso   1.000  H
  H4       1.0000 0.83850  0.22430  0.88620  Biso   1.000  H
  C9       1.0000 0.41320  0.29880  0.04160  Biso   1.000  C
  C10      1.0000 0.08680  0.70120  0.54160  Biso   1.000  C
  C11      1.0000 0.58680  0.79880  0.45840  Biso   1.000  C
  C12      1.0000 0.91320  0.20120  0.95840  Biso   1.000  C
  H5       1.0000 0.38030  0.38310  0.03870  Biso   1.000  H
  H6       1.0000 0.11970  0.61690  0.53870  Biso   1.000  H
  H7       1.0000 0.61970  0.88310  0.46130  Biso   1.000  H
  H8       1.0000 0.88030  0.11690  0.96130  Biso   1.000  H
  C13      1.0000 0.48590  0.24010  0.00130  Biso   1.000  C
  C14      1.0000 0.01410  0.75990  0.50130  Biso   1.000  C
  C15      1.0000 0.51410  0.74010  0.49870  Biso   1.000  C
  C16      1.0000 0.98590  0.25990  0.99870  Biso   1.000  C
  H9       1.0000 0.50390  0.28240  0.97070  Biso   1.000  H
  H10      1.0000 0.99610  0.71760  0.47070  Biso   1.000  H
  H11      1.0000 0.49610  0.78240  0.52930  Biso   1.000  H
  H12      1.0000 0.00390  0.21760  0.02930  Biso   1.000  H
  C17      1.0000 0.53220  0.11380  0.00790  Biso   1.000  C
  C18      1.0000 0.96780  0.88620  0.50790  Biso   1.000  C
  C19      1.0000 0.46780  0.61380  0.49210  Biso   1.000  C
  C20      1.0000 0.03220  0.38620  0.99210  Biso   1.000  C
  H13      1.0000 0.58270  0.07140  0.98110  Biso   1.000  H
  H14      1.0000 0.91730  0.92860  0.48110  Biso   1.000  H
  H15      1.0000 0.41730  0.57140  0.51890  Biso   1.000  H
  H16      1.0000 0.08270  0.42860  0.01890  Biso   1.000  H
  C21      1.0000 0.41890  0.03030  0.13610  Biso   1.000  C
  C22      1.0000 0.08110  0.96970  0.63610  Biso   1.000  C
  C23      1.0000 0.58110  0.53030  0.36390  Biso   1.000  C
  C24      1.0000 0.91890  0.46970  0.86390  Biso   1.000  C
  C25      1.0000 0.32590  0.06860  0.17800  Biso   1.000  C
  C26      1.0000 0.17410  0.93140  0.67800  Biso   1.000  C
  C27      1.0000 0.67410  0.56860  0.32200  Biso   1.000  C
  C28      1.0000 0.82590  0.43140  0.82200  Biso   1.000  C
  H17      1.0000 0.27100  0.14610  0.17810  Biso   1.000  H
  H18      1.0000 0.22900  0.85390  0.67810  Biso   1.000  H
  H19      1.0000 0.72900  0.64610  0.32190  Biso   1.000  H
  H20      1.0000 0.77100  0.35390  0.82190  Biso   1.000  H
  C29      1.0000 0.31770  0.98780  0.21940  Biso   1.000  C
  C30      1.0000 0.18230  0.01220  0.71940  Biso   1.000  C
  C31      1.0000 0.68230  0.48780  0.28060  Biso   1.000  C
  C32      1.0000 0.81770  0.51220  0.78060  Biso   1.000  C
  H21      1.0000 0.26130  0.01250  0.24860  Biso   1.000  H
  H22      1.0000 0.23870  0.98750  0.74860  Biso   1.000  H
  H23      1.0000 0.73870  0.51250  0.25140  Biso   1.000  H
  H24      1.0000 0.76130  0.48750  0.75140  Biso   1.000  H
  C33      1.0000 0.39130  0.87340  0.21750  Biso   1.000  C
  C34      1.0000 0.10870  0.12660  0.71750  Biso   1.000  C
  C35      1.0000 0.60870  0.37340  0.28250  Biso   1.000  C
  C36      1.0000 0.89130  0.62660  0.78250  Biso   1.000  C
  H25      1.0000 0.38660  0.81800  0.24500  Biso   1.000  H
  H26      1.0000 0.11340  0.18200  0.74500  Biso   1.000  H
  H27      1.0000 0.61340  0.31800  0.25500  Biso   1.000  H
  H28      1.0000 0.88660  0.68200  0.75500  Biso   1.000  H
  C37      1.0000 0.47440  0.84050  0.17330  Biso   1.000  C
  C38      1.0000 0.02560  0.15950  0.67330  Biso   1.000  C
  C39      1.0000 0.52560  0.34050  0.32670  Biso   1.000  C
  C40      1.0000 0.97440  0.65950  0.82670  Biso   1.000  C
  H29      1.0000 0.52450  0.76120  0.17160  Biso   1.000  H
  H30      1.0000 0.97550  0.23880  0.67160  Biso   1.000  H
  H31      1.0000 0.47550  0.26120  0.32840  Biso   1.000  H
  H32      1.0000 0.02450  0.73880  0.82840  Biso   1.000  H
  C41      1.0000 0.88810  0.85470  0.15560  Biso   1.000  C
  C42      1.0000 0.61190  0.14530  0.65560  Biso   1.000  C
  C43      1.0000 0.11190  0.35470  0.34440  Biso   1.000  C
  C44      1.0000 0.38810  0.64530  0.84440  Biso   1.000  C
  C45      1.0000 0.85630  0.98370  0.15680  Biso   1.000  C
  C46      1.0000 0.64370  0.01630  0.65680  Biso   1.000  C
  C47      1.0000 0.14370  0.48370  0.34320  Biso   1.000  C
  C48      1.0000 0.35630  0.51630  0.84320  Biso   1.000  C
  C49      1.0000 0.83930  0.04300  0.20310  Biso   1.000  C
  C50      1.0000 0.66070  0.95700  0.70310  Biso   1.000  C
  C51      1.0000 0.16070  0.54300  0.29690  Biso   1.000  C
  C52      1.0000 0.33930  0.45700  0.79690  Biso   1.000  C
  H33      1.0000 0.82020  0.13000  0.20420  Biso   1.000  H
  H34      1.0000 0.67980  0.87000  0.70420  Biso   1.000  H
  H35      1.0000 0.17980  0.63000  0.29580  Biso   1.000  H
  H36      1.0000 0.32020  0.37000  0.79580  Biso   1.000  H
  C53      1.0000 0.84990  0.97610  0.24760  Biso   1.000  C
  C54      1.0000 0.65010  0.02390  0.74760  Biso   1.000  C
  C55      1.0000 0.15010  0.47610  0.25240  Biso   1.000  C
  C56      1.0000 0.34990  0.52390  0.75240  Biso   1.000  C
  H37      1.0000 0.83160  0.01770  0.27830  Biso   1.000  H
  H38      1.0000 0.66840  0.98230  0.77830  Biso   1.000  H
  H39      1.0000 0.16840  0.51770  0.22170  Biso   1.000  H
  H40      1.0000 0.33160  0.48230  0.72170  Biso   1.000  H
  C57      1.0000 0.88730  0.84840  0.24800  Biso   1.000  C
  C58      1.0000 0.61270  0.15160  0.74800  Biso   1.000  C
  C59      1.0000 0.11270  0.34840  0.25200  Biso   1.000  C
  C60      1.0000 0.38730  0.65160  0.75200  Biso   1.000  C
  H41      1.0000 0.90130  0.80390  0.27820  Biso   1.000  H
  H42      1.0000 0.59870  0.19610  0.77820  Biso   1.000  H
  H43      1.0000 0.09870  0.30390  0.22180  Biso   1.000  H
  H44      1.0000 0.40130  0.69610  0.72180  Biso   1.000  H
  C61      1.0000 0.90270  0.79030  0.20170  Biso   1.000  C
  C62      1.0000 0.59730  0.20970  0.70170  Biso   1.000  C
  C63      1.0000 0.09730  0.29030  0.29830  Biso   1.000  C
  C64      1.0000 0.40270  0.70970  0.79830  Biso   1.000  C
  H45      1.0000 0.92400  0.70360  0.20100  Biso   1.000  H
  H46      1.0000 0.57600  0.29640  0.70100  Biso   1.000  H
  H47      1.0000 0.07600  0.20360  0.29900  Biso   1.000  H
  H48      1.0000 0.42400  0.79640  0.79900  Biso   1.000  H
  C65      1.0000 0.91000  0.78630  0.10600  Biso   1.000  C
  C66      1.0000 0.59000  0.21370  0.60600  Biso   1.000  C
  C67      1.0000 0.09000  0.28630  0.39400  Biso   1.000  C
  C68      1.0000 0.41000  0.71370  0.89400  Biso   1.000  C
  H49      1.0000 0.95820  0.84400  0.08140  Biso   1.000  H
  H50      1.0000 0.54180  0.15600  0.58140  Biso   1.000  H
  H51      1.0000 0.04180  0.34400  0.41860  Biso   1.000  H
  H52      1.0000 0.45820  0.65600  0.91860  Biso   1.000  H
  H53      1.0000 0.98630  0.71640  0.11080  Biso   1.000  H
  H54      1.0000 0.51370  0.28360  0.61080  Biso   1.000  H
  H55      1.0000 0.01370  0.21640  0.38920  Biso   1.000  H
  H56      1.0000 0.48630  0.78360  0.88920  Biso   1.000  H
  C69      1.0000 0.78370  0.66850  0.03580  Biso   1.000  C
  C70      1.0000 0.71630  0.33150  0.53580  Biso   1.000  C
  C71      1.0000 0.21630  0.16850  0.46420  Biso   1.000  C
  C72      1.0000 0.28370  0.83150  0.96420  Biso   1.000  C
  H57      1.0000 0.89630  0.63500  0.03700  Biso   1.000  H
  H58      1.0000 0.60370  0.36500  0.53700  Biso   1.000  H
  H59      1.0000 0.10370  0.13500  0.46300  Biso   1.000  H
  H60      1.0000 0.39630  0.86500  0.96300  Biso   1.000  H
  C73      1.0000 0.77570  0.76410  0.99270  Biso   1.000  C
  C74      1.0000 0.72430  0.23590  0.49270  Biso   1.000  C
  C75      1.0000 0.22430  0.26410  0.50730  Biso   1.000  C
  C76      1.0000 0.27570  0.73590  0.00730  Biso   1.000  C
  C77      1.0000 0.66940  0.55880  0.02580  Biso   1.000  C
  C78      1.0000 0.83060  0.44120  0.52580  Biso   1.000  C
  C79      1.0000 0.33060  0.05880  0.47420  Biso   1.000  C
  C80      1.0000 0.16940  0.94120  0.97420  Biso   1.000  C
  H61      1.0000 0.67600  0.49940  0.05340  Biso   1.000  H
  H62      1.0000 0.82400  0.50060  0.55340  Biso   1.000  H
  H63      1.0000 0.32400  0.99940  0.44660  Biso   1.000  H
  H64      1.0000 0.17600  0.00060  0.94660  Biso   1.000  H
  H65      1.0000 0.70080  0.51740  0.99470  Biso   1.000  H
  H66      1.0000 0.79920  0.48260  0.49470  Biso   1.000  H
  H67      1.0000 0.29920  0.01740  0.50530  Biso   1.000  H
  H68      1.0000 0.20080  0.98260  0.00530  Biso   1.000  H
  H69      1.0000 0.55840  0.58950  0.02280  Biso   1.000  H
  H70      1.0000 0.94160  0.41050  0.52280  Biso   1.000  H
  H71      1.0000 0.44160  0.08950  0.47720  Biso   1.000  H
  H72      1.0000 0.05840  0.91050  0.97720  Biso   1.000  H
  O1       1.0000 0.69660  0.86440  0.00011  Biso   1.000  O
  O2       1.0000 0.80340  0.13560  0.50011  Biso   1.000  O
  O3       1.0000 0.30340  0.36440  0.49989  Biso   1.000  O
  O4       1.0000 0.19660  0.63560  0.99989  Biso   1.000  O
  O5       1.0000 0.84620  0.73920  0.95146  Biso   1.000  O
  O6       1.0000 0.65380  0.26080  0.45146  Biso   1.000  O
  O7       1.0000 0.15380  0.23920  0.54854  Biso   1.000  O
  O8       1.0000 0.34620  0.76080  0.04854  Biso   1.000  O
  O9       1.0000 0.84230  0.04620  0.11260  Biso   1.000  O
  O10      1.0000 0.65770  0.95380  0.61260  Biso   1.000  O
  O11      1.0000 0.15770  0.54620  0.38740  Biso   1.000  O
  O12      1.0000 0.34230  0.45380  0.88740  Biso   1.000  O
  H73      1.0000 0.86800  0.05700  0.08500  Biso   1.000  H
  H74      1.0000 0.63200  0.94300  0.58500  Biso   1.000  H
  H75      1.0000 0.13200  0.55700  0.41500  Biso   1.000  H
  H76      1.0000 0.36800  0.44300  0.91500  Biso   1.000  H
  N13      1.0000 0.91520  0.36270  0.12850  Biso   1.000  N
  N14      1.0000 0.58480  0.63730  0.62850  Biso   1.000  N
  N15      1.0000 0.08480  0.86270  0.37150  Biso   1.000  N
  N16      1.0000 0.41520  0.13730  0.87150  Biso   1.000  N
  O13      1.0000 0.02840  0.28650  0.12490  Biso   1.000  O
  O14      1.0000 0.47160  0.71350  0.62490  Biso   1.000  O
  O15      1.0000 0.97160  0.78650  0.37510  Biso   1.000  O
  O16      1.0000 0.52840  0.21350  0.87510  Biso   1.000  O
  O17      1.0000 0.76600  0.33500  0.14380  Biso   1.000  O
  O18      1.0000 0.73400  0.66500  0.64380  Biso   1.000  O
  O19      1.0000 0.23400  0.83500  0.35620  Biso   1.000  O
  O20      1.0000 0.26600  0.16500  0.85620  Biso   1.000  O
  O21      1.0000 0.93550  0.47760  0.12840  Biso   1.000  O
  O22      1.0000 0.56450  0.52240  0.62840  Biso   1.000  O
  O23      1.0000 0.06450  0.97760  0.37160  Biso   1.000  O
  O24      1.0000 0.43550  0.02240  0.87160  Biso   1.000  O
  O25      1.0000 0.27430  0.55160  0.11730  Biso   1.000  O
  O26      1.0000 0.22570  0.44840  0.61730  Biso   1.000  O
  O27      1.0000 0.72570  0.05160  0.38270  Biso   1.000  O
  O28      1.0000 0.77430  0.94840  0.88270  Biso   1.000  O
  O29      1.0000 0.58760  0.54630  0.15583  Biso   1.000  O
  O30      1.0000 0.91240  0.45370  0.65583  Biso   1.000  O
  O31      1.0000 0.41240  0.04630  0.34417  Biso   1.000  O
  O32      1.0000 0.08760  0.95370  0.84417  Biso   1.000  O
  O33      1.0000 0.77900  0.30100  0.12380  Biso   1.000  O
  O34      1.0000 0.72100  0.69900  0.62380  Biso   1.000  O
  O35      1.0000 0.22100  0.80100  0.37620  Biso   1.000  O
  O36      1.0000 0.27900  0.19900  0.87620  Biso   1.000  O
