data_image0
_cell_length_a       7.1248
_cell_length_b       13.6
_cell_length_c       6.7973
_cell_angle_alpha    90
_cell_angle_beta     97.821
_cell_angle_gamma    90

_symmetry_space_group_name_H-M    "P 1"
_symmetry_int_tables_number       1

loop_
  _symmetry_equiv_pos_as_xyz
  'x, y, z'

loop_
  _atom_site_label
  _atom_site_occupancy
  _atom_site_fract_x
  _atom_site_fract_y
  _atom_site_fract_z
  _atom_site_thermal_displace_type
  _atom_site_B_iso_or_equiv
  _atom_site_type_symbol
  Cu1      1.0000 0.50000  0.50000  0.00000  Biso   1.000  Cu
  Cu2      1.0000 0.50000  0.00000  0.50000  Biso   1.000  Cu
  O1       1.0000 0.31779  0.52337  0.65234  Biso   1.000  O
  O2       1.0000 0.68221  0.02337  0.84766  Biso   1.000  O
  O3       1.0000 0.68221  0.47663  0.34766  Biso   1.000  O
  O4       1.0000 0.31779  0.97663  0.15234  Biso   1.000  O
  O5       1.0000 0.09841  0.61726  0.74348  Biso   1.000  O
  O6       1.0000 0.90159  0.11726  0.75652  Biso   1.000  O
  O7       1.0000 0.90159  0.38274  0.25652  Biso   1.000  O
  O8       1.0000 0.09841  0.88274  0.24348  Biso   1.000  O
  N1       1.0000 0.40935  0.36349  0.00133  Biso   1.000  N
  N2       1.0000 0.59065  0.86349  0.49867  Biso   1.000  N
  N3       1.0000 0.59065  0.63651  0.99867  Biso   1.000  N
  N4       1.0000 0.40935  0.13651  0.50133  Biso   1.000  N
  N5       1.0000 0.22114  0.23782  0.02532  Biso   1.000  N
  N6       1.0000 0.77886  0.73782  0.47468  Biso   1.000  N
  N7       1.0000 0.77886  0.76218  0.97468  Biso   1.000  N
  N8       1.0000 0.22114  0.26218  0.52532  Biso   1.000  N
  N9       1.0000 0.29967  0.54052  0.16918  Biso   1.000  N
  N10      1.0000 0.70033  0.04052  0.33082  Biso   1.000  N
  N11      1.0000 0.70033  0.45948  0.83082  Biso   1.000  N
  N12      1.0000 0.29967  0.95948  0.66918  Biso   1.000  N
  N13      1.0000 0.11689  0.60673  0.42461  Biso   1.000  N
  N14      1.0000 0.88311  0.10673  0.07539  Biso   1.000  N
  N15      1.0000 0.88311  0.39327  0.57539  Biso   1.000  N
  N16      1.0000 0.11689  0.89327  0.92461  Biso   1.000  N
  N17      1.0000 0.18172  0.58058  0.61467  Biso   1.000  N
  N18      1.0000 0.81828  0.08058  0.88533  Biso   1.000  N
  N19      1.0000 0.81828  0.41942  0.38533  Biso   1.000  N
  N20      1.0000 0.18172  0.91942  0.11467  Biso   1.000  N
  C1       1.0000 0.51005  0.27798  0.98244  Biso   1.000  C
  C2       1.0000 0.48995  0.77798  0.51756  Biso   1.000  C
  C3       1.0000 0.48995  0.72202  0.01756  Biso   1.000  C
  C4       1.0000 0.51005  0.22202  0.48244  Biso   1.000  C
  C5       1.0000 0.39368  0.19927  0.99721  Biso   1.000  C
  C6       1.0000 0.60632  0.69927  0.50279  Biso   1.000  C
  C7       1.0000 0.60632  0.80073  0.00279  Biso   1.000  C
  C8       1.0000 0.39368  0.30073  0.49721  Biso   1.000  C
  C9       1.0000 0.23547  0.33623  0.02686  Biso   1.000  C
  C10      1.0000 0.76453  0.83623  0.47314  Biso   1.000  C
  C11      1.0000 0.76453  0.66377  0.97314  Biso   1.000  C
  C12      1.0000 0.23547  0.16377  0.52686  Biso   1.000  C
  C13      1.0000 0.21996  0.56851  0.29626  Biso   1.000  C
  C14      1.0000 0.78004  0.06851  0.20374  Biso   1.000  C
  C15      1.0000 0.78004  0.43149  0.70374  Biso   1.000  C
  C16      1.0000 0.21996  0.93149  0.79626  Biso   1.000  C
  H1       1.0000 0.65739  0.27985  0.96078  Biso   1.000  H
  H2       1.0000 0.34261  0.77985  0.53922  Biso   1.000  H
  H3       1.0000 0.34261  0.72015  0.03922  Biso   1.000  H
  H4       1.0000 0.65739  0.22015  0.46078  Biso   1.000  H
  H5       1.0000 0.41587  0.12095  0.98762  Biso   1.000  H
  H6       1.0000 0.58413  0.62095  0.51238  Biso   1.000  H
  H7       1.0000 0.58413  0.87905  0.01238  Biso   1.000  H
  H8       1.0000 0.41587  0.37905  0.48762  Biso   1.000  H
  H9       1.0000 0.10018  0.20246  0.04406  Biso   1.000  H
  H10      1.0000 0.89982  0.70246  0.45594  Biso   1.000  H
  H11      1.0000 0.89982  0.79754  0.95594  Biso   1.000  H
  H12      1.0000 0.10018  0.29754  0.54406  Biso   1.000  H
  H13      1.0000 0.11944  0.38507  0.04465  Biso   1.000  H
  H14      1.0000 0.88056  0.88507  0.45535  Biso   1.000  H
  H15      1.0000 0.88056  0.61493  0.95535  Biso   1.000  H
  H16      1.0000 0.11944  0.11493  0.54465  Biso   1.000  H
