data_image0
_cell_length_a       6.797
_cell_length_b       13.558
_cell_length_c       7.217
_cell_angle_alpha    90
_cell_angle_beta     96.58
_cell_angle_gamma    90

_symmetry_space_group_name_H-M    "P 1"
_symmetry_int_tables_number       1

loop_
  _symmetry_equiv_pos_as_xyz
  'x, y, z'

loop_
  _atom_site_label
  _atom_site_occupancy
  _atom_site_fract_x
  _atom_site_fract_y
  _atom_site_fract_z
  _atom_site_thermal_displace_type
  _atom_site_B_iso_or_equiv
  _atom_site_type_symbol
  N1       1.0000 0.40190  0.36590  0.99920  Biso   1.000  N
  N2       1.0000 0.59810  0.86590  0.50080  Biso   1.000  N
  N3       1.0000 0.59810  0.63410  0.00080  Biso   1.000  N
  N4       1.0000 0.40190  0.13410  0.49920  Biso   1.000  N
  C1       1.0000 0.49730  0.27890  0.99070  Biso   1.000  C
  C2       1.0000 0.50270  0.77890  0.50930  Biso   1.000  C
  C3       1.0000 0.50270  0.72110  0.00930  Biso   1.000  C
  C4       1.0000 0.49730  0.22110  0.49070  Biso   1.000  C
  H1       1.0000 0.63220  0.27350  0.98150  Biso   1.000  H
  H2       1.0000 0.36780  0.77350  0.51850  Biso   1.000  H
  H3       1.0000 0.36780  0.72650  0.01850  Biso   1.000  H
  H4       1.0000 0.63220  0.22650  0.48150  Biso   1.000  H
  C5       1.0000 0.37900  0.20300  0.99680  Biso   1.000  C
  C6       1.0000 0.62100  0.70300  0.50320  Biso   1.000  C
  C7       1.0000 0.62100  0.79700  0.00320  Biso   1.000  C
  C8       1.0000 0.37900  0.29700  0.49680  Biso   1.000  C
  H5       1.0000 0.40920  0.13620  0.99170  Biso   1.000  H
  H6       1.0000 0.59080  0.63620  0.50830  Biso   1.000  H
  H7       1.0000 0.59080  0.86380  0.00830  Biso   1.000  H
  H8       1.0000 0.40920  0.36380  0.49170  Biso   1.000  H
  N5       1.0000 0.20980  0.24400  0.01160  Biso   1.000  N
  N6       1.0000 0.79020  0.74400  0.48840  Biso   1.000  N
  N7       1.0000 0.79020  0.75600  0.98840  Biso   1.000  N
  N8       1.0000 0.20980  0.25600  0.51160  Biso   1.000  N
  H9       1.0000 0.10100  0.21270  0.01920  Biso   1.000  H
  H10      1.0000 0.89900  0.71270  0.48080  Biso   1.000  H
  H11      1.0000 0.89900  0.78730  0.98080  Biso   1.000  H
  H12      1.0000 0.10100  0.28730  0.51920  Biso   1.000  H
  C9       1.0000 0.22850  0.34140  0.01340  Biso   1.000  C
  C10      1.0000 0.77150  0.84140  0.48660  Biso   1.000  C
  C11      1.0000 0.77150  0.65860  0.98660  Biso   1.000  C
  C12      1.0000 0.22850  0.15860  0.51340  Biso   1.000  C
  H13      1.0000 0.12530  0.38530  0.02390  Biso   1.000  H
  H14      1.0000 0.87470  0.88530  0.47610  Biso   1.000  H
  H15      1.0000 0.87470  0.61470  0.97610  Biso   1.000  H
  H16      1.0000 0.12530  0.11470  0.52390  Biso   1.000  H
  N9       1.0000 0.30530  0.54340  0.17340  Biso   1.000  N
  N10      1.0000 0.69470  0.04340  0.32660  Biso   1.000  N
  N11      1.0000 0.69470  0.45660  0.82660  Biso   1.000  N
  N12      1.0000 0.30530  0.95660  0.67340  Biso   1.000  N
  C13      1.0000 0.22860  0.57080  0.30000  Biso   1.000  C
  C14      1.0000 0.77140  0.07080  0.20000  Biso   1.000  C
  C15      1.0000 0.77140  0.42920  0.70000  Biso   1.000  C
  C16      1.0000 0.22860  0.92920  0.80000  Biso   1.000  C
  N13      1.0000 0.12580  0.60990  0.42870  Biso   1.000  N
  N14      1.0000 0.87420  0.10990  0.07130  Biso   1.000  N
  N15      1.0000 0.87420  0.39010  0.57130  Biso   1.000  N
  N16      1.0000 0.12580  0.89010  0.92870  Biso   1.000  N
  N17      1.0000 0.18440  0.58300  0.61580  Biso   1.000  N
  N18      1.0000 0.81560  0.08300  0.88420  Biso   1.000  N
  N19      1.0000 0.81560  0.41700  0.38420  Biso   1.000  N
  N20      1.0000 0.18440  0.91700  0.11580  Biso   1.000  N
  O1       1.0000 0.31720  0.52690  0.65350  Biso   1.000  O
  O2       1.0000 0.68280  0.02690  0.84650  Biso   1.000  O
  O3       1.0000 0.68280  0.47310  0.34650  Biso   1.000  O
  O4       1.0000 0.31720  0.97310  0.15350  Biso   1.000  O
  O5       1.0000 0.10070  0.61980  0.74470  Biso   1.000  O
  O6       1.0000 0.89930  0.11980  0.75530  Biso   1.000  O
  O7       1.0000 0.89930  0.38020  0.25530  Biso   1.000  O
  O8       1.0000 0.10070  0.88020  0.24470  Biso   1.000  O
  Cu1      1.0000 0.50000  0.50000  0.00000  Biso   1.000  Cu
  Cu2      1.0000 0.50000  0.00000  0.50000  Biso   1.000  Cu
