data_image0
_cell_length_a       10.738
_cell_length_b       6.462
_cell_length_c       9.7
_cell_angle_alpha    90
_cell_angle_beta     103.6
_cell_angle_gamma    90

_symmetry_space_group_name_H-M    "P 1"
_symmetry_int_tables_number       1

loop_
  _symmetry_equiv_pos_as_xyz
  'x, y, z'

loop_
  _atom_site_label
  _atom_site_occupancy
  _atom_site_fract_x
  _atom_site_fract_y
  _atom_site_fract_z
  _atom_site_thermal_displace_type
  _atom_site_B_iso_or_equiv
  _atom_site_type_symbol
  Cu1      1.0000 0.50000  0.00000  0.50000  Biso   1.000  Cu
  Cu2      1.0000 0.50000  0.50000  0.00000  Biso   1.000  Cu
  O1       1.0000 0.40070  0.72420  0.33290  Biso   1.000  O
  O2       1.0000 0.59930  0.22420  0.16710  Biso   1.000  O
  O3       1.0000 0.59930  0.27580  0.66710  Biso   1.000  O
  O4       1.0000 0.40070  0.77580  0.83290  Biso   1.000  O
  O5       1.0000 0.49350  0.67970  0.15330  Biso   1.000  O
  O6       1.0000 0.50650  0.17970  0.34670  Biso   1.000  O
  O7       1.0000 0.50650  0.32030  0.84670  Biso   1.000  O
  O8       1.0000 0.49350  0.82030  0.65330  Biso   1.000  O
  O9       1.0000 0.16910  0.92010  0.04840  Biso   1.000  O
  O10      1.0000 0.83090  0.42010  0.45160  Biso   1.000  O
  O11      1.0000 0.83090  0.07990  0.95160  Biso   1.000  O
  O12      1.0000 0.16910  0.57990  0.54840  Biso   1.000  O
  O13      1.0000 0.00550  0.49710  0.81900  Biso   1.000  O
  O14      1.0000 0.99450  0.99710  0.68100  Biso   1.000  O
  O15      1.0000 0.99450  0.50290  0.18100  Biso   1.000  O
  O16      1.0000 0.00550  0.00290  0.31900  Biso   1.000  O
  N1       1.0000 0.32230  0.40220  0.01810  Biso   1.000  N
  N2       1.0000 0.67770  0.90220  0.48190  Biso   1.000  N
  N3       1.0000 0.67770  0.59780  0.98190  Biso   1.000  N
  N4       1.0000 0.32230  0.09780  0.51810  Biso   1.000  N
  N5       1.0000 0.22680  0.47890  0.89980  Biso   1.000  N
  N6       1.0000 0.77320  0.97890  0.60020  Biso   1.000  N
  N7       1.0000 0.77320  0.52110  0.10020  Biso   1.000  N
  N8       1.0000 0.22680  0.02110  0.39980  Biso   1.000  N
  N9       1.0000 0.08740  0.22460  0.95620  Biso   1.000  N
  N10      1.0000 0.91260  0.72460  0.54380  Biso   1.000  N
  N11      1.0000 0.91260  0.77540  0.04380  Biso   1.000  N
  N12      1.0000 0.08740  0.27540  0.45620  Biso   1.000  N
  C1       1.0000 0.09790  0.41300  0.88680  Biso   1.000  C
  C2       1.0000 0.90210  0.91300  0.61320  Biso   1.000  C
  C3       1.0000 0.90210  0.58700  0.11320  Biso   1.000  C
  C4       1.0000 0.09790  0.08700  0.38680  Biso   1.000  C
  C5       1.0000 0.30300  0.49160  0.15630  Biso   1.000  C
  C6       1.0000 0.69700  0.99160  0.34370  Biso   1.000  C
  C7       1.0000 0.69700  0.50840  0.84370  Biso   1.000  C
  C8       1.0000 0.30300  0.00840  0.65630  Biso   1.000  C
  C9       1.0000 0.40490  0.64600  0.21860  Biso   1.000  C
  C10      1.0000 0.59510  0.14600  0.28140  Biso   1.000  C
  C11      1.0000 0.59510  0.35400  0.78140  Biso   1.000  C
  C12      1.0000 0.40490  0.85400  0.71860  Biso   1.000  C
  C13      1.0000 0.31290  0.17910  0.01710  Biso   1.000  C
  C14      1.0000 0.68710  0.67910  0.48290  Biso   1.000  C
  C15      1.0000 0.68710  0.82090  0.98290  Biso   1.000  C
  C16      1.0000 0.31290  0.32090  0.51710  Biso   1.000  C
  C17      1.0000 0.18680  0.09110  0.01100  Biso   1.000  C
  C18      1.0000 0.81320  0.59110  0.48900  Biso   1.000  C
  C19      1.0000 0.81320  0.90890  0.98900  Biso   1.000  C
  C20      1.0000 0.18680  0.40890  0.51100  Biso   1.000  C
