data_image0
_cell_length_a       12.599
_cell_length_b       8.461
_cell_length_c       13.48
_cell_angle_alpha    90
_cell_angle_beta     96.006
_cell_angle_gamma    90

_symmetry_space_group_name_H-M    "P 1"
_symmetry_int_tables_number       1

loop_
  _symmetry_equiv_pos_as_xyz
  'x, y, z'

loop_
  _atom_site_label
  _atom_site_occupancy
  _atom_site_fract_x
  _atom_site_fract_y
  _atom_site_fract_z
  _atom_site_thermal_displace_type
  _atom_site_B_iso_or_equiv
  _atom_site_type_symbol
  Cu1      1.0000 0.62303  0.15177  0.62632  Biso   1.000  Cu
  Cu2      1.0000 0.37697  0.65177  0.37368  Biso   1.000  Cu
  C1       1.0000 0.80410  0.06800  0.50560  Biso   1.000  C
  C2       1.0000 0.19590  0.56800  0.49440  Biso   1.000  C
  H1       1.0000 0.76720  0.12310  0.45310  Biso   1.000  H
  H2       1.0000 0.23280  0.62310  0.54690  Biso   1.000  H
  C3       1.0000 0.90170  0.99790  0.49140  Biso   1.000  C
  C4       1.0000 0.09830  0.49790  0.50860  Biso   1.000  C
  H3       1.0000 0.92920  0.00480  0.43010  Biso   1.000  H
  H4       1.0000 0.07080  0.50480  0.56990  Biso   1.000  H
  C5       1.0000 0.95630  0.91870  0.56960  Biso   1.000  C
  C6       1.0000 0.04370  0.41870  0.43040  Biso   1.000  C
  H5       1.0000 0.02260  0.87410  0.56240  Biso   1.000  H
  H6       1.0000 0.97740  0.37410  0.43760  Biso   1.000  H
  C7       1.0000 0.91170  0.90530  0.66120  Biso   1.000  C
  C8       1.0000 0.08830  0.40530  0.33880  Biso   1.000  C
  H7       1.0000 0.94600  0.84980  0.71490  Biso   1.000  H
  H8       1.0000 0.05400  0.34980  0.28510  Biso   1.000  H
  C9       1.0000 0.81510  0.97800  0.66720  Biso   1.000  C
  C10      1.0000 0.18490  0.47800  0.33280  Biso   1.000  C
  C11      1.0000 0.76200  0.97720  0.76010  Biso   1.000  C
  C12      1.0000 0.23800  0.47720  0.23990  Biso   1.000  C
  H9       1.0000 0.79240  0.92440  0.81650  Biso   1.000  H
  H10      1.0000 0.20760  0.42440  0.18350  Biso   1.000  H
  C13      1.0000 0.62280  0.05870  0.85650  Biso   1.000  C
  C14      1.0000 0.37720  0.55870  0.14350  Biso   1.000  C
  H11      1.0000 0.54660  0.07590  0.83650  Biso   1.000  H
  H12      1.0000 0.45340  0.57590  0.16350  Biso   1.000  H
  C15      1.0000 0.63090  0.90430  0.91430  Biso   1.000  C
  C16      1.0000 0.36910  0.40430  0.08570  Biso   1.000  C
  C17      1.0000 0.55660  0.78620  0.89040  Biso   1.000  C
  C18      1.0000 0.44340  0.28620  0.10960  Biso   1.000  C
  H13      1.0000 0.50160  0.80320  0.83990  Biso   1.000  H
  H14      1.0000 0.49840  0.30320  0.16010  Biso   1.000  H
  C19      1.0000 0.56270  0.64670  0.93910  Biso   1.000  C
  C20      1.0000 0.43730  0.14670  0.06090  Biso   1.000  C
  H15      1.0000 0.51220  0.56900  0.92070  Biso   1.000  H
  H16      1.0000 0.48780  0.06900  0.07930  Biso   1.000  H
  C21      1.0000 0.64080  0.61630  0.01450  Biso   1.000  C
  C22      1.0000 0.35920  0.11630  0.98550  Biso   1.000  C
  H17      1.0000 0.64440  0.51930  0.04720  Biso   1.000  H
  H18      1.0000 0.35560  0.01930  0.95280  Biso   1.000  H
  C23      1.0000 0.71370  0.73280  0.04070  Biso   1.000  C
  C24      1.0000 0.28630  0.23280  0.95930  Biso   1.000  C
  H19      1.0000 0.76700  0.71440  0.09250  Biso   1.000  H
  H20      1.0000 0.23300  0.21440  0.90750  Biso   1.000  H
  C25      1.0000 0.71030  0.87700  0.99220  Biso   1.000  C
  C26      1.0000 0.28970  0.37700  0.00780  Biso   1.000  C
  H21      1.0000 0.76040  0.95480  0.01150  Biso   1.000  H
  H22      1.0000 0.23960  0.45480  0.98850  Biso   1.000  H
  C27      1.0000 0.39690  0.14640  0.66930  Biso   1.000  C
  C28      1.0000 0.60310  0.64640  0.33070  Biso   1.000  C
  H23      1.0000 0.40050  0.03920  0.65490  Biso   1.000  H
  H24      1.0000 0.59950  0.53920  0.34510  Biso   1.000  H
  C29      1.0000 0.29790  0.20840  0.69130  Biso   1.000  C
  C30      1.0000 0.70210  0.70840  0.30870  Biso   1.000  C
  H25      1.0000 0.23760  0.14460  0.69020  Biso   1.000  H
  H26      1.0000 0.76240  0.64460  0.30980  Biso   1.000  H
  C31      1.0000 0.29400  0.36090  0.71360  Biso   1.000  C
  C32      1.0000 0.70600  0.86090  0.28640  Biso   1.000  C
  H27      1.0000 0.23020  0.40440  0.72980  Biso   1.000  H
  H28      1.0000 0.76980  0.90440  0.27020  Biso   1.000  H
  C33      1.0000 0.38460  0.45780  0.71310  Biso   1.000  C
  C34      1.0000 0.61540  0.95780  0.28690  Biso   1.000  C
  H29      1.0000 0.38220  0.56480  0.72830  Biso   1.000  H
  H30      1.0000 0.61780  0.06480  0.27170  Biso   1.000  H
  C35      1.0000 0.47800  0.38670  0.68890  Biso   1.000  C
  C36      1.0000 0.52200  0.88670  0.31110  Biso   1.000  C
  C37      1.0000 0.57640  0.48110  0.68720  Biso   1.000  C
  C38      1.0000 0.42360  0.98110  0.31280  Biso   1.000  C
  H31      1.0000 0.57550  0.58890  0.70070  Biso   1.000  H
  H32      1.0000 0.42450  0.08890  0.29930  Biso   1.000  H
  C39      1.0000 0.75660  0.51790  0.66740  Biso   1.000  C
  C40      1.0000 0.24340  0.01790  0.33260  Biso   1.000  C
  H33      1.0000 0.73700  0.62510  0.68620  Biso   1.000  H
  H34      1.0000 0.26300  0.12510  0.31380  Biso   1.000  H
  C41      1.0000 0.78850  0.52220  0.56070  Biso   1.000  C
  C42      1.0000 0.21150  0.02220  0.43930  Biso   1.000  C
  H35      1.0000 0.80360  0.41690  0.53970  Biso   1.000  H
  H36      1.0000 0.19640  0.91690  0.46030  Biso   1.000  H
  H37      1.0000 0.85080  0.58690  0.55880  Biso   1.000  H
  H38      1.0000 0.14920  0.08690  0.44120  Biso   1.000  H
  H39      1.0000 0.73090  0.56560  0.51670  Biso   1.000  H
  H40      1.0000 0.26910  0.06560  0.48330  Biso   1.000  H
  C43      1.0000 0.84160  0.45400  0.74800  Biso   1.000  C
  C44      1.0000 0.15840  0.95400  0.25200  Biso   1.000  C
  C45      1.0000 0.83950  0.51240  0.84490  Biso   1.000  C
  C46      1.0000 0.16050  0.01240  0.15510  Biso   1.000  C
  H41      1.0000 0.79090  0.59050  0.85810  Biso   1.000  H
  H42      1.0000 0.20910  0.09050  0.14190  Biso   1.000  H
  C47      1.0000 0.90990  0.45290  0.92020  Biso   1.000  C
  C48      1.0000 0.09010  0.95290  0.07980  Biso   1.000  C
  H43      1.0000 0.90950  0.49140  0.98480  Biso   1.000  H
  H44      1.0000 0.09050  0.99140  0.01520  Biso   1.000  H
  C49      1.0000 0.98030  0.33800  0.90090  Biso   1.000  C
  C50      1.0000 0.01970  0.83800  0.09910  Biso   1.000  C
  H45      1.0000 0.02540  0.29620  0.95340  Biso   1.000  H
  H46      1.0000 0.97460  0.79620  0.04660  Biso   1.000  H
  C51      1.0000 0.98650  0.28310  0.80820  Biso   1.000  C
  C52      1.0000 0.01350  0.78310  0.19180  Biso   1.000  C
  H47      1.0000 0.03730  0.20730  0.79680  Biso   1.000  H
  H48      1.0000 0.96270  0.70730  0.20320  Biso   1.000  H
  C53      1.0000 0.91500  0.34130  0.72730  Biso   1.000  C
  C54      1.0000 0.08500  0.84130  0.27270  Biso   1.000  C
  H49      1.0000 0.91800  0.30440  0.66260  Biso   1.000  H
  H50      1.0000 0.08200  0.80440  0.33740  Biso   1.000  H
  C55      1.0000 0.66230  0.20430  0.91130  Biso   1.000  C
  C56      1.0000 0.33770  0.70430  0.08870  Biso   1.000  C
  H51      1.0000 0.62990  0.21250  0.97250  Biso   1.000  H
  H52      1.0000 0.37010  0.71250  0.02750  Biso   1.000  H
  H53      1.0000 0.64410  0.29560  0.87080  Biso   1.000  H
  H54      1.0000 0.35590  0.79560  0.12920  Biso   1.000  H
  H55      1.0000 0.73850  0.19850  0.92600  Biso   1.000  H
  H56      1.0000 0.26150  0.69850  0.07400  Biso   1.000  H
  Cl1      1.0000 0.19278  0.79425  0.77759  Biso   1.000  Cl
  Cl2      1.0000 0.80722  0.29425  0.22241  Biso   1.000  Cl
  N1       1.0000 0.76210  0.05830  0.59210  Biso   1.000  N
  N2       1.0000 0.23790  0.55830  0.40790  Biso   1.000  N
  N3       1.0000 0.67570  0.04880  0.76100  Biso   1.000  N
  N4       1.0000 0.32430  0.54880  0.23900  Biso   1.000  N
  N5       1.0000 0.48410  0.23080  0.66800  Biso   1.000  N
  N6       1.0000 0.51590  0.73080  0.33200  Biso   1.000  N
  N7       1.0000 0.66210  0.41550  0.66740  Biso   1.000  N
  N8       1.0000 0.33790  0.91550  0.33260  Biso   1.000  N
  N9       1.0000 0.58180  0.19870  0.48430  Biso   1.000  N
  N10      1.0000 0.41820  0.69870  0.51570  Biso   1.000  N
  N11      1.0000 0.51160  0.27930  0.44950  Biso   1.000  N
  N12      1.0000 0.48840  0.77930  0.55050  Biso   1.000  N
  N13      1.0000 0.44300  0.35420  0.41010  Biso   1.000  N
  N14      1.0000 0.55700  0.85420  0.58990  Biso   1.000  N
  O1       1.0000 0.28090  0.76250  0.83050  Biso   1.000  O
  O2       1.0000 0.71910  0.26250  0.16950  Biso   1.000  O
  O3       1.0000 0.14330  0.93010  0.81100  Biso   1.000  O
  O4       1.0000 0.85670  0.43010  0.18900  Biso   1.000  O
  O5       1.0000 0.12540  0.68140  0.74050  Biso   1.000  O
  O6       1.0000 0.87460  0.18140  0.25950  Biso   1.000  O
  O7       1.0000 0.22780  0.82730  0.68470  Biso   1.000  O
  O8       1.0000 0.77220  0.32730  0.31530  Biso   1.000  O
