data_image0
_cell_length_a       10.8218
_cell_length_b       10.0542
_cell_length_c       12.532
_cell_angle_alpha    90
_cell_angle_beta     106.81
_cell_angle_gamma    90

_symmetry_space_group_name_H-M    "P 1"
_symmetry_int_tables_number       1

loop_
  _symmetry_equiv_pos_as_xyz
  'x, y, z'

loop_
  _atom_site_label
  _atom_site_occupancy
  _atom_site_fract_x
  _atom_site_fract_y
  _atom_site_fract_z
  _atom_site_thermal_displace_type
  _atom_site_B_iso_or_equiv
  _atom_site_type_symbol
  Cu1      1.0000 0.81465  0.63567  0.11700  Biso   1.000  Cu
  Cu2      1.0000 0.68535  0.13567  0.38300  Biso   1.000  Cu
  Cu3      1.0000 0.18535  0.36433  0.88300  Biso   1.000  Cu
  Cu4      1.0000 0.31465  0.86433  0.61700  Biso   1.000  Cu
  N1       1.0000 0.91061  0.73815  0.03319  Biso   1.000  N
  N2       1.0000 0.58939  0.23815  0.46681  Biso   1.000  N
  N3       1.0000 0.08939  0.26185  0.96681  Biso   1.000  N
  N4       1.0000 0.41061  0.76185  0.53319  Biso   1.000  N
  N5       1.0000 0.66980  0.76500  0.05400  Biso   1.000  N
  N6       1.0000 0.83020  0.26500  0.44600  Biso   1.000  N
  N7       1.0000 0.33020  0.23500  0.94600  Biso   1.000  N
  N8       1.0000 0.16980  0.73500  0.55400  Biso   1.000  N
  N9       1.0000 0.69410  0.50250  0.14910  Biso   1.000  N
  N10      1.0000 0.80590  0.00250  0.35090  Biso   1.000  N
  N11      1.0000 0.30590  0.49750  0.85090  Biso   1.000  N
  N12      1.0000 0.19410  0.99750  0.64910  Biso   1.000  N
  O1       1.0000 0.95299  0.51873  0.17621  Biso   1.000  O
  O2       1.0000 0.54701  0.01873  0.32379  Biso   1.000  O
  O3       1.0000 0.04701  0.48127  0.82379  Biso   1.000  O
  O4       1.0000 0.45299  0.98127  0.67621  Biso   1.000  O
  S1       1.0000 0.59378  0.25307  0.17189  Biso   1.000  S
  S2       1.0000 0.90622  0.75307  0.32811  Biso   1.000  S
  S3       1.0000 0.40622  0.74693  0.82811  Biso   1.000  S
  S4       1.0000 0.09378  0.24693  0.67189  Biso   1.000  S
  C1       1.0000 0.11020  0.61600  0.09500  Biso   1.000  C
  C2       1.0000 0.38980  0.11600  0.40500  Biso   1.000  C
  C3       1.0000 0.88980  0.38400  0.90500  Biso   1.000  C
  C4       1.0000 0.61020  0.88400  0.59500  Biso   1.000  C
  C5       1.0000 0.07070  0.52780  0.16760  Biso   1.000  C
  C6       1.0000 0.42930  0.02780  0.33240  Biso   1.000  C
  C7       1.0000 0.92930  0.47220  0.83240  Biso   1.000  C
  C8       1.0000 0.57070  0.97220  0.66760  Biso   1.000  C
  C9       1.0000 0.16290  0.43920  0.23340  Biso   1.000  C
  C10      1.0000 0.33710  0.93920  0.26660  Biso   1.000  C
  C11      1.0000 0.83710  0.56080  0.76660  Biso   1.000  C
  C12      1.0000 0.66290  0.06080  0.73340  Biso   1.000  C
  H1       1.0000 0.13810  0.38160  0.28150  Biso   1.000  H
  H2       1.0000 0.36190  0.88160  0.21850  Biso   1.000  H
  H3       1.0000 0.86190  0.61840  0.71850  Biso   1.000  H
  H4       1.0000 0.63810  0.11840  0.78150  Biso   1.000  H
  C13      1.0000 0.28750  0.43520  0.22870  Biso   1.000  C
  C14      1.0000 0.21250  0.93520  0.27130  Biso   1.000  C
  C15      1.0000 0.71250  0.56480  0.77130  Biso   1.000  C
  C16      1.0000 0.78750  0.06480  0.72870  Biso   1.000  C
  H5       1.0000 0.34560  0.37480  0.27250  Biso   1.000  H
  H6       1.0000 0.15440  0.87480  0.22750  Biso   1.000  H
  H7       1.0000 0.65440  0.62520  0.72750  Biso   1.000  H
  H8       1.0000 0.84560  0.12520  0.77250  Biso   1.000  H
  C17      1.0000 0.32660  0.52110  0.15880  Biso   1.000  C
  C18      1.0000 0.17340  0.02110  0.34120  Biso   1.000  C
  C19      1.0000 0.67340  0.47890  0.84120  Biso   1.000  C
  C20      1.0000 0.82660  0.97890  0.65880  Biso   1.000  C
  H9       1.0000 0.41150  0.51950  0.15590  Biso   1.000  H
  H10      1.0000 0.08850  0.01950  0.34410  Biso   1.000  H
  H11      1.0000 0.58850  0.48050  0.84410  Biso   1.000  H
  H12      1.0000 0.91150  0.98050  0.65590  Biso   1.000  H
  C21      1.0000 0.24060  0.60770  0.09430  Biso   1.000  C
  C22      1.0000 0.25940  0.10770  0.40570  Biso   1.000  C
  C23      1.0000 0.75940  0.39230  0.90570  Biso   1.000  C
  C24      1.0000 0.74060  0.89230  0.59430  Biso   1.000  C
  H13      1.0000 0.26870  0.66440  0.04750  Biso   1.000  H
  H14      1.0000 0.23130  0.16440  0.45250  Biso   1.000  H
  H15      1.0000 0.73130  0.33560  0.95250  Biso   1.000  H
  H16      1.0000 0.76870  0.83560  0.54750  Biso   1.000  H
  C25      1.0000 0.02400  0.71290  0.02260  Biso   1.000  C
  C26      1.0000 0.47600  0.21290  0.47740  Biso   1.000  C
  C27      1.0000 0.97600  0.28710  0.97740  Biso   1.000  C
  C28      1.0000 0.52400  0.78710  0.52260  Biso   1.000  C
  C29      1.0000 0.82760  0.84120  0.96440  Biso   1.000  C
  C30      1.0000 0.67240  0.34120  0.53560  Biso   1.000  C
  C31      1.0000 0.17240  0.15880  0.03560  Biso   1.000  C
  C32      1.0000 0.32760  0.65880  0.46440  Biso   1.000  C
  H17      1.0000 0.78400  0.80590  0.89120  Biso   1.000  H
  H18      1.0000 0.71600  0.30590  0.60880  Biso   1.000  H
  H19      1.0000 0.21600  0.19410  0.10880  Biso   1.000  H
  H20      1.0000 0.28400  0.69410  0.39120  Biso   1.000  H
  H21      1.0000 0.87940  0.91680  0.95550  Biso   1.000  H
  H22      1.0000 0.62060  0.41680  0.54450  Biso   1.000  H
  H23      1.0000 0.12060  0.08320  0.04450  Biso   1.000  H
  H24      1.0000 0.37940  0.58320  0.45550  Biso   1.000  H
  C33      1.0000 0.72960  0.88370  0.02280  Biso   1.000  C
  C34      1.0000 0.77040  0.38370  0.47720  Biso   1.000  C
  C35      1.0000 0.27040  0.11630  0.97720  Biso   1.000  C
  C36      1.0000 0.22960  0.61630  0.52280  Biso   1.000  C
  H25      1.0000 0.77170  0.93490  0.08890  Biso   1.000  H
  H26      1.0000 0.72830  0.43490  0.41110  Biso   1.000  H
  H27      1.0000 0.22830  0.06510  0.91110  Biso   1.000  H
  H28      1.0000 0.27170  0.56510  0.58890  Biso   1.000  H
  H29      1.0000 0.66410  0.93920  0.97360  Biso   1.000  H
  H30      1.0000 0.83590  0.43920  0.52640  Biso   1.000  H
  H31      1.0000 0.33590  0.06080  0.02640  Biso   1.000  H
  H32      1.0000 0.16410  0.56080  0.47360  Biso   1.000  H
  C37      1.0000 0.58110  0.79740  0.12030  Biso   1.000  C
  C38      1.0000 0.91890  0.29740  0.37970  Biso   1.000  C
  C39      1.0000 0.41890  0.20260  0.87970  Biso   1.000  C
  C40      1.0000 0.08110  0.70260  0.62030  Biso   1.000  C
  H33      1.0000 0.62740  0.84430  0.18650  Biso   1.000  H
  H34      1.0000 0.87260  0.34430  0.31350  Biso   1.000  H
  H35      1.0000 0.37260  0.15570  0.81350  Biso   1.000  H
  H36      1.0000 0.12740  0.65570  0.68650  Biso   1.000  H
  H37      1.0000 0.54610  0.71670  0.14060  Biso   1.000  H
  H38      1.0000 0.95390  0.21670  0.35940  Biso   1.000  H
  H39      1.0000 0.45390  0.28330  0.85940  Biso   1.000  H
  H40      1.0000 0.04610  0.78330  0.64060  Biso   1.000  H
  H41      1.0000 0.51220  0.85220  0.07700  Biso   1.000  H
  H42      1.0000 0.98780  0.35220  0.42300  Biso   1.000  H
  H43      1.0000 0.48780  0.14780  0.92300  Biso   1.000  H
  H44      1.0000 0.01220  0.64780  0.57700  Biso   1.000  H
  C41      1.0000 0.07230  0.78330  0.93650  Biso   1.000  C
  C42      1.0000 0.42770  0.28330  0.56350  Biso   1.000  C
  C43      1.0000 0.92770  0.21670  0.06350  Biso   1.000  C
  C44      1.0000 0.57230  0.71670  0.43650  Biso   1.000  C
  H45      1.0000 0.00220  0.83010  0.88580  Biso   1.000  H
  H46      1.0000 0.49780  0.33010  0.61420  Biso   1.000  H
  H47      1.0000 0.99780  0.16990  0.11420  Biso   1.000  H
  H48      1.0000 0.50220  0.66990  0.38580  Biso   1.000  H
  H49      1.0000 0.10690  0.71930  0.89600  Biso   1.000  H
  H50      1.0000 0.39310  0.21930  0.60400  Biso   1.000  H
  H51      1.0000 0.89310  0.28070  0.10400  Biso   1.000  H
  H52      1.0000 0.60690  0.78070  0.39600  Biso   1.000  H
  H53      1.0000 0.13850  0.84540  0.97270  Biso   1.000  H
  H54      1.0000 0.36150  0.34540  0.52730  Biso   1.000  H
  H55      1.0000 0.86150  0.15460  0.02730  Biso   1.000  H
  H56      1.0000 0.63850  0.65460  0.47270  Biso   1.000  H
  C45      1.0000 0.65190  0.40040  0.15800  Biso   1.000  C
  C46      1.0000 0.84810  0.90040  0.34200  Biso   1.000  C
  C47      1.0000 0.34810  0.59960  0.84200  Biso   1.000  C
  C48      1.0000 0.15190  0.09960  0.65800  Biso   1.000  C
  H57      1.0000 0.62200  0.72500  0.99170  Biso   1.000  H
  H58      1.0000 0.87800  0.22500  0.50830  Biso   1.000  H
  H59      1.0000 0.37800  0.27500  0.00830  Biso   1.000  H
  H60      1.0000 0.12200  0.77500  0.49170  Biso   1.000  H
