data_image0
_cell_length_a       11.658
_cell_length_b       6.778
_cell_length_c       16.39
_cell_angle_alpha    90
_cell_angle_beta     98.9
_cell_angle_gamma    90

_symmetry_space_group_name_H-M    "P 1"
_symmetry_int_tables_number       1

loop_
  _symmetry_equiv_pos_as_xyz
  'x, y, z'

loop_
  _atom_site_label
  _atom_site_occupancy
  _atom_site_fract_x
  _atom_site_fract_y
  _atom_site_fract_z
  _atom_site_thermal_displace_type
  _atom_site_B_iso_or_equiv
  _atom_site_type_symbol
  Cu1      1.0000 0.50000  0.76228  0.25000  Biso   1.000  Cu
  Cu2      1.0000 0.00000  0.26228  0.25000  Biso   1.000  Cu
  Cu3      1.0000 0.50000  0.23772  0.75000  Biso   1.000  Cu
  Cu4      1.0000 0.00000  0.73772  0.75000  Biso   1.000  Cu
  Cl1      1.0000 0.31717  0.76733  0.28339  Biso   1.000  Cl
  Cl2      1.0000 0.81717  0.26733  0.28339  Biso   1.000  Cl
  Cl3      1.0000 0.68283  0.76733  0.21661  Biso   1.000  Cl
  Cl4      1.0000 0.18283  0.26733  0.21661  Biso   1.000  Cl
  Cl5      1.0000 0.68283  0.23267  0.71661  Biso   1.000  Cl
  Cl6      1.0000 0.18283  0.73267  0.71661  Biso   1.000  Cl
  Cl7      1.0000 0.31717  0.23267  0.78339  Biso   1.000  Cl
  Cl8      1.0000 0.81717  0.73267  0.78339  Biso   1.000  Cl
  N1       1.0000 0.50000  0.05820  0.25000  Biso   1.000  N
  N2       1.0000 0.00000  0.55820  0.25000  Biso   1.000  N
  N3       1.0000 0.50000  0.94180  0.75000  Biso   1.000  N
  N4       1.0000 0.00000  0.44180  0.75000  Biso   1.000  N
  N5       1.0000 0.50000  0.46310  0.25000  Biso   1.000  N
  N6       1.0000 0.00000  0.96310  0.25000  Biso   1.000  N
  N7       1.0000 0.50000  0.53690  0.75000  Biso   1.000  N
  N8       1.0000 0.00000  0.03690  0.75000  Biso   1.000  N
  C1       1.0000 0.45762  0.15860  0.18216  Biso   1.000  C
  C2       1.0000 0.95762  0.65860  0.18216  Biso   1.000  C
  C3       1.0000 0.54238  0.15860  0.31784  Biso   1.000  C
  C4       1.0000 0.04238  0.65860  0.31784  Biso   1.000  C
  C5       1.0000 0.54238  0.84140  0.81784  Biso   1.000  C
  C6       1.0000 0.04238  0.34140  0.81784  Biso   1.000  C
  C7       1.0000 0.45762  0.84140  0.68216  Biso   1.000  C
  C8       1.0000 0.95762  0.34140  0.68216  Biso   1.000  C
  C9       1.0000 0.45870  0.36310  0.18180  Biso   1.000  C
  C10      1.0000 0.95870  0.86310  0.18180  Biso   1.000  C
  C11      1.0000 0.54130  0.36310  0.31820  Biso   1.000  C
  C12      1.0000 0.04130  0.86310  0.31820  Biso   1.000  C
  C13      1.0000 0.54130  0.63690  0.81820  Biso   1.000  C
  C14      1.0000 0.04130  0.13690  0.81820  Biso   1.000  C
  C15      1.0000 0.45870  0.63690  0.68180  Biso   1.000  C
  C16      1.0000 0.95870  0.13690  0.68180  Biso   1.000  C
  O1       1.0000 0.41831  0.66200  0.10963  Biso   1.000  O
  O2       1.0000 0.91831  0.16200  0.10963  Biso   1.000  O
  O3       1.0000 0.58169  0.66200  0.39037  Biso   1.000  O
  O4       1.0000 0.08169  0.16200  0.39037  Biso   1.000  O
  O5       1.0000 0.58169  0.33800  0.89037  Biso   1.000  O
  O6       1.0000 0.08169  0.83800  0.89037  Biso   1.000  O
  O7       1.0000 0.41831  0.33800  0.60963  Biso   1.000  O
  O8       1.0000 0.91831  0.83800  0.60963  Biso   1.000  O
  O9       1.0000 0.37470  0.37640  0.04372  Biso   1.000  O
  O10      1.0000 0.87470  0.87640  0.04372  Biso   1.000  O
  O11      1.0000 0.62530  0.37640  0.45628  Biso   1.000  O
  O12      1.0000 0.12530  0.87640  0.45628  Biso   1.000  O
  O13      1.0000 0.62530  0.62360  0.95628  Biso   1.000  O
  O14      1.0000 0.12530  0.12360  0.95628  Biso   1.000  O
  O15      1.0000 0.37470  0.62360  0.54372  Biso   1.000  O
  O16      1.0000 0.87470  0.12360  0.54372  Biso   1.000  O
  C17      1.0000 0.41450  0.48360  0.10719  Biso   1.000  C
  C18      1.0000 0.91450  0.98360  0.10719  Biso   1.000  C
  C19      1.0000 0.58550  0.48360  0.39281  Biso   1.000  C
  C20      1.0000 0.08550  0.98360  0.39281  Biso   1.000  C
  C21      1.0000 0.58550  0.51640  0.89281  Biso   1.000  C
  C22      1.0000 0.08550  0.01640  0.89281  Biso   1.000  C
  C23      1.0000 0.41450  0.51640  0.60719  Biso   1.000  C
  C24      1.0000 0.91450  0.01640  0.60719  Biso   1.000  C
  O17      1.0000 0.88300  0.53930  0.44910  Biso   1.000  O
  O18      1.0000 0.38300  0.03930  0.44910  Biso   1.000  O
  O19      1.0000 0.11700  0.53930  0.05090  Biso   1.000  O
  O20      1.0000 0.61700  0.03930  0.05090  Biso   1.000  O
  O21      1.0000 0.11700  0.46070  0.55090  Biso   1.000  O
  O22      1.0000 0.61700  0.96070  0.55090  Biso   1.000  O
  O23      1.0000 0.88300  0.46070  0.94910  Biso   1.000  O
  O24      1.0000 0.38300  0.96070  0.94910  Biso   1.000  O
  O25      1.0000 0.30280  0.57250  0.91610  Biso   1.000  O
  O26      1.0000 0.80280  0.07250  0.91610  Biso   1.000  O
  O27      1.0000 0.69720  0.57250  0.58390  Biso   1.000  O
  O28      1.0000 0.19720  0.07250  0.58390  Biso   1.000  O
  O29      1.0000 0.69720  0.42750  0.08390  Biso   1.000  O
  O30      1.0000 0.19720  0.92750  0.08390  Biso   1.000  O
  O31      1.0000 0.30280  0.42750  0.41610  Biso   1.000  O
  O32      1.0000 0.80280  0.92750  0.41610  Biso   1.000  O
  H1       1.0000 0.94710  0.52200  0.47900  Biso   1.000  H
  H2       1.0000 0.44710  0.02200  0.47900  Biso   1.000  H
  H3       1.0000 0.05290  0.52200  0.02100  Biso   1.000  H
  H4       1.0000 0.55290  0.02200  0.02100  Biso   1.000  H
  H5       1.0000 0.05290  0.47800  0.52100  Biso   1.000  H
  H6       1.0000 0.55290  0.97800  0.52100  Biso   1.000  H
  H7       1.0000 0.94710  0.47800  0.97900  Biso   1.000  H
  H8       1.0000 0.44710  0.97800  0.97900  Biso   1.000  H
  H9       1.0000 0.43000  0.08600  0.13300  Biso   1.000  H
  H10      1.0000 0.93000  0.58600  0.13300  Biso   1.000  H
  H11      1.0000 0.57000  0.08600  0.36700  Biso   1.000  H
  H12      1.0000 0.07000  0.58600  0.36700  Biso   1.000  H
  H13      1.0000 0.57000  0.91400  0.86700  Biso   1.000  H
  H14      1.0000 0.07000  0.41400  0.86700  Biso   1.000  H
  H15      1.0000 0.43000  0.91400  0.63300  Biso   1.000  H
  H16      1.0000 0.93000  0.41400  0.63300  Biso   1.000  H
  H17      1.0000 0.35100  0.46500  0.99600  Biso   1.000  H
  H18      1.0000 0.85100  0.96500  0.99600  Biso   1.000  H
  H19      1.0000 0.64900  0.46500  0.50400  Biso   1.000  H
  H20      1.0000 0.14900  0.96500  0.50400  Biso   1.000  H
  H21      1.0000 0.64900  0.53500  0.00400  Biso   1.000  H
  H22      1.0000 0.14900  0.03500  0.00400  Biso   1.000  H
  H23      1.0000 0.35100  0.53500  0.49600  Biso   1.000  H
  H24      1.0000 0.85100  0.03500  0.49600  Biso   1.000  H
  H25      1.0000 0.32300  0.64500  0.91900  Biso   1.000  H
  H26      1.0000 0.82300  0.14500  0.91900  Biso   1.000  H
  H27      1.0000 0.67700  0.64500  0.58100  Biso   1.000  H
  H28      1.0000 0.17700  0.14500  0.58100  Biso   1.000  H
  H29      1.0000 0.67700  0.35500  0.08100  Biso   1.000  H
  H30      1.0000 0.17700  0.85500  0.08100  Biso   1.000  H
  H31      1.0000 0.32300  0.35500  0.41900  Biso   1.000  H
  H32      1.0000 0.82300  0.85500  0.41900  Biso   1.000  H
  H33      1.0000 0.30400  0.53500  0.87700  Biso   1.000  H
  H34      1.0000 0.80400  0.03500  0.87700  Biso   1.000  H
  H35      1.0000 0.69600  0.53500  0.62300  Biso   1.000  H
  H36      1.0000 0.19600  0.03500  0.62300  Biso   1.000  H
  H37      1.0000 0.69600  0.46500  0.12300  Biso   1.000  H
  H38      1.0000 0.19600  0.96500  0.12300  Biso   1.000  H
  H39      1.0000 0.30400  0.46500  0.37700  Biso   1.000  H
  H40      1.0000 0.80400  0.96500  0.37700  Biso   1.000  H
  H41      1.0000 0.85900  0.59600  0.42820  Biso   1.000  H
  H42      1.0000 0.35900  0.09600  0.42820  Biso   1.000  H
  H43      1.0000 0.14100  0.59600  0.07180  Biso   1.000  H
  H44      1.0000 0.64100  0.09600  0.07180  Biso   1.000  H
  H45      1.0000 0.14100  0.40400  0.57180  Biso   1.000  H
  H46      1.0000 0.64100  0.90400  0.57180  Biso   1.000  H
  H47      1.0000 0.85900  0.40400  0.92820  Biso   1.000  H
  H48      1.0000 0.35900  0.90400  0.92820  Biso   1.000  H
