data_image0
_cell_length_a       6.4483
_cell_length_b       7.5449
_cell_length_c       25.965
_cell_angle_alpha    90
_cell_angle_beta     98.559
_cell_angle_gamma    90

_symmetry_space_group_name_H-M    "P 1"
_symmetry_int_tables_number       1

loop_
  _symmetry_equiv_pos_as_xyz
  'x, y, z'

loop_
  _atom_site_label
  _atom_site_occupancy
  _atom_site_fract_x
  _atom_site_fract_y
  _atom_site_fract_z
  _atom_site_thermal_displace_type
  _atom_site_B_iso_or_equiv
  _atom_site_type_symbol
  Cu1      1.0000 0.00000  0.50000  0.00000  Biso   1.000  Cu
  Cu2      1.0000 0.00000  0.00000  0.50000  Biso   1.000  Cu
  C1       1.0000 0.71010  0.36480  0.69888  Biso   1.000  C
  C2       1.0000 0.28990  0.86480  0.80112  Biso   1.000  C
  C3       1.0000 0.28990  0.63520  0.30112  Biso   1.000  C
  C4       1.0000 0.71010  0.13520  0.19888  Biso   1.000  C
  H1       1.0000 0.58400  0.33120  0.70940  Biso   1.000  H
  H2       1.0000 0.41600  0.83120  0.79060  Biso   1.000  H
  H3       1.0000 0.41600  0.66880  0.29060  Biso   1.000  H
  H4       1.0000 0.58400  0.16880  0.20940  Biso   1.000  H
  C5       1.0000 0.73500  0.35240  0.64691  Biso   1.000  C
  C6       1.0000 0.26500  0.85240  0.85309  Biso   1.000  C
  C7       1.0000 0.26500  0.64760  0.35309  Biso   1.000  C
  C8       1.0000 0.73500  0.14760  0.14691  Biso   1.000  C
  H5       1.0000 0.62650  0.30860  0.62260  Biso   1.000  H
  H6       1.0000 0.37350  0.80860  0.87740  Biso   1.000  H
  H7       1.0000 0.37350  0.69140  0.37740  Biso   1.000  H
  H8       1.0000 0.62650  0.19140  0.12260  Biso   1.000  H
  C9       1.0000 0.91930  0.40450  0.63135  Biso   1.000  C
  C10      1.0000 0.08070  0.90450  0.86865  Biso   1.000  C
  C11      1.0000 0.08070  0.59550  0.36865  Biso   1.000  C
  C12      1.0000 0.91930  0.09550  0.13135  Biso   1.000  C
  H9       1.0000 0.93460  0.39720  0.59640  Biso   1.000  H
  H10      1.0000 0.06540  0.89720  0.90360  Biso   1.000  H
  H11      1.0000 0.06540  0.60280  0.40360  Biso   1.000  H
  H12      1.0000 0.93460  0.10280  0.09640  Biso   1.000  H
  C13      1.0000 0.08170  0.46750  0.66674  Biso   1.000  C
  C14      1.0000 0.91830  0.96750  0.83326  Biso   1.000  C
  C15      1.0000 0.91830  0.53250  0.33326  Biso   1.000  C
  C16      1.0000 0.08170  0.03250  0.16674  Biso   1.000  C
  H13      1.0000 0.20600  0.50260  0.65560  Biso   1.000  H
  H14      1.0000 0.79400  0.00260  0.84440  Biso   1.000  H
  H15      1.0000 0.79400  0.49740  0.34440  Biso   1.000  H
  H16      1.0000 0.20600  0.99740  0.15560  Biso   1.000  H
  C17      1.0000 0.06130  0.47920  0.71928  Biso   1.000  C
  C18      1.0000 0.93870  0.97920  0.78072  Biso   1.000  C
  C19      1.0000 0.93870  0.52080  0.28072  Biso   1.000  C
  C20      1.0000 0.06130  0.02080  0.21928  Biso   1.000  C
  H17      1.0000 0.17180  0.52110  0.74330  Biso   1.000  H
  H18      1.0000 0.82820  0.02110  0.75670  Biso   1.000  H
  H19      1.0000 0.82820  0.47890  0.25670  Biso   1.000  H
  H20      1.0000 0.17180  0.97890  0.24330  Biso   1.000  H
  C21      1.0000 0.87440  0.42760  0.73561  Biso   1.000  C
  C22      1.0000 0.12560  0.92760  0.76439  Biso   1.000  C
  C23      1.0000 0.12560  0.57240  0.26439  Biso   1.000  C
  C24      1.0000 0.87440  0.07240  0.23561  Biso   1.000  C
  C25      1.0000 0.83250  0.44260  0.79031  Biso   1.000  C
  C26      1.0000 0.16750  0.94260  0.70969  Biso   1.000  C
  C27      1.0000 0.16750  0.55740  0.20969  Biso   1.000  C
  C28      1.0000 0.83250  0.05740  0.29031  Biso   1.000  C
  C29      1.0000 0.00350  0.42680  0.83625  Biso   1.000  C
  C30      1.0000 0.99650  0.92680  0.66375  Biso   1.000  C
  C31      1.0000 0.99650  0.57320  0.16375  Biso   1.000  C
  C32      1.0000 0.00350  0.07320  0.33625  Biso   1.000  C
  C33      1.0000 0.20390  0.36100  0.83405  Biso   1.000  C
  C34      1.0000 0.79610  0.86100  0.66595  Biso   1.000  C
  C35      1.0000 0.79610  0.63900  0.16595  Biso   1.000  C
  C36      1.0000 0.20390  0.13900  0.33405  Biso   1.000  C
  H21      1.0000 0.24110  0.32170  0.80270  Biso   1.000  H
  H22      1.0000 0.75890  0.82170  0.69730  Biso   1.000  H
  H23      1.0000 0.75890  0.67830  0.19730  Biso   1.000  H
  H24      1.0000 0.24110  0.17830  0.30270  Biso   1.000  H
  C37      1.0000 0.34630  0.35530  0.87938  Biso   1.000  C
  C38      1.0000 0.65370  0.85530  0.62062  Biso   1.000  C
  C39      1.0000 0.65370  0.64470  0.12062  Biso   1.000  C
  C40      1.0000 0.34630  0.14470  0.37938  Biso   1.000  C
  H25      1.0000 0.48230  0.31540  0.87870  Biso   1.000  H
  H26      1.0000 0.51770  0.81540  0.62130  Biso   1.000  H
  H27      1.0000 0.51770  0.68460  0.12130  Biso   1.000  H
  H28      1.0000 0.48230  0.18460  0.37870  Biso   1.000  H
  C41      1.0000 0.28570  0.40880  0.92541  Biso   1.000  C
  C42      1.0000 0.71430  0.90880  0.57459  Biso   1.000  C
  C43      1.0000 0.71430  0.59120  0.07459  Biso   1.000  C
  C44      1.0000 0.28570  0.09120  0.42541  Biso   1.000  C
  H29      1.0000 0.38410  0.40760  0.95550  Biso   1.000  H
  H30      1.0000 0.61590  0.90760  0.54450  Biso   1.000  H
  H31      1.0000 0.61590  0.59240  0.04450  Biso   1.000  H
  H32      1.0000 0.38410  0.09240  0.45550  Biso   1.000  H
  C45      1.0000 0.95310  0.47390  0.88448  Biso   1.000  C
  C46      1.0000 0.04690  0.97390  0.61552  Biso   1.000  C
  C47      1.0000 0.04690  0.52610  0.11552  Biso   1.000  C
  C48      1.0000 0.95310  0.02610  0.38448  Biso   1.000  C
  H33      1.0000 0.81850  0.51520  0.88630  Biso   1.000  H
  H34      1.0000 0.18150  0.01520  0.61370  Biso   1.000  H
  H35      1.0000 0.18150  0.48480  0.11370  Biso   1.000  H
  H36      1.0000 0.81850  0.98480  0.38630  Biso   1.000  H
  C49      1.0000 0.73990  0.16490  0.97152  Biso   1.000  C
  C50      1.0000 0.26010  0.66490  0.52848  Biso   1.000  C
  C51      1.0000 0.26010  0.83510  0.02848  Biso   1.000  C
  C52      1.0000 0.73990  0.33510  0.47152  Biso   1.000  C
  C53      1.0000 0.70220  0.86480  0.95920  Biso   1.000  C
  C54      1.0000 0.29780  0.36480  0.54080  Biso   1.000  C
  C55      1.0000 0.29780  0.13520  0.04080  Biso   1.000  C
  C56      1.0000 0.70220  0.63520  0.45920  Biso   1.000  C
  N1       1.0000 0.08940  0.46290  0.92868  Biso   1.000  N
  N2       1.0000 0.91060  0.96290  0.57132  Biso   1.000  N
  N3       1.0000 0.91060  0.53710  0.07132  Biso   1.000  N
  N4       1.0000 0.08940  0.03710  0.42868  Biso   1.000  N
  N5       1.0000 0.79970  0.29910  0.98556  Biso   1.000  N
  N6       1.0000 0.20030  0.79910  0.51444  Biso   1.000  N
  N7       1.0000 0.20030  0.70090  0.01444  Biso   1.000  N
  N8       1.0000 0.79970  0.20090  0.48556  Biso   1.000  N
  N9       1.0000 0.73260  0.71870  0.96109  Biso   1.000  N
  N10      1.0000 0.26740  0.21870  0.53891  Biso   1.000  N
  N11      1.0000 0.26740  0.28130  0.03891  Biso   1.000  N
  N12      1.0000 0.73260  0.78130  0.46109  Biso   1.000  N
  O1       1.0000 0.65380  0.46530  0.79859  Biso   1.000  O
  O2       1.0000 0.34620  0.96530  0.70141  Biso   1.000  O
  O3       1.0000 0.34620  0.53470  0.20141  Biso   1.000  O
  O4       1.0000 0.65380  0.03470  0.29859  Biso   1.000  O
  N13      1.0000 0.60980  0.02390  0.96230  Biso   1.000  N
  N14      1.0000 0.39020  0.52390  0.53770  Biso   1.000  N
  N15      1.0000 0.39020  0.97610  0.03770  Biso   1.000  N
  N16      1.0000 0.60980  0.47610  0.46230  Biso   1.000  N
  N17      1.0000 0.67880  0.03060  0.93970  Biso   1.000  N
  N18      1.0000 0.32120  0.53060  0.56030  Biso   1.000  N
  N19      1.0000 0.32120  0.96940  0.06030  Biso   1.000  N
  N20      1.0000 0.67880  0.46940  0.43970  Biso   1.000  N
