data_image0
_cell_length_a       9.3138
_cell_length_b       17.237
_cell_length_c       13.4443
_cell_angle_alpha    90
_cell_angle_beta     108.077
_cell_angle_gamma    90

_symmetry_space_group_name_H-M    "P 1"
_symmetry_int_tables_number       1

loop_
  _symmetry_equiv_pos_as_xyz
  'x, y, z'

loop_
  _atom_site_label
  _atom_site_occupancy
  _atom_site_fract_x
  _atom_site_fract_y
  _atom_site_fract_z
  _atom_site_thermal_displace_type
  _atom_site_B_iso_or_equiv
  _atom_site_type_symbol
  Cu1      1.0000 0.67681  0.38192  0.03150  Biso   1.000  Cu
  Cu2      1.0000 0.32319  0.88192  0.96850  Biso   1.000  Cu
  O1       1.0000 0.53320  0.46270  0.16570  Biso   1.000  O
  O2       1.0000 0.46680  0.96270  0.83430  Biso   1.000  O
  Cu3      1.0000 0.84421  0.17768  0.39336  Biso   1.000  Cu
  Cu4      1.0000 0.15579  0.67768  0.60664  Biso   1.000  Cu
  N1       1.0000 0.17190  0.12900  0.67080  Biso   1.000  N
  N2       1.0000 0.82810  0.62900  0.32920  Biso   1.000  N
  N3       1.0000 0.02720  0.15300  0.51070  Biso   1.000  N
  N4       1.0000 0.97280  0.65300  0.48930  Biso   1.000  N
  N5       1.0000 0.53020  0.12960  0.11250  Biso   1.000  N
  N6       1.0000 0.46980  0.62960  0.88750  Biso   1.000  N
  N7       1.0000 0.66590  0.15590  0.27360  Biso   1.000  N
  N8       1.0000 0.33410  0.65590  0.72640  Biso   1.000  N
  N9       1.0000 0.98350  0.42820  0.31540  Biso   1.000  N
  N10      1.0000 0.01650  0.92820  0.68460  Biso   1.000  N
  N11      1.0000 0.85180  0.40270  0.15620  Biso   1.000  N
  N12      1.0000 0.14820  0.90270  0.84380  Biso   1.000  N
  N13      1.0000 0.34430  0.42830  0.75780  Biso   1.000  N
  N14      1.0000 0.65570  0.92830  0.24220  Biso   1.000  N
  N15      1.0000 0.49470  0.40610  0.91320  Biso   1.000  N
  N16      1.0000 0.50530  0.90610  0.08680  Biso   1.000  N
  O3       1.0000 0.95930  0.21650  0.30720  Biso   1.000  O
  O4       1.0000 0.04070  0.71650  0.69280  Biso   1.000  O
  O5       1.0000 0.00630  0.10010  0.25190  Biso   1.000  O
  O6       1.0000 0.99370  0.60010  0.74810  Biso   1.000  O
  O7       1.0000 0.56060  0.34290  0.11750  Biso   1.000  O
  O8       1.0000 0.43940  0.84290  0.88250  Biso   1.000  O
  O9       1.0000 0.72010  0.17950  0.48960  Biso   1.000  O
  O10      1.0000 0.27990  0.67950  0.51040  Biso   1.000  O
  O11      1.0000 0.74190  0.30240  0.46110  Biso   1.000  O
  O12      1.0000 0.25810  0.80240  0.53890  Biso   1.000  O
  O13      1.0000 0.80100  0.38470  0.93500  Biso   1.000  O
  O14      1.0000 0.19900  0.88470  0.06500  Biso   1.000  O
  O15      1.0000 0.78490  0.25980  0.96290  Biso   1.000  O
  O16      1.0000 0.21510  0.75980  0.03710  Biso   1.000  O
  O17      1.0000 0.86350  0.10980  0.92350  Biso   1.000  O
  O18      1.0000 0.13650  0.60980  0.07650  Biso   1.000  O
  H1       1.0000 0.84420  0.15480  0.94170  Biso   1.000  H
  H2       1.0000 0.15580  0.65480  0.05830  Biso   1.000  H
  H3       1.0000 0.92230  0.08700  0.97670  Biso   1.000  H
  H4       1.0000 0.07770  0.58700  0.02330  Biso   1.000  H
  O19      1.0000 0.94450  0.52480  0.91530  Biso   1.000  O
  O20      1.0000 0.05550  0.02480  0.08470  Biso   1.000  O
  H5       1.0000 0.95060  0.53980  0.85640  Biso   1.000  H
  H6       1.0000 0.04940  0.03980  0.14360  Biso   1.000  H
  H7       1.0000 0.89830  0.48160  0.90710  Biso   1.000  H
  H8       1.0000 0.10170  0.98160  0.09290  Biso   1.000  H
  O21      1.0000 0.38690  0.57210  0.23830  Biso   1.000  O
  O22      1.0000 0.61310  0.07210  0.76170  Biso   1.000  O
  H9       1.0000 0.43400  0.53730  0.21610  Biso   1.000  H
  H10      1.0000 0.56600  0.03730  0.78390  Biso   1.000  H
  H11      1.0000 0.30840  0.58460  0.18880  Biso   1.000  H
  H12      1.0000 0.69160  0.08460  0.81120  Biso   1.000  H
  O23      1.0000 0.61700  0.04350  0.56160  Biso   1.000  O
  O24      1.0000 0.38300  0.54350  0.43840  Biso   1.000  O
  H13      1.0000 0.64840  0.08430  0.53950  Biso   1.000  H
  H14      1.0000 0.35160  0.58430  0.46050  Biso   1.000  H
  H15      1.0000 0.61570  0.05170  0.62360  Biso   1.000  H
  H16      1.0000 0.38430  0.55170  0.37640  Biso   1.000  H
  O25      1.0000 0.36600  0.95340  0.46600  Biso   1.000  O
  O26      1.0000 0.63400  0.45340  0.53400  Biso   1.000  O
  H17      1.0000 0.35340  0.91450  0.50130  Biso   1.000  H
  H18      1.0000 0.64660  0.41450  0.49870  Biso   1.000  H
  H19      1.0000 0.44820  0.97390  0.50300  Biso   1.000  H
  H20      1.0000 0.55180  0.47390  0.49700  Biso   1.000  H
  O27      1.0000 0.06800  0.97080  0.35320  Biso   1.000  O
  O28      1.0000 0.93200  0.47080  0.64680  Biso   1.000  O
  H21      1.0000 0.16110  0.96780  0.38840  Biso   1.000  H
  H22      1.0000 0.83890  0.46780  0.61160  Biso   1.000  H
  H23      1.0000 0.05290  0.01380  0.32080  Biso   1.000  H
  H24      1.0000 0.94710  0.51380  0.67920  Biso   1.000  H
  C1       1.0000 0.03370  0.14730  0.61100  Biso   1.000  C
  C2       1.0000 0.96630  0.64730  0.38900  Biso   1.000  C
  H25      1.0000 0.95200  0.15510  0.63570  Biso   1.000  H
  H26      1.0000 0.04800  0.65510  0.36430  Biso   1.000  H
  C3       1.0000 0.16910  0.13920  0.50870  Biso   1.000  C
  C4       1.0000 0.83090  0.63920  0.49130  Biso   1.000  C
  H27      1.0000 0.19940  0.14100  0.44900  Biso   1.000  H
  H28      1.0000 0.80060  0.64100  0.55100  Biso   1.000  H
  C5       1.0000 0.26120  0.12230  0.60670  Biso   1.000  C
  C6       1.0000 0.73880  0.62230  0.39330  Biso   1.000  C
  H29      1.0000 0.36300  0.10910  0.62620  Biso   1.000  H
  H30      1.0000 0.63700  0.60910  0.37380  Biso   1.000  H
  C7       1.0000 0.65510  0.16260  0.17300  Biso   1.000  C
  C8       1.0000 0.34490  0.66260  0.82700  Biso   1.000  C
  H31      1.0000 0.72610  0.18730  0.14830  Biso   1.000  H
  H32      1.0000 0.27390  0.68730  0.85170  Biso   1.000  H
  C9       1.0000 0.53680  0.11540  0.27520  Biso   1.000  C
  C10      1.0000 0.46320  0.61540  0.72480  Biso   1.000  C
  H33      1.0000 0.51350  0.10010  0.33470  Biso   1.000  H
  H34      1.0000 0.48650  0.60010  0.66530  Biso   1.000  H
  C11      1.0000 0.45190  0.10230  0.17530  Biso   1.000  C
  C12      1.0000 0.54810  0.60230  0.82470  Biso   1.000  C
  H35      1.0000 0.35730  0.07880  0.15350  Biso   1.000  H
  H36      1.0000 0.64270  0.57880  0.84650  Biso   1.000  H
  C13      1.0000 0.22410  0.12270  0.78350  Biso   1.000  C
  C14      1.0000 0.77590  0.62270  0.21650  Biso   1.000  C
  H37      1.0000 0.28480  0.07620  0.80360  Biso   1.000  H
  H38      1.0000 0.71520  0.57620  0.19640  Biso   1.000  H
  H39      1.0000 0.13770  0.11800  0.80900  Biso   1.000  H
  H40      1.0000 0.86230  0.61800  0.19100  Biso   1.000  H
  C15      1.0000 0.31460  0.19100  0.83230  Biso   1.000  C
  C16      1.0000 0.68540  0.69100  0.16770  Biso   1.000  C
  H41      1.0000 0.25710  0.23770  0.80660  Biso   1.000  H
  H42      1.0000 0.74290  0.73770  0.19340  Biso   1.000  H
  H43      1.0000 0.40560  0.19270  0.81180  Biso   1.000  H
  H44      1.0000 0.59440  0.69270  0.18820  Biso   1.000  H
  C17      1.0000 0.35870  0.18940  0.95270  Biso   1.000  C
  C18      1.0000 0.64130  0.68940  0.04730  Biso   1.000  C
  H45      1.0000 0.39550  0.24000  0.98050  Biso   1.000  H
  H46      1.0000 0.60450  0.74000  0.01950  Biso   1.000  H
  H47      1.0000 0.27060  0.17720  0.97370  Biso   1.000  H
  H48      1.0000 0.72940  0.67720  0.02630  Biso   1.000  H
  C19      1.0000 0.47810  0.13020  0.99600  Biso   1.000  C
  C20      1.0000 0.52190  0.63020  0.00400  Biso   1.000  C
  H49      1.0000 0.56340  0.14080  0.97110  Biso   1.000  H
  H50      1.0000 0.43660  0.64080  0.02890  Biso   1.000  H
  H51      1.0000 0.43890  0.07930  0.97050  Biso   1.000  H
  H52      1.0000 0.56110  0.57930  0.02950  Biso   1.000  H
  C21      1.0000 0.86280  0.39090  0.25280  Biso   1.000  C
  C22      1.0000 0.13720  0.89090  0.74720  Biso   1.000  C
  H53      1.0000 0.79650  0.36080  0.27590  Biso   1.000  H
  H54      1.0000 0.20350  0.86080  0.72410  Biso   1.000  H
  C23      1.0000 0.97420  0.44880  0.15490  Biso   1.000  C
  C24      1.0000 0.02580  0.94880  0.84510  Biso   1.000  C
  H55      1.0000 0.99780  0.46630  0.09640  Biso   1.000  H
  H56      1.0000 0.00220  0.96630  0.90360  Biso   1.000  H
  C25      1.0000 0.05230  0.46260  0.25740  Biso   1.000  C
  C26      1.0000 0.94770  0.96260  0.74260  Biso   1.000  C
  H57      1.0000 0.14010  0.49190  0.28160  Biso   1.000  H
  H58      1.0000 0.85990  0.99190  0.71840  Biso   1.000  H
  C27      1.0000 0.48050  0.40840  0.81550  Biso   1.000  C
  C28      1.0000 0.51950  0.90840  0.18450  Biso   1.000  C
  H59      1.0000 0.55860  0.39710  0.78820  Biso   1.000  H
  H60      1.0000 0.44140  0.89710  0.21180  Biso   1.000  H
  C29      1.0000 0.35560  0.42550  0.91950  Biso   1.000  C
  C30      1.0000 0.64440  0.92550  0.08050  Biso   1.000  C
  H61      1.0000 0.32910  0.42720  0.98070  Biso   1.000  H
  H62      1.0000 0.67090  0.92720  0.01930  Biso   1.000  H
  C31      1.0000 0.26140  0.44200  0.82170  Biso   1.000  C
  C32      1.0000 0.73860  0.94200  0.17830  Biso   1.000  C
  H63      1.0000 0.16190  0.45900  0.80330  Biso   1.000  H
  H64      1.0000 0.83810  0.95900  0.19670  Biso   1.000  H
  C33      1.0000 0.02760  0.42720  0.43220  Biso   1.000  C
  C34      1.0000 0.97240  0.92720  0.56780  Biso   1.000  C
  H65      1.0000 0.94050  0.41460  0.45410  Biso   1.000  H
  H66      1.0000 0.05950  0.91460  0.54590  Biso   1.000  H
  H67      1.0000 0.06380  0.47810  0.45950  Biso   1.000  H
  H68      1.0000 0.93620  0.97810  0.54050  Biso   1.000  H
  C35      1.0000 0.15010  0.36770  0.47440  Biso   1.000  C
  C36      1.0000 0.84990  0.86770  0.52560  Biso   1.000  C
  H69      1.0000 0.23480  0.37970  0.44950  Biso   1.000  H
  H70      1.0000 0.76520  0.87970  0.55050  Biso   1.000  H
  H71      1.0000 0.11210  0.31700  0.44770  Biso   1.000  H
  H72      1.0000 0.88790  0.81700  0.55230  Biso   1.000  H
  C37      1.0000 0.20440  0.36500  0.59270  Biso   1.000  C
  C38      1.0000 0.79560  0.86500  0.40730  Biso   1.000  C
  H73      1.0000 0.11780  0.35850  0.61740  Biso   1.000  H
  H74      1.0000 0.88220  0.85850  0.38260  Biso   1.000  H
  H75      1.0000 0.26890  0.32000  0.61490  Biso   1.000  H
  H76      1.0000 0.73110  0.82000  0.38510  Biso   1.000  H
  C39      1.0000 0.29000  0.43610  0.64310  Biso   1.000  C
  C40      1.0000 0.71000  0.93610  0.35690  Biso   1.000  C
  H77      1.0000 0.37550  0.44400  0.61750  Biso   1.000  H
  H78      1.0000 0.62450  0.94400  0.38250  Biso   1.000  H
  H79      1.0000 0.22490  0.48110  0.62410  Biso   1.000  H
  H80      1.0000 0.77510  0.98110  0.37590  Biso   1.000  H
  C41      1.0000 0.01530  0.17160  0.25420  Biso   1.000  C
  C42      1.0000 0.98470  0.67160  0.74580  Biso   1.000  C
  C43      1.0000 0.09850  0.21120  0.18770  Biso   1.000  C
  C44      1.0000 0.90150  0.71120  0.81230  Biso   1.000  C
  H81      1.0000 0.14210  0.17170  0.15450  Biso   1.000  H
  H82      1.0000 0.85790  0.67170  0.84550  Biso   1.000  H
  H83      1.0000 0.02590  0.24010  0.13270  Biso   1.000  H
  H84      1.0000 0.97410  0.74010  0.86730  Biso   1.000  H
  C45      1.0000 0.22040  0.26500  0.24540  Biso   1.000  C
  C46      1.0000 0.77960  0.76500  0.75460  Biso   1.000  C
  H85      1.0000 0.29260  0.23640  0.30090  Biso   1.000  H
  H86      1.0000 0.70740  0.73640  0.69910  Biso   1.000  H
  H87      1.0000 0.17680  0.30500  0.27790  Biso   1.000  H
  H88      1.0000 0.82320  0.80500  0.72210  Biso   1.000  H
  C47      1.0000 0.30270  0.30310  0.17940  Biso   1.000  C
  C48      1.0000 0.69730  0.80310  0.82060  Biso   1.000  C
  H89      1.0000 0.23040  0.33170  0.12400  Biso   1.000  H
  H90      1.0000 0.76960  0.83170  0.87600  Biso   1.000  H
  H91      1.0000 0.34600  0.26310  0.14680  Biso   1.000  H
  H92      1.0000 0.65400  0.76310  0.85320  Biso   1.000  H
  C49      1.0000 0.42760  0.35800  0.23770  Biso   1.000  C
  C50      1.0000 0.57240  0.85800  0.76230  Biso   1.000  C
  H93      1.0000 0.38430  0.39990  0.26710  Biso   1.000  H
  H94      1.0000 0.61570  0.89990  0.73290  Biso   1.000  H
  H95      1.0000 0.49820  0.33040  0.29510  Biso   1.000  H
  H96      1.0000 0.50180  0.83040  0.70490  Biso   1.000  H
  C51      1.0000 0.51040  0.39110  0.16920  Biso   1.000  C
  C52      1.0000 0.48960  0.89110  0.83080  Biso   1.000  C
  C53      1.0000 0.69540  0.24910  0.50340  Biso   1.000  C
  C54      1.0000 0.30460  0.74910  0.49660  Biso   1.000  C
  C55      1.0000 0.60600  0.26720  0.58380  Biso   1.000  C
  C56      1.0000 0.39400  0.76720  0.41620  Biso   1.000  C
  H97      1.0000 0.57080  0.32050  0.57440  Biso   1.000  H
  H98      1.0000 0.42920  0.82050  0.42560  Biso   1.000  H
  H99      1.0000 0.51810  0.23370  0.56860  Biso   1.000  H
  H100     1.0000 0.48190  0.73370  0.43140  Biso   1.000  H
  C57      1.0000 0.69650  0.25610  0.69050  Biso   1.000  C
  C58      1.0000 0.30350  0.75610  0.30950  Biso   1.000  C
  H101     1.0000 0.73420  0.20320  0.69790  Biso   1.000  H
  H102     1.0000 0.26580  0.70320  0.30210  Biso   1.000  H
  H103     1.0000 0.63140  0.26120  0.73420  Biso   1.000  H
  H104     1.0000 0.36860  0.76120  0.26580  Biso   1.000  H
  C59      1.0000 0.82340  0.30750  0.73080  Biso   1.000  C
  C60      1.0000 0.17660  0.80750  0.26920  Biso   1.000  C
  H105     1.0000 0.78540  0.36030  0.72020  Biso   1.000  H
  H106     1.0000 0.21460  0.86030  0.27980  Biso   1.000  H
  H107     1.0000 0.88960  0.30090  0.68820  Biso   1.000  H
  H108     1.0000 0.11040  0.80090  0.31180  Biso   1.000  H
  C61      1.0000 0.92180  0.29960  0.84780  Biso   1.000  C
  C62      1.0000 0.07820  0.79960  0.15220  Biso   1.000  C
  H109     1.0000 0.96520  0.24800  0.85960  Biso   1.000  H
  H110     1.0000 0.03480  0.74800  0.14040  Biso   1.000  H
  H111     1.0000 0.00410  0.33670  0.86270  Biso   1.000  H
  H112     1.0000 0.99590  0.83670  0.13730  Biso   1.000  H
  C63      1.0000 0.83130  0.31350  0.92120  Biso   1.000  C
  C64      1.0000 0.16870  0.81350  0.07880  Biso   1.000  C
