data_image0
_cell_length_a       16.7035
_cell_length_b       13.5879
_cell_length_c       12.005
_cell_angle_alpha    90
_cell_angle_beta     111.009
_cell_angle_gamma    90

_symmetry_space_group_name_H-M    "P 1"
_symmetry_int_tables_number       1

loop_
  _symmetry_equiv_pos_as_xyz
  'x, y, z'

loop_
  _atom_site_label
  _atom_site_occupancy
  _atom_site_fract_x
  _atom_site_fract_y
  _atom_site_fract_z
  _atom_site_thermal_displace_type
  _atom_site_B_iso_or_equiv
  _atom_site_type_symbol
  Cu1      1.0000 0.50000  0.50000  0.50000  Biso   1.000  Cu
  Cu2      1.0000 0.50000  0.50000  0.00000  Biso   1.000  Cu
  Cu3      1.0000 0.00000  0.00000  0.50000  Biso   1.000  Cu
  Cu4      1.0000 0.00000  0.00000  0.00000  Biso   1.000  Cu
  Cl1      1.0000 0.18592  0.53153  0.40653  Biso   1.000  Cl
  Cl2      1.0000 0.81408  0.53153  0.09347  Biso   1.000  Cl
  Cl3      1.0000 0.68592  0.03153  0.40653  Biso   1.000  Cl
  Cl4      1.0000 0.31408  0.03153  0.09347  Biso   1.000  Cl
  Cl5      1.0000 0.81408  0.46847  0.59347  Biso   1.000  Cl
  Cl6      1.0000 0.18592  0.46847  0.90653  Biso   1.000  Cl
  Cl7      1.0000 0.31408  0.96847  0.59347  Biso   1.000  Cl
  Cl8      1.0000 0.68592  0.96847  0.90653  Biso   1.000  Cl
  N1       1.0000 0.57750  0.78830  0.54730  Biso   1.000  N
  N2       1.0000 0.42250  0.78830  0.95270  Biso   1.000  N
  N3       1.0000 0.07750  0.28830  0.54730  Biso   1.000  N
  N4       1.0000 0.92250  0.28830  0.95270  Biso   1.000  N
  N5       1.0000 0.42250  0.21170  0.45270  Biso   1.000  N
  N6       1.0000 0.57750  0.21170  0.04730  Biso   1.000  N
  N7       1.0000 0.92250  0.71170  0.45270  Biso   1.000  N
  N8       1.0000 0.07750  0.71170  0.04730  Biso   1.000  N
  N9       1.0000 0.55280  0.63140  0.51080  Biso   1.000  N
  N10      1.0000 0.44720  0.63140  0.98920  Biso   1.000  N
  N11      1.0000 0.05280  0.13140  0.51080  Biso   1.000  N
  N12      1.0000 0.94720  0.13140  0.98920  Biso   1.000  N
  N13      1.0000 0.44720  0.36860  0.48920  Biso   1.000  N
  N14      1.0000 0.55280  0.36860  0.01080  Biso   1.000  N
  N15      1.0000 0.94720  0.86860  0.48920  Biso   1.000  N
  N16      1.0000 0.05280  0.86860  0.01080  Biso   1.000  N
  N17      1.0000 0.14570  0.71610  0.36570  Biso   1.000  N
  N18      1.0000 0.85430  0.71610  0.13430  Biso   1.000  N
  N19      1.0000 0.64570  0.21610  0.36570  Biso   1.000  N
  N20      1.0000 0.35430  0.21610  0.13430  Biso   1.000  N
  N21      1.0000 0.85430  0.28390  0.63430  Biso   1.000  N
  N22      1.0000 0.14570  0.28390  0.86570  Biso   1.000  N
  N23      1.0000 0.35430  0.78390  0.63430  Biso   1.000  N
  N24      1.0000 0.64570  0.78390  0.86570  Biso   1.000  N
  O1       1.0000 0.38749  0.56393  0.45740  Biso   1.000  O
  O2       1.0000 0.61251  0.56393  0.04260  Biso   1.000  O
  O3       1.0000 0.88749  0.06393  0.45740  Biso   1.000  O
  O4       1.0000 0.11251  0.06393  0.04260  Biso   1.000  O
  O5       1.0000 0.61251  0.43607  0.54260  Biso   1.000  O
  O6       1.0000 0.38749  0.43607  0.95740  Biso   1.000  O
  O7       1.0000 0.11251  0.93607  0.54260  Biso   1.000  O
  O8       1.0000 0.88749  0.93607  0.95740  Biso   1.000  O
  O9       1.0000 0.35890  0.57220  0.26300  Biso   1.000  O
  O10      1.0000 0.64110  0.57220  0.23700  Biso   1.000  O
  O11      1.0000 0.85890  0.07220  0.26300  Biso   1.000  O
  O12      1.0000 0.14110  0.07220  0.23700  Biso   1.000  O
  O13      1.0000 0.64110  0.42780  0.73700  Biso   1.000  O
  O14      1.0000 0.35890  0.42780  0.76300  Biso   1.000  O
  O15      1.0000 0.14110  0.92780  0.73700  Biso   1.000  O
  O16      1.0000 0.85890  0.92780  0.76300  Biso   1.000  O
  O17      1.0000 0.00000  0.01990  0.75000  Biso   1.000  O
  O18      1.0000 0.50000  0.51990  0.75000  Biso   1.000  O
  O19      1.0000 0.00000  0.98010  0.25000  Biso   1.000  O
  O20      1.0000 0.50000  0.48010  0.25000  Biso   1.000  O
  H1       1.0000 0.04030  0.98340  0.74630  Biso   1.000  H
  H2       1.0000 0.95970  0.98340  0.75370  Biso   1.000  H
  H3       1.0000 0.54030  0.48340  0.74630  Biso   1.000  H
  H4       1.0000 0.45970  0.48340  0.75370  Biso   1.000  H
  H5       1.0000 0.95970  0.01660  0.25370  Biso   1.000  H
  H6       1.0000 0.04030  0.01660  0.24630  Biso   1.000  H
  H7       1.0000 0.45970  0.51660  0.25370  Biso   1.000  H
  H8       1.0000 0.54030  0.51660  0.24630  Biso   1.000  H
  C1       1.0000 0.52770  0.71210  0.54910  Biso   1.000  C
  C2       1.0000 0.47230  0.71210  0.95090  Biso   1.000  C
  C3       1.0000 0.02770  0.21210  0.54910  Biso   1.000  C
  C4       1.0000 0.97230  0.21210  0.95090  Biso   1.000  C
  C5       1.0000 0.47230  0.28790  0.45090  Biso   1.000  C
  C6       1.0000 0.52770  0.28790  0.04910  Biso   1.000  C
  C7       1.0000 0.97230  0.78790  0.45090  Biso   1.000  C
  C8       1.0000 0.02770  0.78790  0.04910  Biso   1.000  C
  H9       1.0000 0.48120  0.71560  0.57420  Biso   1.000  H
  H10      1.0000 0.51880  0.71560  0.92580  Biso   1.000  H
  H11      1.0000 0.98120  0.21560  0.57420  Biso   1.000  H
  H12      1.0000 0.01880  0.21560  0.92580  Biso   1.000  H
  H13      1.0000 0.51880  0.28440  0.42580  Biso   1.000  H
  H14      1.0000 0.48120  0.28440  0.07420  Biso   1.000  H
  H15      1.0000 0.01880  0.78440  0.42580  Biso   1.000  H
  H16      1.0000 0.98120  0.78440  0.07420  Biso   1.000  H
  C9       1.0000 0.62210  0.65740  0.48230  Biso   1.000  C
  C10      1.0000 0.37790  0.65740  0.01770  Biso   1.000  C
  C11      1.0000 0.12210  0.15740  0.48230  Biso   1.000  C
  C12      1.0000 0.87790  0.15740  0.01770  Biso   1.000  C
  C13      1.0000 0.37790  0.34260  0.51770  Biso   1.000  C
  C14      1.0000 0.62210  0.34260  0.98230  Biso   1.000  C
  C15      1.0000 0.87790  0.84260  0.51770  Biso   1.000  C
  C16      1.0000 0.12210  0.84260  0.98230  Biso   1.000  C
  H17      1.0000 0.65360  0.61510  0.45290  Biso   1.000  H
  H18      1.0000 0.34640  0.61510  0.04710  Biso   1.000  H
  H19      1.0000 0.15360  0.11510  0.45290  Biso   1.000  H
  H20      1.0000 0.84640  0.11510  0.04710  Biso   1.000  H
  H21      1.0000 0.34640  0.38490  0.54710  Biso   1.000  H
  H22      1.0000 0.65360  0.38490  0.95290  Biso   1.000  H
  H23      1.0000 0.84640  0.88490  0.54710  Biso   1.000  H
  H24      1.0000 0.15360  0.88490  0.95290  Biso   1.000  H
  C17      1.0000 0.63750  0.75450  0.50370  Biso   1.000  C
  C18      1.0000 0.36250  0.75450  0.99630  Biso   1.000  C
  C19      1.0000 0.13750  0.25450  0.50370  Biso   1.000  C
  C20      1.0000 0.86250  0.25450  0.99630  Biso   1.000  C
  C21      1.0000 0.36250  0.24550  0.49630  Biso   1.000  C
  C22      1.0000 0.63750  0.24550  0.00370  Biso   1.000  C
  C23      1.0000 0.86250  0.74550  0.49630  Biso   1.000  C
  C24      1.0000 0.13750  0.74550  0.00370  Biso   1.000  C
  H25      1.0000 0.68050  0.79120  0.49120  Biso   1.000  H
  H26      1.0000 0.31950  0.79120  0.00880  Biso   1.000  H
  H27      1.0000 0.18050  0.29120  0.49120  Biso   1.000  H
  H28      1.0000 0.81950  0.29120  0.00880  Biso   1.000  H
  H29      1.0000 0.31950  0.20880  0.50880  Biso   1.000  H
  H30      1.0000 0.68050  0.20880  0.99120  Biso   1.000  H
  H31      1.0000 0.81950  0.70880  0.50880  Biso   1.000  H
  H32      1.0000 0.18050  0.70880  0.99120  Biso   1.000  H
  C25      1.0000 0.56680  0.88950  0.58210  Biso   1.000  C
  C26      1.0000 0.43320  0.88950  0.91790  Biso   1.000  C
  C27      1.0000 0.06680  0.38950  0.58210  Biso   1.000  C
  C28      1.0000 0.93320  0.38950  0.91790  Biso   1.000  C
  C29      1.0000 0.43320  0.11050  0.41790  Biso   1.000  C
  C30      1.0000 0.56680  0.11050  0.08210  Biso   1.000  C
  C31      1.0000 0.93320  0.61050  0.41790  Biso   1.000  C
  C32      1.0000 0.06680  0.61050  0.08210  Biso   1.000  C
  H33      1.0000 0.62180  0.92280  0.60720  Biso   1.000  H
  H34      1.0000 0.37820  0.92280  0.89280  Biso   1.000  H
  H35      1.0000 0.12180  0.42280  0.60720  Biso   1.000  H
  H36      1.0000 0.87820  0.42280  0.89280  Biso   1.000  H
  H37      1.0000 0.37820  0.07720  0.39280  Biso   1.000  H
  H38      1.0000 0.62180  0.07720  0.10720  Biso   1.000  H
  H39      1.0000 0.87820  0.57720  0.39280  Biso   1.000  H
  H40      1.0000 0.12180  0.57720  0.10720  Biso   1.000  H
  H41      1.0000 0.54780  0.88800  0.64950  Biso   1.000  H
  H42      1.0000 0.45220  0.88800  0.85050  Biso   1.000  H
  H43      1.0000 0.04780  0.38800  0.64950  Biso   1.000  H
  H44      1.0000 0.95220  0.38800  0.85050  Biso   1.000  H
  H45      1.0000 0.45220  0.11200  0.35050  Biso   1.000  H
  H46      1.0000 0.54780  0.11200  0.14950  Biso   1.000  H
  H47      1.0000 0.95220  0.61200  0.35050  Biso   1.000  H
  H48      1.0000 0.04780  0.61200  0.14950  Biso   1.000  H
  C33      1.0000 0.50280  0.94680  0.48160  Biso   1.000  C
  C34      1.0000 0.49720  0.94680  0.01840  Biso   1.000  C
  C35      1.0000 0.00280  0.44680  0.48160  Biso   1.000  C
  C36      1.0000 0.99720  0.44680  0.01840  Biso   1.000  C
  C37      1.0000 0.49720  0.05320  0.51840  Biso   1.000  C
  C38      1.0000 0.50280  0.05320  0.98160  Biso   1.000  C
  C39      1.0000 0.99720  0.55320  0.51840  Biso   1.000  C
  C40      1.0000 0.00280  0.55320  0.98160  Biso   1.000  C
  H49      1.0000 0.44690  0.91610  0.45960  Biso   1.000  H
  H50      1.0000 0.55310  0.91610  0.04040  Biso   1.000  H
  H51      1.0000 0.94690  0.41610  0.45960  Biso   1.000  H
  H52      1.0000 0.05310  0.41610  0.04040  Biso   1.000  H
  H53      1.0000 0.55310  0.08390  0.54040  Biso   1.000  H
  H54      1.0000 0.44690  0.08390  0.95960  Biso   1.000  H
  H55      1.0000 0.05310  0.58390  0.54040  Biso   1.000  H
  H56      1.0000 0.94690  0.58390  0.95960  Biso   1.000  H
  H57      1.0000 0.51990  0.94550  0.41240  Biso   1.000  H
  H58      1.0000 0.48010  0.94550  0.08760  Biso   1.000  H
  H59      1.0000 0.01990  0.44550  0.41240  Biso   1.000  H
  H60      1.0000 0.98010  0.44550  0.08760  Biso   1.000  H
  H61      1.0000 0.48010  0.05450  0.58760  Biso   1.000  H
  H62      1.0000 0.51990  0.05450  0.91240  Biso   1.000  H
  H63      1.0000 0.98010  0.55450  0.58760  Biso   1.000  H
  H64      1.0000 0.01990  0.55450  0.91240  Biso   1.000  H
  C41      1.0000 0.34680  0.59460  0.35390  Biso   1.000  C
  C42      1.0000 0.65320  0.59460  0.14610  Biso   1.000  C
  C43      1.0000 0.84680  0.09460  0.35390  Biso   1.000  C
  C44      1.0000 0.15320  0.09460  0.14610  Biso   1.000  C
  C45      1.0000 0.65320  0.40540  0.64610  Biso   1.000  C
  C46      1.0000 0.34680  0.40540  0.85390  Biso   1.000  C
  C47      1.0000 0.15320  0.90540  0.64610  Biso   1.000  C
  C48      1.0000 0.84680  0.90540  0.85390  Biso   1.000  C
  C49      1.0000 0.20580  0.65140  0.37030  Biso   1.000  C
  C50      1.0000 0.79420  0.65140  0.12970  Biso   1.000  C
  C51      1.0000 0.70580  0.15140  0.37030  Biso   1.000  C
  C52      1.0000 0.29420  0.15140  0.12970  Biso   1.000  C
  C53      1.0000 0.79420  0.34860  0.62970  Biso   1.000  C
  C54      1.0000 0.20580  0.34860  0.87030  Biso   1.000  C
  C55      1.0000 0.29420  0.84860  0.62970  Biso   1.000  C
  C56      1.0000 0.70580  0.84860  0.87030  Biso   1.000  C
  C57      1.0000 0.27820  0.66920  0.34430  Biso   1.000  C
  C58      1.0000 0.72180  0.66920  0.15570  Biso   1.000  C
  C59      1.0000 0.77820  0.16920  0.34430  Biso   1.000  C
  C60      1.0000 0.22180  0.16920  0.15570  Biso   1.000  C
  C61      1.0000 0.72180  0.33080  0.65570  Biso   1.000  C
  C62      1.0000 0.27820  0.33080  0.84430  Biso   1.000  C
  C63      1.0000 0.22180  0.83080  0.65570  Biso   1.000  C
  C64      1.0000 0.77820  0.83080  0.84430  Biso   1.000  C
  C65      1.0000 0.28700  0.76450  0.30780  Biso   1.000  C
  C66      1.0000 0.71300  0.76450  0.19220  Biso   1.000  C
  C67      1.0000 0.78700  0.26450  0.30780  Biso   1.000  C
  C68      1.0000 0.21300  0.26450  0.19220  Biso   1.000  C
  C69      1.0000 0.71300  0.23550  0.69220  Biso   1.000  C
  C70      1.0000 0.28700  0.23550  0.80780  Biso   1.000  C
  C71      1.0000 0.21300  0.73550  0.69220  Biso   1.000  C
  C72      1.0000 0.78700  0.73550  0.80780  Biso   1.000  C
  H65      1.0000 0.33370  0.78090  0.28670  Biso   1.000  H
  H66      1.0000 0.66630  0.78090  0.21330  Biso   1.000  H
  H67      1.0000 0.83370  0.28090  0.28670  Biso   1.000  H
  H68      1.0000 0.16630  0.28090  0.21330  Biso   1.000  H
  H69      1.0000 0.66630  0.21910  0.71330  Biso   1.000  H
  H70      1.0000 0.33370  0.21910  0.78670  Biso   1.000  H
  H71      1.0000 0.16630  0.71910  0.71330  Biso   1.000  H
  H72      1.0000 0.83370  0.71910  0.78670  Biso   1.000  H
  C73      1.0000 0.22620  0.83410  0.30330  Biso   1.000  C
  C74      1.0000 0.77380  0.83410  0.19670  Biso   1.000  C
  C75      1.0000 0.72620  0.33410  0.30330  Biso   1.000  C
  C76      1.0000 0.27380  0.33410  0.19670  Biso   1.000  C
  C77      1.0000 0.77380  0.16590  0.69670  Biso   1.000  C
  C78      1.0000 0.22620  0.16590  0.80330  Biso   1.000  C
  C79      1.0000 0.27380  0.66590  0.69670  Biso   1.000  C
  C80      1.0000 0.72620  0.66590  0.80330  Biso   1.000  C
  H73      1.0000 0.23160  0.89840  0.28030  Biso   1.000  H
  H74      1.0000 0.76840  0.89840  0.21970  Biso   1.000  H
  H75      1.0000 0.73160  0.39840  0.28030  Biso   1.000  H
  H76      1.0000 0.26840  0.39840  0.21970  Biso   1.000  H
  H77      1.0000 0.76840  0.10160  0.71970  Biso   1.000  H
  H78      1.0000 0.23160  0.10160  0.78030  Biso   1.000  H
  H79      1.0000 0.26840  0.60160  0.71970  Biso   1.000  H
  H80      1.0000 0.73160  0.60160  0.78030  Biso   1.000  H
  C81      1.0000 0.15800  0.80730  0.33290  Biso   1.000  C
  C82      1.0000 0.84200  0.80730  0.16710  Biso   1.000  C
  C83      1.0000 0.65800  0.30730  0.33290  Biso   1.000  C
  C84      1.0000 0.34200  0.30730  0.16710  Biso   1.000  C
  C85      1.0000 0.84200  0.19270  0.66710  Biso   1.000  C
  C86      1.0000 0.15800  0.19270  0.83290  Biso   1.000  C
  C87      1.0000 0.34200  0.69270  0.66710  Biso   1.000  C
  C88      1.0000 0.65800  0.69270  0.83290  Biso   1.000  C
  H81      1.0000 0.11750  0.85510  0.33030  Biso   1.000  H
  H82      1.0000 0.88250  0.85510  0.16970  Biso   1.000  H
  H83      1.0000 0.61750  0.35510  0.33030  Biso   1.000  H
  H84      1.0000 0.38250  0.35510  0.16970  Biso   1.000  H
  H85      1.0000 0.88250  0.14490  0.66970  Biso   1.000  H
  H86      1.0000 0.11750  0.14490  0.83030  Biso   1.000  H
  H87      1.0000 0.38250  0.64490  0.66970  Biso   1.000  H
  H88      1.0000 0.61750  0.64490  0.83030  Biso   1.000  H
