data_image0
_cell_length_a       7.548
_cell_length_b       19.166
_cell_length_c       11.698
_cell_angle_alpha    90
_cell_angle_beta     99.283
_cell_angle_gamma    90

_symmetry_space_group_name_H-M    "P 1"
_symmetry_int_tables_number       1

loop_
  _symmetry_equiv_pos_as_xyz
  'x, y, z'

loop_
  _atom_site_label
  _atom_site_occupancy
  _atom_site_fract_x
  _atom_site_fract_y
  _atom_site_fract_z
  _atom_site_thermal_displace_type
  _atom_site_B_iso_or_equiv
  _atom_site_type_symbol
  Cu1      1.0000 0.70720  0.00721  0.34587  Biso   1.000  Cu
  Cu2      1.0000 0.29280  0.50721  0.15413  Biso   1.000  Cu
  Cu3      1.0000 0.29280  0.99279  0.65413  Biso   1.000  Cu
  Cu4      1.0000 0.70720  0.49279  0.84587  Biso   1.000  Cu
  C1       1.0000 0.74480  0.87790  0.42500  Biso   1.000  C
  C2       1.0000 0.25520  0.37790  0.07500  Biso   1.000  C
  C3       1.0000 0.25520  0.12210  0.57500  Biso   1.000  C
  C4       1.0000 0.74480  0.62210  0.92500  Biso   1.000  C
  C5       1.0000 0.77110  0.79840  0.43140  Biso   1.000  C
  C6       1.0000 0.22890  0.29840  0.06860  Biso   1.000  C
  C7       1.0000 0.22890  0.20160  0.56860  Biso   1.000  C
  C8       1.0000 0.77110  0.70160  0.93140  Biso   1.000  C
  C9       1.0000 0.84070  0.76960  0.54120  Biso   1.000  C
  C10      1.0000 0.15930  0.26960  0.95880  Biso   1.000  C
  C11      1.0000 0.15930  0.23040  0.45880  Biso   1.000  C
  C12      1.0000 0.84070  0.73040  0.04120  Biso   1.000  C
  H1       1.0000 0.86730  0.79840  0.60560  Biso   1.000  H
  H2       1.0000 0.13270  0.29840  0.89440  Biso   1.000  H
  H3       1.0000 0.13270  0.20160  0.39440  Biso   1.000  H
  H4       1.0000 0.86730  0.70160  0.10560  Biso   1.000  H
  C13      1.0000 0.86890  0.69810  0.55180  Biso   1.000  C
  C14      1.0000 0.13110  0.19810  0.94820  Biso   1.000  C
  C15      1.0000 0.13110  0.30190  0.44820  Biso   1.000  C
  C16      1.0000 0.86890  0.80190  0.05180  Biso   1.000  C
  H5       1.0000 0.91300  0.67880  0.62370  Biso   1.000  H
  H6       1.0000 0.08700  0.17880  0.87630  Biso   1.000  H
  H7       1.0000 0.08700  0.32120  0.37630  Biso   1.000  H
  H8       1.0000 0.91300  0.82120  0.12370  Biso   1.000  H
  C17      1.0000 0.83160  0.65560  0.45560  Biso   1.000  C
  C18      1.0000 0.16840  0.15560  0.04440  Biso   1.000  C
  C19      1.0000 0.16840  0.34440  0.54440  Biso   1.000  C
  C20      1.0000 0.83160  0.84440  0.95560  Biso   1.000  C
  C21      1.0000 0.76360  0.68480  0.35090  Biso   1.000  C
  C22      1.0000 0.23640  0.18480  0.14910  Biso   1.000  C
  C23      1.0000 0.23640  0.31520  0.64910  Biso   1.000  C
  C24      1.0000 0.76360  0.81520  0.85090  Biso   1.000  C
  H9       1.0000 0.73630  0.65620  0.28630  Biso   1.000  H
  H10      1.0000 0.26370  0.15620  0.21370  Biso   1.000  H
  H11      1.0000 0.26370  0.34380  0.71370  Biso   1.000  H
  H12      1.0000 0.73630  0.84380  0.78630  Biso   1.000  H
  C25      1.0000 0.73420  0.75680  0.33890  Biso   1.000  C
  C26      1.0000 0.26580  0.25680  0.16110  Biso   1.000  C
  C27      1.0000 0.26580  0.24320  0.66110  Biso   1.000  C
  C28      1.0000 0.73420  0.74320  0.83890  Biso   1.000  C
  H13      1.0000 0.68920  0.77560  0.26680  Biso   1.000  H
  H14      1.0000 0.31080  0.27560  0.23320  Biso   1.000  H
  H15      1.0000 0.31080  0.22440  0.73320  Biso   1.000  H
  H16      1.0000 0.68920  0.72440  0.76680  Biso   1.000  H
  C29      1.0000 0.86260  0.58030  0.46760  Biso   1.000  C
  C30      1.0000 0.13740  0.08030  0.03240  Biso   1.000  C
  C31      1.0000 0.13740  0.41970  0.53240  Biso   1.000  C
  C32      1.0000 0.86260  0.91970  0.96760  Biso   1.000  C
  H17      1.0000 0.90100  0.56340  0.54200  Biso   1.000  H
  H18      1.0000 0.09900  0.06340  0.95800  Biso   1.000  H
  H19      1.0000 0.09900  0.43660  0.45800  Biso   1.000  H
  H20      1.0000 0.90100  0.93660  0.04200  Biso   1.000  H
  C33      1.0000 0.73250  0.13210  0.47330  Biso   1.000  C
  C34      1.0000 0.26750  0.63210  0.02670  Biso   1.000  C
  C35      1.0000 0.26750  0.86790  0.52670  Biso   1.000  C
  C36      1.0000 0.73250  0.36790  0.97330  Biso   1.000  C
  C37      1.0000 0.70820  0.21000  0.48820  Biso   1.000  C
  C38      1.0000 0.29180  0.71000  0.01180  Biso   1.000  C
  C39      1.0000 0.29180  0.79000  0.51180  Biso   1.000  C
  C40      1.0000 0.70820  0.29000  0.98820  Biso   1.000  C
  C41      1.0000 0.75880  0.23880  0.59700  Biso   1.000  C
  C42      1.0000 0.24120  0.73880  0.90300  Biso   1.000  C
  C43      1.0000 0.24120  0.76120  0.40300  Biso   1.000  C
  C44      1.0000 0.75880  0.26120  0.09700  Biso   1.000  C
  H21      1.0000 0.80530  0.21110  0.66000  Biso   1.000  H
  H22      1.0000 0.19470  0.71110  0.84000  Biso   1.000  H
  H23      1.0000 0.19470  0.78890  0.34000  Biso   1.000  H
  H24      1.0000 0.80530  0.28890  0.16000  Biso   1.000  H
  C45      1.0000 0.73790  0.31160  0.60990  Biso   1.000  C
  C46      1.0000 0.26210  0.81160  0.89010  Biso   1.000  C
  C47      1.0000 0.26210  0.68840  0.39010  Biso   1.000  C
  C48      1.0000 0.73790  0.18840  0.10990  Biso   1.000  C
  H25      1.0000 0.77540  0.33280  0.68120  Biso   1.000  H
  H26      1.0000 0.22460  0.83280  0.81880  Biso   1.000  H
  H27      1.0000 0.22460  0.66720  0.31880  Biso   1.000  H
  H28      1.0000 0.77540  0.16720  0.18120  Biso   1.000  H
  C49      1.0000 0.66130  0.35140  0.51550  Biso   1.000  C
  C50      1.0000 0.33870  0.85140  0.98450  Biso   1.000  C
  C51      1.0000 0.33870  0.64860  0.48450  Biso   1.000  C
  C52      1.0000 0.66130  0.14860  0.01550  Biso   1.000  C
  C53      1.0000 0.61580  0.32010  0.41010  Biso   1.000  C
  C54      1.0000 0.38420  0.82010  0.08990  Biso   1.000  C
  C55      1.0000 0.38420  0.67990  0.58990  Biso   1.000  C
  C56      1.0000 0.61580  0.17990  0.91010  Biso   1.000  C
  H29      1.0000 0.56780  0.34690  0.34630  Biso   1.000  H
  H30      1.0000 0.43220  0.84690  0.15370  Biso   1.000  H
  H31      1.0000 0.43220  0.65310  0.65370  Biso   1.000  H
  H32      1.0000 0.56780  0.15310  0.84630  Biso   1.000  H
  C57      1.0000 0.63960  0.24980  0.39620  Biso   1.000  C
  C58      1.0000 0.36040  0.74980  0.10380  Biso   1.000  C
  C59      1.0000 0.36040  0.75020  0.60380  Biso   1.000  C
  C60      1.0000 0.63960  0.25020  0.89620  Biso   1.000  C
  H33      1.0000 0.60850  0.22960  0.32350  Biso   1.000  H
  H34      1.0000 0.39150  0.72960  0.17650  Biso   1.000  H
  H35      1.0000 0.39150  0.77040  0.67650  Biso   1.000  H
  H36      1.0000 0.60850  0.27040  0.82350  Biso   1.000  H
  C61      1.0000 0.63150  0.42540  0.53010  Biso   1.000  C
  C62      1.0000 0.36850  0.92540  0.96990  Biso   1.000  C
  C63      1.0000 0.36850  0.57460  0.46990  Biso   1.000  C
  C64      1.0000 0.63150  0.07460  0.03010  Biso   1.000  C
  H37      1.0000 0.57970  0.44910  0.46370  Biso   1.000  H
  H38      1.0000 0.42030  0.94910  0.03630  Biso   1.000  H
  H39      1.0000 0.42030  0.55090  0.53630  Biso   1.000  H
  H40      1.0000 0.57970  0.05090  0.96370  Biso   1.000  H
  O1       1.0000 0.70890  0.90330  0.32180  Biso   1.000  O
  O2       1.0000 0.29110  0.40330  0.17820  Biso   1.000  O
  O3       1.0000 0.29110  0.09670  0.67820  Biso   1.000  O
  O4       1.0000 0.70890  0.59670  0.82180  Biso   1.000  O
  O5       1.0000 0.75330  0.91220  0.51130  Biso   1.000  O
  O6       1.0000 0.24670  0.41220  0.98870  Biso   1.000  O
  O7       1.0000 0.24670  0.08780  0.48870  Biso   1.000  O
  O8       1.0000 0.75330  0.58780  0.01130  Biso   1.000  O
  O9       1.0000 0.84330  0.53860  0.39100  Biso   1.000  O
  O10      1.0000 0.15670  0.03860  0.10900  Biso   1.000  O
  O11      1.0000 0.15670  0.46140  0.60900  Biso   1.000  O
  O12      1.0000 0.84330  0.96140  0.89100  Biso   1.000  O
  O13      1.0000 0.70210  0.10900  0.37170  Biso   1.000  O
  O14      1.0000 0.29790  0.60900  0.12830  Biso   1.000  O
  O15      1.0000 0.29790  0.89100  0.62830  Biso   1.000  O
  O16      1.0000 0.70210  0.39100  0.87170  Biso   1.000  O
  O17      1.0000 0.78060  0.09590  0.55890  Biso   1.000  O
  O18      1.0000 0.21940  0.59590  0.94110  Biso   1.000  O
  O19      1.0000 0.21940  0.90410  0.44110  Biso   1.000  O
  O20      1.0000 0.78060  0.40410  0.05890  Biso   1.000  O
  O21      1.0000 0.66460  0.46030  0.61650  Biso   1.000  O
  O22      1.0000 0.33540  0.96030  0.88350  Biso   1.000  O
  O23      1.0000 0.33540  0.53970  0.38350  Biso   1.000  O
  O24      1.0000 0.66460  0.03970  0.11650  Biso   1.000  O
  O25      1.0000 0.96470  0.01020  0.33300  Biso   1.000  O
  O26      1.0000 0.03530  0.51020  0.16700  Biso   1.000  O
  O27      1.0000 0.03530  0.98980  0.66700  Biso   1.000  O
  O28      1.0000 0.96470  0.48980  0.83300  Biso   1.000  O
  H41      1.0000 0.02150  0.96830  0.36570  Biso   1.000  H
  H42      1.0000 0.97850  0.46830  0.13430  Biso   1.000  H
  H43      1.0000 0.97850  0.03170  0.63430  Biso   1.000  H
  H44      1.0000 0.02150  0.53170  0.86570  Biso   1.000  H
  H45      1.0000 0.01900  0.04990  0.37470  Biso   1.000  H
  H46      1.0000 0.98100  0.54990  0.12530  Biso   1.000  H
  H47      1.0000 0.98100  0.95010  0.62530  Biso   1.000  H
  H48      1.0000 0.01900  0.45010  0.87470  Biso   1.000  H
  O29      1.0000 0.44490  0.00460  0.33610  Biso   1.000  O
  O30      1.0000 0.55510  0.50460  0.16390  Biso   1.000  O
  O31      1.0000 0.55510  0.99540  0.66390  Biso   1.000  O
  O32      1.0000 0.44490  0.49540  0.83610  Biso   1.000  O
  H49      1.0000 0.40710  0.04440  0.37560  Biso   1.000  H
  H50      1.0000 0.59290  0.54440  0.12440  Biso   1.000  H
  H51      1.0000 0.59290  0.95560  0.62440  Biso   1.000  H
  H52      1.0000 0.40710  0.45560  0.87560  Biso   1.000  H
  H53      1.0000 0.38980  0.00580  0.25620  Biso   1.000  H
  H54      1.0000 0.61020  0.50580  0.24380  Biso   1.000  H
  H55      1.0000 0.61020  0.99420  0.74380  Biso   1.000  H
  H56      1.0000 0.38980  0.49420  0.75620  Biso   1.000  H
