data_image0
_cell_length_a       9.3573
_cell_length_b       13.4692
_cell_length_c       19.4072
_cell_angle_alpha    90
_cell_angle_beta     90
_cell_angle_gamma    90

_symmetry_space_group_name_H-M    "P 1"
_symmetry_int_tables_number       1

loop_
  _symmetry_equiv_pos_as_xyz
  'x, y, z'

loop_
  _atom_site_label
  _atom_site_occupancy
  _atom_site_fract_x
  _atom_site_fract_y
  _atom_site_fract_z
  _atom_site_thermal_displace_type
  _atom_site_B_iso_or_equiv
  _atom_site_type_symbol
  Cu1      1.0000 0.77379  0.09158  0.64325  Biso   1.000  Cu
  Cu2      1.0000 0.72621  0.90842  0.14325  Biso   1.000  Cu
  Cu3      1.0000 0.27379  0.40842  0.35675  Biso   1.000  Cu
  Cu4      1.0000 0.22621  0.59158  0.85675  Biso   1.000  Cu
  Cu5      1.0000 0.30603  0.10230  0.86150  Biso   1.000  Cu
  Cu6      1.0000 0.19397  0.89770  0.36150  Biso   1.000  Cu
  Cu7      1.0000 0.80603  0.39770  0.13850  Biso   1.000  Cu
  Cu8      1.0000 0.69397  0.60230  0.63850  Biso   1.000  Cu
  Cl1      1.0000 0.99130  0.11243  0.58691  Biso   1.000  Cl
  Cl2      1.0000 0.50870  0.88757  0.08691  Biso   1.000  Cl
  Cl3      1.0000 0.49130  0.38757  0.41309  Biso   1.000  Cl
  Cl4      1.0000 0.00870  0.61243  0.91309  Biso   1.000  Cl
  Cl5      1.0000 0.54580  0.13518  0.92219  Biso   1.000  Cl
  Cl6      1.0000 0.95420  0.86482  0.42219  Biso   1.000  Cl
  Cl7      1.0000 0.04580  0.36482  0.07781  Biso   1.000  Cl
  Cl8      1.0000 0.45420  0.63518  0.57781  Biso   1.000  Cl
  B1       1.0000 0.99190  0.19990  0.89920  Biso   1.000  B
  B2       1.0000 0.50810  0.80010  0.39920  Biso   1.000  B
  B3       1.0000 0.49190  0.30010  0.10080  Biso   1.000  B
  B4       1.0000 0.00810  0.69990  0.60080  Biso   1.000  B
  H1       1.0000 0.90200  0.23380  0.91730  Biso   1.000  H
  H2       1.0000 0.59800  0.76620  0.41730  Biso   1.000  H
  H3       1.0000 0.40200  0.26620  0.08270  Biso   1.000  H
  H4       1.0000 0.09800  0.73380  0.58270  Biso   1.000  H
  B5       1.0000 0.48040  0.21720  0.59850  Biso   1.000  B
  B6       1.0000 0.01960  0.78280  0.09850  Biso   1.000  B
  B7       1.0000 0.98040  0.28280  0.40150  Biso   1.000  B
  B8       1.0000 0.51960  0.71720  0.90150  Biso   1.000  B
  H5       1.0000 0.38310  0.24200  0.58220  Biso   1.000  H
  H6       1.0000 0.11690  0.75800  0.08220  Biso   1.000  H
  H7       1.0000 0.88310  0.25800  0.41780  Biso   1.000  H
  H8       1.0000 0.61690  0.74200  0.91780  Biso   1.000  H
  N1       1.0000 0.95990  0.14000  0.83340  Biso   1.000  N
  N2       1.0000 0.54010  0.86000  0.33340  Biso   1.000  N
  N3       1.0000 0.45990  0.36000  0.16660  Biso   1.000  N
  N4       1.0000 0.04010  0.64000  0.66660  Biso   1.000  N
  N5       1.0000 0.05790  0.07450  0.80630  Biso   1.000  N
  N6       1.0000 0.44210  0.92550  0.30630  Biso   1.000  N
  N7       1.0000 0.55790  0.42550  0.19370  Biso   1.000  N
  N8       1.0000 0.94210  0.57450  0.69370  Biso   1.000  N
  C1       1.0000 0.00280  0.05010  0.74720  Biso   1.000  C
  C2       1.0000 0.49720  0.94990  0.24720  Biso   1.000  C
  C3       1.0000 0.50280  0.44990  0.25280  Biso   1.000  C
  C4       1.0000 0.99720  0.55010  0.75280  Biso   1.000  C
  H9       1.0000 0.04570  0.00520  0.71720  Biso   1.000  H
  H10      1.0000 0.45430  0.99480  0.21720  Biso   1.000  H
  H11      1.0000 0.54570  0.49480  0.28280  Biso   1.000  H
  H12      1.0000 0.95430  0.50520  0.78280  Biso   1.000  H
  N9       1.0000 0.87640  0.09610  0.73330  Biso   1.000  N
  N10      1.0000 0.62360  0.90390  0.23330  Biso   1.000  N
  N11      1.0000 0.37640  0.40390  0.26670  Biso   1.000  N
  N12      1.0000 0.12360  0.59610  0.76670  Biso   1.000  N
  C5       1.0000 0.85590  0.15170  0.78920  Biso   1.000  C
  C6       1.0000 0.64410  0.84830  0.28920  Biso   1.000  C
  C7       1.0000 0.35590  0.34830  0.21080  Biso   1.000  C
  C8       1.0000 0.14410  0.65170  0.71080  Biso   1.000  C
  H13      1.0000 0.77790  0.19340  0.79580  Biso   1.000  H
  H14      1.0000 0.72210  0.80660  0.29580  Biso   1.000  H
  H15      1.0000 0.27790  0.30660  0.20420  Biso   1.000  H
  H16      1.0000 0.22210  0.69340  0.70420  Biso   1.000  H
  N13      1.0000 0.05960  0.13340  0.95470  Biso   1.000  N
  N14      1.0000 0.44040  0.86660  0.45470  Biso   1.000  N
  N15      1.0000 0.55960  0.36660  0.04530  Biso   1.000  N
  N16      1.0000 0.94040  0.63340  0.54530  Biso   1.000  N
  N17      1.0000 0.19140  0.09170  0.94820  Biso   1.000  N
  N18      1.0000 0.30860  0.90830  0.44820  Biso   1.000  N
  N19      1.0000 0.69140  0.40830  0.05180  Biso   1.000  N
  N20      1.0000 0.80860  0.59170  0.55180  Biso   1.000  N
  C9       1.0000 0.21780  0.05140  0.00870  Biso   1.000  C
  C10      1.0000 0.28220  0.94860  0.50870  Biso   1.000  C
  C11      1.0000 0.71780  0.44860  0.99130  Biso   1.000  C
  C12      1.0000 0.78220  0.55140  0.49130  Biso   1.000  C
  H17      1.0000 0.30160  0.01700  0.01830  Biso   1.000  H
  H18      1.0000 0.19840  0.98300  0.51830  Biso   1.000  H
  H19      1.0000 0.80160  0.48300  0.98170  Biso   1.000  H
  H20      1.0000 0.69840  0.51700  0.48170  Biso   1.000  H
  N21      1.0000 0.11400  0.06430  0.05500  Biso   1.000  N
  N22      1.0000 0.38600  0.93570  0.55500  Biso   1.000  N
  N23      1.0000 0.61400  0.43570  0.94500  Biso   1.000  N
  N24      1.0000 0.88600  0.56430  0.44500  Biso   1.000  N
  C13      1.0000 0.01680  0.11670  0.01950  Biso   1.000  C
  C14      1.0000 0.48320  0.88330  0.51950  Biso   1.000  C
  C15      1.0000 0.51680  0.38330  0.98050  Biso   1.000  C
  C16      1.0000 0.98320  0.61670  0.48050  Biso   1.000  C
  H21      1.0000 0.93040  0.13880  0.03760  Biso   1.000  H
  H22      1.0000 0.56960  0.86120  0.53760  Biso   1.000  H
  H23      1.0000 0.43040  0.36120  0.96240  Biso   1.000  H
  H24      1.0000 0.06960  0.63880  0.46240  Biso   1.000  H
  N25      1.0000 0.10710  0.27700  0.87970  Biso   1.000  N
  N26      1.0000 0.39290  0.72300  0.37970  Biso   1.000  N
  N27      1.0000 0.60710  0.22300  0.12030  Biso   1.000  N
  N28      1.0000 0.89290  0.77700  0.62030  Biso   1.000  N
  N29      1.0000 0.23830  0.25060  0.85460  Biso   1.000  N
  N30      1.0000 0.26170  0.74940  0.35460  Biso   1.000  N
  N31      1.0000 0.73830  0.24940  0.14540  Biso   1.000  N
  N32      1.0000 0.76170  0.75060  0.64540  Biso   1.000  N
  C17      1.0000 0.30100  0.33680  0.84160  Biso   1.000  C
  C18      1.0000 0.19900  0.66320  0.34160  Biso   1.000  C
  C19      1.0000 0.80100  0.16320  0.15840  Biso   1.000  C
  C20      1.0000 0.69900  0.83680  0.65840  Biso   1.000  C
  H25      1.0000 0.39260  0.34220  0.82350  Biso   1.000  H
  H26      1.0000 0.10740  0.65780  0.32350  Biso   1.000  H
  H27      1.0000 0.89260  0.15780  0.17650  Biso   1.000  H
  H28      1.0000 0.60740  0.84220  0.67650  Biso   1.000  H
  N33      1.0000 0.21920  0.41580  0.85730  Biso   1.000  N
  N34      1.0000 0.28080  0.58420  0.35730  Biso   1.000  N
  N35      1.0000 0.71920  0.08420  0.14270  Biso   1.000  N
  N36      1.0000 0.78080  0.91580  0.64270  Biso   1.000  N
  C21      1.0000 0.10050  0.37470  0.88120  Biso   1.000  C
  C22      1.0000 0.39950  0.62530  0.38120  Biso   1.000  C
  C23      1.0000 0.60050  0.12530  0.11880  Biso   1.000  C
  C24      1.0000 0.89950  0.87470  0.61880  Biso   1.000  C
  H29      1.0000 0.02200  0.41040  0.89710  Biso   1.000  H
  H30      1.0000 0.47800  0.58960  0.39710  Biso   1.000  H
  H31      1.0000 0.52200  0.08960  0.10290  Biso   1.000  H
  H32      1.0000 0.97800  0.91040  0.60290  Biso   1.000  H
  N37      1.0000 0.55050  0.15330  0.54350  Biso   1.000  N
  N38      1.0000 0.94950  0.84670  0.04350  Biso   1.000  N
  N39      1.0000 0.05050  0.34670  0.45650  Biso   1.000  N
  N40      1.0000 0.44950  0.65330  0.95650  Biso   1.000  N
  N41      1.0000 0.67270  0.09900  0.55380  Biso   1.000  N
  N42      1.0000 0.82730  0.90100  0.05380  Biso   1.000  N
  N43      1.0000 0.17270  0.40100  0.44620  Biso   1.000  N
  N44      1.0000 0.32730  0.59900  0.94620  Biso   1.000  N
  C25      1.0000 0.70130  0.06120  0.49180  Biso   1.000  C
  C26      1.0000 0.79870  0.93880  0.99180  Biso   1.000  C
  C27      1.0000 0.20130  0.43880  0.50820  Biso   1.000  C
  C28      1.0000 0.29870  0.56120  0.00820  Biso   1.000  C
  H33      1.0000 0.77870  0.01960  0.48340  Biso   1.000  H
  H34      1.0000 0.72130  0.98040  0.98340  Biso   1.000  H
  H35      1.0000 0.27870  0.48040  0.51660  Biso   1.000  H
  H36      1.0000 0.22130  0.51960  0.01660  Biso   1.000  H
  N45      1.0000 0.60880  0.08830  0.44280  Biso   1.000  N
  N46      1.0000 0.89120  0.91170  0.94280  Biso   1.000  N
  N47      1.0000 0.10880  0.41170  0.55720  Biso   1.000  N
  N48      1.0000 0.39120  0.58830  0.05720  Biso   1.000  N
  C29      1.0000 0.51780  0.14500  0.47650  Biso   1.000  C
  C30      1.0000 0.98220  0.85500  0.97650  Biso   1.000  C
  C31      1.0000 0.01780  0.35500  0.52350  Biso   1.000  C
  C32      1.0000 0.48220  0.64500  0.02350  Biso   1.000  C
  H37      1.0000 0.43950  0.17570  0.45610  Biso   1.000  H
  H38      1.0000 0.06050  0.82430  0.95610  Biso   1.000  H
  H39      1.0000 0.93950  0.32430  0.54390  Biso   1.000  H
  H40      1.0000 0.56050  0.67570  0.04390  Biso   1.000  H
  N49      1.0000 0.46520  0.15520  0.66590  Biso   1.000  N
  N50      1.0000 0.03480  0.84480  0.16590  Biso   1.000  N
  N51      1.0000 0.96520  0.34480  0.33410  Biso   1.000  N
  N52      1.0000 0.53480  0.65520  0.83410  Biso   1.000  N
  N53      1.0000 0.57650  0.10000  0.69190  Biso   1.000  N
  N54      1.0000 0.92350  0.90000  0.19190  Biso   1.000  N
  N55      1.0000 0.07650  0.40000  0.30810  Biso   1.000  N
  N56      1.0000 0.42350  0.60000  0.80810  Biso   1.000  N
  C33      1.0000 0.53150  0.07460  0.75310  Biso   1.000  C
  C34      1.0000 0.96850  0.92540  0.25310  Biso   1.000  C
  C35      1.0000 0.03150  0.42540  0.24690  Biso   1.000  C
  C36      1.0000 0.46850  0.57460  0.74690  Biso   1.000  C
  H41      1.0000 0.58560  0.03610  0.78320  Biso   1.000  H
  H42      1.0000 0.91440  0.96390  0.28320  Biso   1.000  H
  H43      1.0000 0.08560  0.46390  0.21680  Biso   1.000  H
  H44      1.0000 0.41440  0.53610  0.71680  Biso   1.000  H
  N57      1.0000 0.40100  0.10850  0.76900  Biso   1.000  N
  N58      1.0000 0.09900  0.89150  0.26900  Biso   1.000  N
  N59      1.0000 0.90100  0.39150  0.23100  Biso   1.000  N
  N60      1.0000 0.59900  0.60850  0.73100  Biso   1.000  N
  C37      1.0000 0.36190  0.15990  0.71260  Biso   1.000  C
  C38      1.0000 0.13810  0.84010  0.21260  Biso   1.000  C
  C39      1.0000 0.86190  0.34010  0.28740  Biso   1.000  C
  C40      1.0000 0.63810  0.65990  0.78740  Biso   1.000  C
  H45      1.0000 0.27580  0.19360  0.70720  Biso   1.000  H
  H46      1.0000 0.22420  0.80640  0.20720  Biso   1.000  H
  H47      1.0000 0.77580  0.30640  0.29280  Biso   1.000  H
  H48      1.0000 0.72420  0.69360  0.79280  Biso   1.000  H
  N61      1.0000 0.57960  0.30560  0.61630  Biso   1.000  N
  N62      1.0000 0.92040  0.69440  0.11630  Biso   1.000  N
  N63      1.0000 0.07960  0.19440  0.38370  Biso   1.000  N
  N64      1.0000 0.42040  0.80560  0.88370  Biso   1.000  N
  N65      1.0000 0.71450  0.29030  0.64310  Biso   1.000  N
  N66      1.0000 0.78550  0.70970  0.14310  Biso   1.000  N
  N67      1.0000 0.21450  0.20970  0.35690  Biso   1.000  N
  N68      1.0000 0.28550  0.79030  0.85690  Biso   1.000  N
  C41      1.0000 0.76010  0.38090  0.65450  Biso   1.000  C
  C42      1.0000 0.73990  0.61910  0.15450  Biso   1.000  C
  C43      1.0000 0.26010  0.11910  0.34550  Biso   1.000  C
  C44      1.0000 0.23990  0.88090  0.84550  Biso   1.000  C
  H49      1.0000 0.84930  0.39430  0.67340  Biso   1.000  H
  H50      1.0000 0.65070  0.60570  0.17340  Biso   1.000  H
  H51      1.0000 0.34930  0.10570  0.32660  Biso   1.000  H
  H52      1.0000 0.15070  0.89430  0.82660  Biso   1.000  H
  N69      1.0000 0.66700  0.45320  0.63640  Biso   1.000  N
  N70      1.0000 0.83300  0.54680  0.13640  Biso   1.000  N
  N71      1.0000 0.16700  0.04680  0.36360  Biso   1.000  N
  N72      1.0000 0.33300  0.95320  0.86360  Biso   1.000  N
  C45      1.0000 0.55490  0.40260  0.61280  Biso   1.000  C
  C46      1.0000 0.94510  0.59740  0.11280  Biso   1.000  C
  C47      1.0000 0.05490  0.09740  0.38720  Biso   1.000  C
  C48      1.0000 0.44510  0.90260  0.88720  Biso   1.000  C
  H53      1.0000 0.47110  0.43110  0.59630  Biso   1.000  H
  H54      1.0000 0.02890  0.56890  0.09630  Biso   1.000  H
  H55      1.0000 0.97110  0.06890  0.40370  Biso   1.000  H
  H56      1.0000 0.52890  0.93110  0.90370  Biso   1.000  H
  O1       1.0000 0.58970  0.19890  0.31010  Biso   1.000  O
  O2       1.0000 0.91030  0.80110  0.81010  Biso   1.000  O
  O3       1.0000 0.08970  0.30110  0.68990  Biso   1.000  O
  O4       1.0000 0.41030  0.69890  0.18990  Biso   1.000  O
  O5       1.0000 0.12980  0.18110  0.17810  Biso   1.000  O
  O6       1.0000 0.37020  0.81890  0.67810  Biso   1.000  O
  O7       1.0000 0.62980  0.31890  0.82190  Biso   1.000  O
  O8       1.0000 0.87020  0.68110  0.32190  Biso   1.000  O
  O9       1.0000 0.71560  0.12290  0.30810  Biso   1.000  O
  O10      1.0000 0.78440  0.87710  0.80810  Biso   1.000  O
  O11      1.0000 0.21560  0.37710  0.69190  Biso   1.000  O
  O12      1.0000 0.28440  0.62290  0.19190  Biso   1.000  O
  O13      1.0000 0.19500  0.10850  0.19120  Biso   1.000  O
  O14      1.0000 0.30500  0.89150  0.69120  Biso   1.000  O
  O15      1.0000 0.69500  0.39150  0.80880  Biso   1.000  O
  O16      1.0000 0.80500  0.60850  0.30880  Biso   1.000  O
