data_image0
_cell_length_a       10.562
_cell_length_b       15.663
_cell_length_c       11.476
_cell_angle_alpha    90
_cell_angle_beta     93.57
_cell_angle_gamma    90

_symmetry_space_group_name_H-M    "P 1"
_symmetry_int_tables_number       1

loop_
  _symmetry_equiv_pos_as_xyz
  'x, y, z'

loop_
  _atom_site_label
  _atom_site_occupancy
  _atom_site_fract_x
  _atom_site_fract_y
  _atom_site_fract_z
  _atom_site_thermal_displace_type
  _atom_site_B_iso_or_equiv
  _atom_site_type_symbol
  Cu1      1.0000 0.99681  0.06248  0.09569  Biso   1.000  Cu
  Cu2      1.0000 0.50319  0.56248  0.40431  Biso   1.000  Cu
  Cu3      1.0000 0.00319  0.93752  0.90431  Biso   1.000  Cu
  Cu4      1.0000 0.49681  0.43752  0.59569  Biso   1.000  Cu
  Cu5      1.0000 0.40988  0.05623  0.54946  Biso   1.000  Cu
  Cu6      1.0000 0.09012  0.55623  0.95054  Biso   1.000  Cu
  Cu7      1.0000 0.59012  0.94377  0.45054  Biso   1.000  Cu
  Cu8      1.0000 0.90988  0.44377  0.04946  Biso   1.000  Cu
  B1       1.0000 0.15380  0.16870  0.53910  Biso   1.000  B
  B2       1.0000 0.34620  0.66870  0.96090  Biso   1.000  B
  B3       1.0000 0.84620  0.83130  0.46090  Biso   1.000  B
  B4       1.0000 0.65380  0.33130  0.03910  Biso   1.000  B
  N1       1.0000 0.15470  0.12960  0.41740  Biso   1.000  N
  N2       1.0000 0.34530  0.62960  0.08260  Biso   1.000  N
  N3       1.0000 0.84530  0.87040  0.58260  Biso   1.000  N
  N4       1.0000 0.65470  0.37040  0.91740  Biso   1.000  N
  N5       1.0000 0.25190  0.07930  0.38670  Biso   1.000  N
  N6       1.0000 0.24810  0.57930  0.11330  Biso   1.000  N
  N7       1.0000 0.74810  0.92070  0.61330  Biso   1.000  N
  N8       1.0000 0.75190  0.42070  0.88670  Biso   1.000  N
  C1       1.0000 0.22360  0.06030  0.27710  Biso   1.000  C
  C2       1.0000 0.27640  0.56030  0.22290  Biso   1.000  C
  C3       1.0000 0.77640  0.93970  0.72290  Biso   1.000  C
  C4       1.0000 0.72360  0.43970  0.77710  Biso   1.000  C
  N9       1.0000 0.11010  0.09430  0.23530  Biso   1.000  N
  N10      1.0000 0.38990  0.59430  0.26470  Biso   1.000  N
  N11      1.0000 0.88990  0.90570  0.76470  Biso   1.000  N
  N12      1.0000 0.61010  0.40570  0.73530  Biso   1.000  N
  C5       1.0000 0.07310  0.13730  0.32680  Biso   1.000  C
  C6       1.0000 0.42690  0.63730  0.17320  Biso   1.000  C
  C7       1.0000 0.92690  0.86270  0.67320  Biso   1.000  C
  C8       1.0000 0.57310  0.36270  0.82680  Biso   1.000  C
  N13      1.0000 0.27620  0.22150  0.56290  Biso   1.000  N
  N14      1.0000 0.22380  0.72150  0.93710  Biso   1.000  N
  N15      1.0000 0.72380  0.77850  0.43710  Biso   1.000  N
  N16      1.0000 0.77620  0.27850  0.06290  Biso   1.000  N
  N17      1.0000 0.39350  0.18390  0.56890  Biso   1.000  N
  N18      1.0000 0.10650  0.68390  0.93110  Biso   1.000  N
  N19      1.0000 0.60650  0.81610  0.43110  Biso   1.000  N
  N20      1.0000 0.89350  0.31610  0.06890  Biso   1.000  N
  C9       1.0000 0.47240  0.24690  0.58630  Biso   1.000  C
  C10      1.0000 0.02760  0.74690  0.91370  Biso   1.000  C
  C11      1.0000 0.52760  0.75310  0.41370  Biso   1.000  C
  C12      1.0000 0.97240  0.25310  0.08630  Biso   1.000  C
  N21      1.0000 0.41520  0.32260  0.59220  Biso   1.000  N
  N22      1.0000 0.08480  0.82260  0.90780  Biso   1.000  N
  N23      1.0000 0.58480  0.67740  0.40780  Biso   1.000  N
  N24      1.0000 0.91520  0.17740  0.09220  Biso   1.000  N
  C13      1.0000 0.29180  0.30360  0.57570  Biso   1.000  C
  C14      1.0000 0.20820  0.80360  0.92430  Biso   1.000  C
  C15      1.0000 0.70820  0.69640  0.42430  Biso   1.000  C
  C16      1.0000 0.79180  0.19640  0.07570  Biso   1.000  C
  N25      1.0000 0.15770  0.09640  0.63040  Biso   1.000  N
  N26      1.0000 0.34230  0.59640  0.86960  Biso   1.000  N
  N27      1.0000 0.84230  0.90360  0.36960  Biso   1.000  N
  N28      1.0000 0.65770  0.40360  0.13040  Biso   1.000  N
  N29      1.0000 0.25720  0.04040  0.64020  Biso   1.000  N
  N30      1.0000 0.24280  0.54040  0.85980  Biso   1.000  N
  N31      1.0000 0.74280  0.95960  0.35980  Biso   1.000  N
  N32      1.0000 0.75720  0.45960  0.14020  Biso   1.000  N
  C17      1.0000 0.23210  0.98870  0.72610  Biso   1.000  C
  C18      1.0000 0.26790  0.48870  0.77390  Biso   1.000  C
  C19      1.0000 0.76790  0.01130  0.27390  Biso   1.000  C
  C20      1.0000 0.73210  0.51130  0.22610  Biso   1.000  C
  N33      1.0000 0.12070  0.00750  0.77210  Biso   1.000  N
  N34      1.0000 0.37930  0.50750  0.72790  Biso   1.000  N
  N35      1.0000 0.87930  0.99250  0.22790  Biso   1.000  N
  N36      1.0000 0.62070  0.49250  0.27210  Biso   1.000  N
  C21      1.0000 0.07770  0.07480  0.70950  Biso   1.000  C
  C22      1.0000 0.42230  0.57480  0.79050  Biso   1.000  C
  C23      1.0000 0.92230  0.92520  0.29050  Biso   1.000  C
  C24      1.0000 0.57770  0.42520  0.20950  Biso   1.000  C
  O1       1.0000 0.10660  0.97250  0.04270  Biso   1.000  O
  O2       1.0000 0.39340  0.47250  0.45730  Biso   1.000  O
  O3       1.0000 0.89340  0.02750  0.95730  Biso   1.000  O
  O4       1.0000 0.60660  0.52750  0.54270  Biso   1.000  O
  O5       1.0000 0.56290  0.06550  0.46590  Biso   1.000  O
  O6       1.0000 0.93710  0.56550  0.03410  Biso   1.000  O
  O7       1.0000 0.43710  0.93450  0.53410  Biso   1.000  O
  O8       1.0000 0.06290  0.43450  0.96590  Biso   1.000  O
  H1       1.0000 0.08500  0.20720  0.54000  Biso   1.000  H
  H2       1.0000 0.41500  0.70720  0.96000  Biso   1.000  H
  H3       1.0000 0.91500  0.79280  0.46000  Biso   1.000  H
  H4       1.0000 0.58500  0.29280  0.04000  Biso   1.000  H
  H5       1.0000 0.28500  0.03740  0.22440  Biso   1.000  H
  H6       1.0000 0.21500  0.53740  0.27560  Biso   1.000  H
  H7       1.0000 0.71500  0.96260  0.77560  Biso   1.000  H
  H8       1.0000 0.78500  0.46260  0.72440  Biso   1.000  H
  H9       1.0000 0.00800  0.16430  0.33070  Biso   1.000  H
  H10      1.0000 0.49200  0.66430  0.16930  Biso   1.000  H
  H11      1.0000 0.99200  0.83570  0.66930  Biso   1.000  H
  H12      1.0000 0.50800  0.33570  0.83070  Biso   1.000  H
  H13      1.0000 0.53500  0.24500  0.58200  Biso   1.000  H
  H14      1.0000 0.96500  0.74500  0.91800  Biso   1.000  H
  H15      1.0000 0.46500  0.75500  0.41800  Biso   1.000  H
  H16      1.0000 0.03500  0.25500  0.08200  Biso   1.000  H
  H17      1.0000 0.21640  0.34810  0.58810  Biso   1.000  H
  H18      1.0000 0.28360  0.84810  0.91190  Biso   1.000  H
  H19      1.0000 0.78360  0.65190  0.41190  Biso   1.000  H
  H20      1.0000 0.71640  0.15190  0.08810  Biso   1.000  H
  H21      1.0000 0.27200  0.93380  0.75290  Biso   1.000  H
  H22      1.0000 0.22800  0.43380  0.74710  Biso   1.000  H
  H23      1.0000 0.72800  0.06620  0.24710  Biso   1.000  H
  H24      1.0000 0.77200  0.56620  0.25290  Biso   1.000  H
  H25      1.0000 0.98900  0.09600  0.71600  Biso   1.000  H
  H26      1.0000 0.51100  0.59600  0.78400  Biso   1.000  H
  H27      1.0000 0.01100  0.90400  0.28400  Biso   1.000  H
  H28      1.0000 0.48900  0.40400  0.21600  Biso   1.000  H
  O9       1.0000 0.79570  0.26470  0.35560  Biso   1.000  O
  O10      1.0000 0.70430  0.76470  0.14440  Biso   1.000  O
  O11      1.0000 0.20430  0.73530  0.64440  Biso   1.000  O
  O12      1.0000 0.29570  0.23530  0.85560  Biso   1.000  O
  H29      1.0000 0.76330  0.28930  0.39860  Biso   1.000  H
  H30      1.0000 0.73670  0.78930  0.10140  Biso   1.000  H
  H31      1.0000 0.23670  0.71070  0.60140  Biso   1.000  H
  H32      1.0000 0.26330  0.21070  0.89860  Biso   1.000  H
  H33      1.0000 0.77100  0.22230  0.38620  Biso   1.000  H
  H34      1.0000 0.72900  0.72230  0.11380  Biso   1.000  H
  H35      1.0000 0.22900  0.77770  0.61380  Biso   1.000  H
  H36      1.0000 0.27100  0.27770  0.88620  Biso   1.000  H
  O13      1.0000 0.53370  0.19250  0.29290  Biso   1.000  O
  O14      1.0000 0.96630  0.69250  0.20710  Biso   1.000  O
  O15      1.0000 0.46630  0.80750  0.70710  Biso   1.000  O
  O16      1.0000 0.03370  0.30750  0.79290  Biso   1.000  O
  H37      1.0000 0.46180  0.21850  0.28950  Biso   1.000  H
  H38      1.0000 0.03820  0.71850  0.21050  Biso   1.000  H
  H39      1.0000 0.53820  0.78150  0.71050  Biso   1.000  H
  H40      1.0000 0.96180  0.28150  0.78950  Biso   1.000  H
  H41      1.0000 0.50820  0.15780  0.22190  Biso   1.000  H
  H42      1.0000 0.99180  0.65780  0.27810  Biso   1.000  H
  H43      1.0000 0.49180  0.84220  0.77810  Biso   1.000  H
  H44      1.0000 0.00820  0.34220  0.72190  Biso   1.000  H
  O17      1.0000 0.79380  0.13880  0.53180  Biso   1.000  O
  O18      1.0000 0.70620  0.63880  0.96820  Biso   1.000  O
  O19      1.0000 0.20620  0.86120  0.46820  Biso   1.000  O
  O20      1.0000 0.29380  0.36120  0.03180  Biso   1.000  O
  H45      1.0000 0.71300  0.11120  0.52620  Biso   1.000  H
  H46      1.0000 0.78700  0.61120  0.97380  Biso   1.000  H
  H47      1.0000 0.28700  0.88880  0.47380  Biso   1.000  H
  H48      1.0000 0.21300  0.38880  0.02620  Biso   1.000  H
  H49      1.0000 0.78090  0.16520  0.59660  Biso   1.000  H
  H50      1.0000 0.71910  0.66520  0.90340  Biso   1.000  H
  H51      1.0000 0.21910  0.83480  0.40340  Biso   1.000  H
  H52      1.0000 0.28090  0.33480  0.09660  Biso   1.000  H
  O21      1.0000 0.51710  0.09140  0.10770  Biso   1.000  O
  O22      1.0000 0.98290  0.59140  0.39230  Biso   1.000  O
  O23      1.0000 0.48290  0.90860  0.89230  Biso   1.000  O
  O24      1.0000 0.01710  0.40860  0.60770  Biso   1.000  O
  H53      1.0000 0.48500  0.03140  0.12230  Biso   1.000  H
  H54      1.0000 0.01500  0.53140  0.37770  Biso   1.000  H
  H55      1.0000 0.51500  0.96860  0.87770  Biso   1.000  H
  H56      1.0000 0.98500  0.46860  0.62230  Biso   1.000  H
  O25      1.0000 0.53100  0.07970  0.78270  Biso   1.000  O
  O26      1.0000 0.96900  0.57970  0.71730  Biso   1.000  O
  O27      1.0000 0.46900  0.92030  0.21730  Biso   1.000  O
  O28      1.0000 0.03100  0.42030  0.28270  Biso   1.000  O
  H57      1.0000 0.57990  0.13900  0.83500  Biso   1.000  H
  H58      1.0000 0.92010  0.63900  0.66500  Biso   1.000  H
  H59      1.0000 0.42010  0.86100  0.16500  Biso   1.000  H
  H60      1.0000 0.07990  0.36100  0.33500  Biso   1.000  H
  H61      1.0000 0.49390  0.12000  0.86580  Biso   1.000  H
  H62      1.0000 0.00610  0.62000  0.63420  Biso   1.000  H
  H63      1.0000 0.50610  0.88000  0.13420  Biso   1.000  H
  H64      1.0000 0.99390  0.38000  0.36580  Biso   1.000  H
  O29      1.0000 0.30880  0.08280  0.96500  Biso   1.000  O
  O30      1.0000 0.19120  0.58280  0.53500  Biso   1.000  O
  O31      1.0000 0.69120  0.91720  0.03500  Biso   1.000  O
  O32      1.0000 0.80880  0.41720  0.46500  Biso   1.000  O
  H65      1.0000 0.25420  0.13550  0.99810  Biso   1.000  H
  H66      1.0000 0.24580  0.63550  0.50190  Biso   1.000  H
  H67      1.0000 0.74580  0.86450  0.00190  Biso   1.000  H
  H68      1.0000 0.75420  0.36450  0.49810  Biso   1.000  H
  H69      1.0000 0.39110  0.09250  0.02140  Biso   1.000  H
  H70      1.0000 0.10890  0.59250  0.47860  Biso   1.000  H
  H71      1.0000 0.60890  0.90750  0.97860  Biso   1.000  H
  H72      1.0000 0.89110  0.40750  0.52140  Biso   1.000  H
  Cl1      1.0000 0.79270  0.18120  0.78930  Biso   1.000  Cl
  Cl2      1.0000 0.70730  0.68120  0.71070  Biso   1.000  Cl
  Cl3      1.0000 0.20730  0.81880  0.21070  Biso   1.000  Cl
  Cl4      1.0000 0.29270  0.31880  0.28930  Biso   1.000  Cl
  Cu9      1.0000 0.36560  0.02060  0.49710  Biso   1.000  Cu
  Cu10     1.0000 0.13440  0.52060  0.00290  Biso   1.000  Cu
  Cu11     1.0000 0.63440  0.97940  0.50290  Biso   1.000  Cu
  Cu12     1.0000 0.86560  0.47940  0.99710  Biso   1.000  Cu
  O33      1.0000 0.33770  0.02180  0.01680  Biso   1.000  O
  O34      1.0000 0.16230  0.52180  0.48320  Biso   1.000  O
  O35      1.0000 0.66230  0.97820  0.98320  Biso   1.000  O
  O36      1.0000 0.83770  0.47820  0.51680  Biso   1.000  O
  H73      1.0000 0.03530  0.97770  0.07910  Biso   1.000  H
  H74      1.0000 0.46470  0.47770  0.42090  Biso   1.000  H
  H75      1.0000 0.96470  0.02230  0.92090  Biso   1.000  H
  H76      1.0000 0.53530  0.52230  0.57910  Biso   1.000  H
  H77      1.0000 0.50570  0.02390  0.39190  Biso   1.000  H
  H78      1.0000 0.99430  0.52390  0.10810  Biso   1.000  H
  H79      1.0000 0.49430  0.97610  0.60810  Biso   1.000  H
  H80      1.0000 0.00570  0.47610  0.89190  Biso   1.000  H
  H81      1.0000 0.62210  0.02400  0.98760  Biso   1.000  H
  H82      1.0000 0.87790  0.52400  0.51240  Biso   1.000  H
  H83      1.0000 0.37790  0.97600  0.01240  Biso   1.000  H
  H84      1.0000 0.12210  0.47600  0.48760  Biso   1.000  H
  H85      1.0000 0.57520  0.15270  0.81850  Biso   1.000  H
  H86      1.0000 0.92480  0.65270  0.68150  Biso   1.000  H
  H87      1.0000 0.42480  0.84730  0.18150  Biso   1.000  H
  H88      1.0000 0.07520  0.34730  0.31850  Biso   1.000  H
  H89      1.0000 0.58240  0.06740  0.86000  Biso   1.000  H
  H90      1.0000 0.91760  0.56740  0.64000  Biso   1.000  H
  H91      1.0000 0.41760  0.93260  0.14000  Biso   1.000  H
  H92      1.0000 0.08240  0.43260  0.36000  Biso   1.000  H
