data_image0
_cell_length_a       9.8902
_cell_length_b       11.0855
_cell_length_c       11.7897
_cell_angle_alpha    78.819
_cell_angle_beta     65.294
_cell_angle_gamma    73.048

_symmetry_space_group_name_H-M    "P 1"
_symmetry_int_tables_number       1

loop_
  _symmetry_equiv_pos_as_xyz
  'x, y, z'

loop_
  _atom_site_label
  _atom_site_occupancy
  _atom_site_fract_x
  _atom_site_fract_y
  _atom_site_fract_z
  _atom_site_thermal_displace_type
  _atom_site_B_iso_or_equiv
  _atom_site_type_symbol
  Cu1      1.0000 0.36327  0.99894  0.50760  Biso   1.000  Cu
  Cu2      1.0000 0.63673  0.00106  0.49240  Biso   1.000  Cu
  F1       1.0000 0.58574  0.83771  0.91046  Biso   1.000  F
  F2       1.0000 0.41426  0.16229  0.08954  Biso   1.000  F
  F3       1.0000 0.26530  0.53371  0.11919  Biso   1.000  F
  F4       1.0000 0.73470  0.46629  0.88081  Biso   1.000  F
  O1       1.0000 0.47451  0.92605  0.34467  Biso   1.000  O
  O2       1.0000 0.52549  0.07395  0.65533  Biso   1.000  O
  O3       1.0000 0.70756  0.92759  0.33178  Biso   1.000  O
  O4       1.0000 0.29244  0.07241  0.66822  Biso   1.000  O
  O5       1.0000 0.92879  0.73491  0.19645  Biso   1.000  O
  O6       1.0000 0.07121  0.26509  0.80355  Biso   1.000  O
  O7       1.0000 0.76350  0.63412  0.35476  Biso   1.000  O
  O8       1.0000 0.23650  0.36588  0.64524  Biso   1.000  O
  O9       1.0000 0.35935  0.16957  0.42120  Biso   1.000  O
  O10      1.0000 0.64065  0.83043  0.57880  Biso   1.000  O
  O11      1.0000 0.59211  0.17085  0.40936  Biso   1.000  O
  O12      1.0000 0.40789  0.82915  0.59064  Biso   1.000  O
  O13      1.0000 0.60957  0.41166  0.40610  Biso   1.000  O
  O14      1.0000 0.39043  0.58834  0.59390  Biso   1.000  O
  O15      1.0000 0.83070  0.34630  0.24493  Biso   1.000  O
  O16      1.0000 0.16930  0.65370  0.75507  Biso   1.000  O
  N1       1.0000 0.78680  0.08860  0.87900  Biso   1.000  N
  N2       1.0000 0.21320  0.91140  0.12100  Biso   1.000  N
  C1       1.0000 0.98050  0.66450  0.37870  Biso   1.000  C
  C2       1.0000 0.01950  0.33550  0.62130  Biso   1.000  C
  H1       1.0000 0.91950  0.69600  0.46180  Biso   1.000  H
  H2       1.0000 0.08050  0.30400  0.53820  Biso   1.000  H
  H3       1.0000 0.05530  0.71540  0.32990  Biso   1.000  H
  H4       1.0000 0.94470  0.28460  0.67010  Biso   1.000  H
  H5       1.0000 0.03430  0.57590  0.38790  Biso   1.000  H
  H6       1.0000 0.96570  0.42410  0.61210  Biso   1.000  H
  C3       1.0000 0.61890  0.90280  0.29190  Biso   1.000  C
  C4       1.0000 0.38110  0.09720  0.70810  Biso   1.000  C
  C5       1.0000 0.68830  0.84130  0.17100  Biso   1.000  C
  C6       1.0000 0.31170  0.15870  0.82900  Biso   1.000  C
  C7       1.0000 0.60330  0.86460  0.09670  Biso   1.000  C
  C8       1.0000 0.39670  0.13540  0.90330  Biso   1.000  C
  H7       1.0000 0.50220  0.91680  0.12320  Biso   1.000  H
  H8       1.0000 0.49780  0.08320  0.87680  Biso   1.000  H
  C9       1.0000 0.66790  0.81090  0.98430  Biso   1.000  C
  C10      1.0000 0.33210  0.18910  0.01570  Biso   1.000  C
  C11      1.0000 0.81230  0.73120  0.94230  Biso   1.000  C
  C12      1.0000 0.18770  0.26880  0.05770  Biso   1.000  C
  H9       1.0000 0.85350  0.69570  0.86420  Biso   1.000  H
  H10      1.0000 0.14650  0.30430  0.13580  Biso   1.000  H
  C13      1.0000 0.89510  0.70470  0.01790  Biso   1.000  C
  C14      1.0000 0.10490  0.29530  0.98210  Biso   1.000  C
  H11      1.0000 0.99340  0.64810  0.99310  Biso   1.000  H
  H12      1.0000 0.00660  0.35190  0.00690  Biso   1.000  H
  C15      1.0000 0.83470  0.76050  0.12930  Biso   1.000  C
  C16      1.0000 0.16530  0.23950  0.87070  Biso   1.000  C
  C17      1.0000 0.87760  0.67370  0.31300  Biso   1.000  C
  C18      1.0000 0.12240  0.32630  0.68700  Biso   1.000  C
  C19      1.0000 0.46950  0.22120  0.39190  Biso   1.000  C
  C20      1.0000 0.53050  0.77880  0.60810  Biso   1.000  C
  C21      1.0000 0.45420  0.35100  0.32520  Biso   1.000  C
  C22      1.0000 0.54580  0.64900  0.67480  Biso   1.000  C
  C23      1.0000 0.36250  0.38540  0.25470  Biso   1.000  C
  C24      1.0000 0.63750  0.61460  0.74530  Biso   1.000  C
  H13      1.0000 0.30750  0.32900  0.25280  Biso   1.000  H
  H14      1.0000 0.69250  0.67100  0.74720  Biso   1.000  H
  C25      1.0000 0.35350  0.50190  0.18840  Biso   1.000  C
  C26      1.0000 0.64650  0.49810  0.81160  Biso   1.000  C
  C27      1.0000 0.42780  0.58890  0.19090  Biso   1.000  C
  C28      1.0000 0.57220  0.41110  0.80910  Biso   1.000  C
  H15      1.0000 0.41870  0.66910  0.14440  Biso   1.000  H
  H16      1.0000 0.58130  0.33090  0.85560  Biso   1.000  H
  C29      1.0000 0.51580  0.55650  0.26260  Biso   1.000  C
  C30      1.0000 0.48420  0.44350  0.73740  Biso   1.000  C
  H17      1.0000 0.56710  0.61490  0.26680  Biso   1.000  H
  H18      1.0000 0.43290  0.38510  0.73320  Biso   1.000  H
  C31      1.0000 0.52870  0.43840  0.32820  Biso   1.000  C
  C32      1.0000 0.47130  0.56160  0.67180  Biso   1.000  C
  C33      1.0000 0.76250  0.36250  0.35340  Biso   1.000  C
  C34      1.0000 0.23750  0.63750  0.64660  Biso   1.000  C
  C35      1.0000 0.82820  0.33470  0.45150  Biso   1.000  C
  C36      1.0000 0.17180  0.66530  0.54850  Biso   1.000  C
  H19      1.0000 0.93910  0.30080  0.41320  Biso   1.000  H
  H20      1.0000 0.06090  0.69920  0.58680  Biso   1.000  H
  H21      1.0000 0.78140  0.27220  0.51610  Biso   1.000  H
  H22      1.0000 0.21860  0.72780  0.48390  Biso   1.000  H
  H23      1.0000 0.80710  0.41270  0.48960  Biso   1.000  H
  H24      1.0000 0.19290  0.58730  0.51040  Biso   1.000  H
  C37      1.0000 0.78440  0.12230  0.96540  Biso   1.000  C
  C38      1.0000 0.21560  0.87770  0.03460  Biso   1.000  C
  C39      1.0000 0.77620  0.16690  0.07640  Biso   1.000  C
  C40      1.0000 0.22380  0.83310  0.92360  Biso   1.000  C
  H25      1.0000 0.75350  0.25960  0.06810  Biso   1.000  H
  H26      1.0000 0.24650  0.74040  0.93190  Biso   1.000  H
  H27      1.0000 0.87450  0.13300  0.08590  Biso   1.000  H
  H28      1.0000 0.12550  0.86700  0.91410  Biso   1.000  H
  H29      1.0000 0.69500  0.13830  0.15020  Biso   1.000  H
  H30      1.0000 0.30500  0.86170  0.84980  Biso   1.000  H
  N3       1.0000 0.13810  0.99976  0.50584  Biso   1.000  N
  N4       1.0000 0.86190  0.00024  0.49416  Biso   1.000  N
  C41      1.0000 0.01280  0.99540  0.60940  Biso   1.000  C
  C42      1.0000 0.98720  0.00460  0.39060  Biso   1.000  C
  H31      1.0000 0.01770  0.99220  0.68870  Biso   1.000  H
  H32      1.0000 0.98230  0.00780  0.31130  Biso   1.000  H
  C43      1.0000 0.12510  0.00470  0.39620  Biso   1.000  C
  C44      1.0000 0.87490  0.99530  0.60380  Biso   1.000  C
  H33      1.0000 0.21210  0.00820  0.32050  Biso   1.000  H
  H34      1.0000 0.78790  0.99180  0.67950  Biso   1.000  H
