data_image0
_cell_length_a       11.152
_cell_length_b       11.152
_cell_length_c       5.586
_cell_angle_alpha    90
_cell_angle_beta     90
_cell_angle_gamma    90

_symmetry_space_group_name_H-M    "P 1"
_symmetry_int_tables_number       1

loop_
  _symmetry_equiv_pos_as_xyz
  'x, y, z'

loop_
  _atom_site_label
  _atom_site_occupancy
  _atom_site_fract_x
  _atom_site_fract_y
  _atom_site_fract_z
  _atom_site_thermal_displace_type
  _atom_site_B_iso_or_equiv
  _atom_site_type_symbol
  Cu1      1.0000 0.50000  0.50000  0.99900  Biso   1.000  Cu
  Cl1      1.0000 0.50000  0.50000  0.53410  Biso   1.000  Cl
  N1       1.0000 0.31720  0.49980  0.02050  Biso   1.000  N
  N2       1.0000 0.50020  0.31720  0.02050  Biso   1.000  N
  N3       1.0000 0.68280  0.50020  0.02050  Biso   1.000  N
  N4       1.0000 0.49980  0.68280  0.02050  Biso   1.000  N
  C1       1.0000 0.06840  0.50160  0.05030  Biso   1.000  C
  C2       1.0000 0.49840  0.06840  0.05030  Biso   1.000  C
  C3       1.0000 0.93160  0.49840  0.05030  Biso   1.000  C
  C4       1.0000 0.50160  0.93160  0.05030  Biso   1.000  C
  C5       1.0000 0.25110  0.43280  0.86750  Biso   1.000  C
  C6       1.0000 0.56720  0.25110  0.86750  Biso   1.000  C
  C7       1.0000 0.74890  0.56720  0.86750  Biso   1.000  C
  C8       1.0000 0.43280  0.74890  0.86750  Biso   1.000  C
  H1       1.0000 0.29020  0.38450  0.75110  Biso   1.000  H
  H2       1.0000 0.61550  0.29020  0.75110  Biso   1.000  H
  H3       1.0000 0.70980  0.61550  0.75110  Biso   1.000  H
  H4       1.0000 0.38450  0.70980  0.75110  Biso   1.000  H
  C9       1.0000 0.25960  0.56650  0.18120  Biso   1.000  C
  C10      1.0000 0.43350  0.25960  0.18120  Biso   1.000  C
  C11      1.0000 0.74040  0.43350  0.18120  Biso   1.000  C
  C12      1.0000 0.56650  0.74040  0.18120  Biso   1.000  C
  H5       1.0000 0.30600  0.61450  0.28670  Biso   1.000  H
  H6       1.0000 0.38550  0.30600  0.28670  Biso   1.000  H
  H7       1.0000 0.69400  0.38550  0.28670  Biso   1.000  H
  H8       1.0000 0.61450  0.69400  0.28670  Biso   1.000  H
  C13      1.0000 0.12870  0.43400  0.87880  Biso   1.000  C
  C14      1.0000 0.56600  0.12870  0.87880  Biso   1.000  C
  C15      1.0000 0.87130  0.56600  0.87880  Biso   1.000  C
  C16      1.0000 0.43400  0.87130  0.87880  Biso   1.000  C
  H9       1.0000 0.08380  0.38780  0.76740  Biso   1.000  H
  H10      1.0000 0.61220  0.08380  0.76740  Biso   1.000  H
  H11      1.0000 0.91620  0.61220  0.76740  Biso   1.000  H
  H12      1.0000 0.38780  0.91620  0.76740  Biso   1.000  H
  C17      1.0000 0.13650  0.57000  0.20360  Biso   1.000  C
  C18      1.0000 0.43000  0.13650  0.20360  Biso   1.000  C
  C19      1.0000 0.86350  0.43000  0.20360  Biso   1.000  C
  C20      1.0000 0.57000  0.86350  0.20360  Biso   1.000  C
  O1       1.0000 0.16450  0.69170  0.54700  Biso   1.000  O
  O2       1.0000 0.30830  0.16450  0.54700  Biso   1.000  O
  O3       1.0000 0.83550  0.30830  0.54700  Biso   1.000  O
  O4       1.0000 0.69170  0.83550  0.54700  Biso   1.000  O
  H13      1.0000 0.13040  0.73880  0.64260  Biso   1.000  H
  H14      1.0000 0.26120  0.13040  0.64260  Biso   1.000  H
  H15      1.0000 0.86960  0.26120  0.64260  Biso   1.000  H
  H16      1.0000 0.73880  0.86960  0.64260  Biso   1.000  H
  O5       1.0000 0.98180  0.68010  0.39310  Biso   1.000  O
  O6       1.0000 0.31990  0.98180  0.39310  Biso   1.000  O
  O7       1.0000 0.01820  0.31990  0.39310  Biso   1.000  O
  O8       1.0000 0.68010  0.01820  0.39310  Biso   1.000  O
  C21      1.0000 0.08840  0.65490  0.39080  Biso   1.000  C
  C22      1.0000 0.34510  0.08840  0.39080  Biso   1.000  C
  C23      1.0000 0.91160  0.34510  0.39080  Biso   1.000  C
  C24      1.0000 0.65490  0.91160  0.39080  Biso   1.000  C
  O9       1.0000 0.09060  0.84450  0.89500  Biso   1.000  O
  O10      1.0000 0.15550  0.09060  0.89500  Biso   1.000  O
  O11      1.0000 0.90940  0.15550  0.89500  Biso   1.000  O
  O12      1.0000 0.84450  0.90940  0.89500  Biso   1.000  O
  Cl2      1.0000 0.00000  0.00000  0.37300  Biso   1.000  Cl
