data_image0
_cell_length_a       4.7572
_cell_length_b       7.4134
_cell_length_c       13.909
_cell_angle_alpha    81.59
_cell_angle_beta     81
_cell_angle_gamma    77.03

_symmetry_space_group_name_H-M    "P 1"
_symmetry_int_tables_number       1

loop_
  _symmetry_equiv_pos_as_xyz
  'x, y, z'

loop_
  _atom_site_label
  _atom_site_occupancy
  _atom_site_fract_x
  _atom_site_fract_y
  _atom_site_fract_z
  _atom_site_thermal_displace_type
  _atom_site_B_iso_or_equiv
  _atom_site_type_symbol
  C1       1.0000 0.06480  0.78760  0.43527  Biso   1.000  C
  C2       1.0000 0.93520  0.21240  0.56473  Biso   1.000  C
  C3       1.0000 0.90950  0.93670  0.38067  Biso   1.000  C
  C4       1.0000 0.09050  0.06330  0.61933  Biso   1.000  C
  H1       1.0000 0.72270  0.00020  0.40660  Biso   1.000  H
  H2       1.0000 0.27730  0.99980  0.59340  Biso   1.000  H
  C5       1.0000 0.03390  0.99140  0.28662  Biso   1.000  C
  C6       1.0000 0.96610  0.00860  0.71338  Biso   1.000  C
  H3       1.0000 0.93180  0.09330  0.24730  Biso   1.000  H
  H4       1.0000 0.06820  0.90670  0.75270  Biso   1.000  H
  C7       1.0000 0.30890  0.89640  0.25012  Biso   1.000  C
  C8       1.0000 0.69110  0.10360  0.74988  Biso   1.000  C
  C9       1.0000 0.45300  0.74920  0.31070  Biso   1.000  C
  C10      1.0000 0.54700  0.25080  0.68930  Biso   1.000  C
  H5       1.0000 0.64120  0.68450  0.28690  Biso   1.000  H
  H6       1.0000 0.35880  0.31550  0.71310  Biso   1.000  H
  C11      1.0000 0.95150  0.70670  0.53641  Biso   1.000  C
  C12      1.0000 0.04850  0.29330  0.46359  Biso   1.000  C
  C13      1.0000 0.44780  0.95400  0.14868  Biso   1.000  C
  C14      1.0000 0.55220  0.04600  0.85132  Biso   1.000  C
  N1       1.0000 0.33500  0.69610  0.40101  Biso   1.000  N
  N2       1.0000 0.66500  0.30390  0.59899  Biso   1.000  N
  O1       1.0000 0.13360  0.57960  0.58067  Biso   1.000  O
  O2       1.0000 0.86640  0.42040  0.41933  Biso   1.000  O
  O3       1.0000 0.69360  0.76070  0.56951  Biso   1.000  O
  O4       1.0000 0.30640  0.23930  0.43049  Biso   1.000  O
  O5       1.0000 0.71860  0.89040  0.12732  Biso   1.000  O
  O6       1.0000 0.28140  0.10960  0.87268  Biso   1.000  O
  O7       1.0000 0.28760  0.06400  0.09208  Biso   1.000  O
  O8       1.0000 0.71240  0.93600  0.90792  Biso   1.000  O
  O9       1.0000 0.28010  0.72330  0.99244  Biso   1.000  O
  O10      1.0000 0.71990  0.27670  0.00756  Biso   1.000  O
  Mn1      1.0000 0.00000  0.00000  0.00000  Biso   1.000  Mn
  Cu1      1.0000 0.50000  0.50000  0.50000  Biso   1.000  Cu
  O11      1.0000 0.38470  0.34990  0.22433  Biso   1.000  O
  O12      1.0000 0.61530  0.65010  0.77567  Biso   1.000  O
  O13      1.0000 0.88400  0.48040  0.13569  Biso   1.000  O
  O14      1.0000 0.11600  0.51960  0.86431  Biso   1.000  O
  H7       1.0000 0.23600  0.65600  0.96600  Biso   1.000  H
  H8       1.0000 0.76400  0.34400  0.03400  Biso   1.000  H
  H9       1.0000 0.43400  0.75200  0.96600  Biso   1.000  H
  H10      1.0000 0.56600  0.24800  0.03400  Biso   1.000  H
  H11      1.0000 0.37000  0.33700  0.27600  Biso   1.000  H
  H12      1.0000 0.63000  0.66300  0.72400  Biso   1.000  H
  H13      1.0000 0.51300  0.40400  0.21000  Biso   1.000  H
  H14      1.0000 0.48700  0.59600  0.79000  Biso   1.000  H
  H15      1.0000 0.03900  0.44300  0.16200  Biso   1.000  H
  H16      1.0000 0.96100  0.55700  0.83800  Biso   1.000  H
  H17      1.0000 0.88400  0.57700  0.12200  Biso   1.000  H
  H18      1.0000 0.11600  0.42300  0.87800  Biso   1.000  H
