data_image0
_cell_length_a       13.645
_cell_length_b       13.683
_cell_length_c       17.964
_cell_angle_alpha    90
_cell_angle_beta     90.649
_cell_angle_gamma    90

_symmetry_space_group_name_H-M    "P 1"
_symmetry_int_tables_number       1

loop_
  _symmetry_equiv_pos_as_xyz
  'x, y, z'

loop_
  _atom_site_label
  _atom_site_occupancy
  _atom_site_fract_x
  _atom_site_fract_y
  _atom_site_fract_z
  _atom_site_thermal_displace_type
  _atom_site_B_iso_or_equiv
  _atom_site_type_symbol
  Cu1      1.0000 0.29384  0.12013  0.34625  Biso   1.000  Cu
  Cu2      1.0000 0.70616  0.62013  0.15375  Biso   1.000  Cu
  Cu3      1.0000 0.70616  0.87987  0.65375  Biso   1.000  Cu
  Cu4      1.0000 0.29384  0.37987  0.84625  Biso   1.000  Cu
  O1       1.0000 0.64430  0.18350  0.43300  Biso   1.000  O
  O2       1.0000 0.35570  0.68350  0.06700  Biso   1.000  O
  O3       1.0000 0.35570  0.81650  0.56700  Biso   1.000  O
  O4       1.0000 0.64430  0.31650  0.93300  Biso   1.000  O
  N1       1.0000 0.39080  0.01730  0.37790  Biso   1.000  N
  N2       1.0000 0.60920  0.51730  0.12210  Biso   1.000  N
  N3       1.0000 0.60920  0.98270  0.62210  Biso   1.000  N
  N4       1.0000 0.39080  0.48270  0.87790  Biso   1.000  N
  N5       1.0000 0.40690  0.20760  0.37150  Biso   1.000  N
  N6       1.0000 0.59310  0.70760  0.12850  Biso   1.000  N
  N7       1.0000 0.59310  0.79240  0.62850  Biso   1.000  N
  N8       1.0000 0.40690  0.29240  0.87150  Biso   1.000  N
  N9       1.0000 0.56240  0.21530  0.40800  Biso   1.000  N
  N10      1.0000 0.43760  0.71530  0.09200  Biso   1.000  N
  N11      1.0000 0.43760  0.78470  0.59200  Biso   1.000  N
  N12      1.0000 0.56240  0.28470  0.90800  Biso   1.000  N
  N13      1.0000 0.18740  0.02240  0.31670  Biso   1.000  N
  N14      1.0000 0.81260  0.52240  0.18330  Biso   1.000  N
  N15      1.0000 0.81260  0.97760  0.68330  Biso   1.000  N
  N16      1.0000 0.18740  0.47760  0.81670  Biso   1.000  N
  N17      1.0000 0.80160  0.72340  0.18680  Biso   1.000  N
  N18      1.0000 0.19840  0.22340  0.31320  Biso   1.000  N
  N19      1.0000 0.19840  0.27660  0.81320  Biso   1.000  N
  N20      1.0000 0.80160  0.77660  0.68680  Biso   1.000  N
  C1       1.0000 0.37640  0.91960  0.37990  Biso   1.000  C
  C2       1.0000 0.62360  0.41960  0.12010  Biso   1.000  C
  C3       1.0000 0.62360  0.08040  0.62010  Biso   1.000  C
  C4       1.0000 0.37640  0.58040  0.87990  Biso   1.000  C
  H1       1.0000 0.31380  0.89550  0.37030  Biso   1.000  H
  H2       1.0000 0.68620  0.39550  0.12970  Biso   1.000  H
  H3       1.0000 0.68620  0.10450  0.62970  Biso   1.000  H
  H4       1.0000 0.31380  0.60450  0.87030  Biso   1.000  H
  C5       1.0000 0.44990  0.85490  0.39540  Biso   1.000  C
  C6       1.0000 0.55010  0.35490  0.10460  Biso   1.000  C
  C7       1.0000 0.55010  0.14510  0.60460  Biso   1.000  C
  C8       1.0000 0.44990  0.64510  0.89540  Biso   1.000  C
  H5       1.0000 0.43820  0.78800  0.39480  Biso   1.000  H
  H6       1.0000 0.56180  0.28800  0.10520  Biso   1.000  H
  H7       1.0000 0.56180  0.21200  0.60520  Biso   1.000  H
  H8       1.0000 0.43820  0.71200  0.89480  Biso   1.000  H
  C9       1.0000 0.54170  0.89100  0.41200  Biso   1.000  C
  C10      1.0000 0.45830  0.39100  0.08800  Biso   1.000  C
  C11      1.0000 0.45830  0.10900  0.58800  Biso   1.000  C
  C12      1.0000 0.54170  0.60900  0.91200  Biso   1.000  C
  H9       1.0000 0.59280  0.84820  0.42300  Biso   1.000  H
  H10      1.0000 0.40720  0.34820  0.07700  Biso   1.000  H
  H11      1.0000 0.40720  0.15180  0.57700  Biso   1.000  H
  H12      1.0000 0.59280  0.65180  0.92300  Biso   1.000  H
  C13      1.0000 0.55830  0.99110  0.41240  Biso   1.000  C
  C14      1.0000 0.44170  0.49110  0.08760  Biso   1.000  C
  C15      1.0000 0.44170  0.00890  0.58760  Biso   1.000  C
  C16      1.0000 0.55830  0.50890  0.91240  Biso   1.000  C
  H13      1.0000 0.62010  0.01600  0.42360  Biso   1.000  H
  H14      1.0000 0.37990  0.51600  0.07640  Biso   1.000  H
  H15      1.0000 0.37990  0.98400  0.57640  Biso   1.000  H
  H16      1.0000 0.62010  0.48400  0.92360  Biso   1.000  H
  C17      1.0000 0.48110  0.05260  0.39580  Biso   1.000  C
  C18      1.0000 0.51890  0.55260  0.10420  Biso   1.000  C
  C19      1.0000 0.51890  0.94740  0.60420  Biso   1.000  C
  C20      1.0000 0.48110  0.44740  0.89580  Biso   1.000  C
  C21      1.0000 0.48310  0.15890  0.39160  Biso   1.000  C
  C22      1.0000 0.51690  0.65890  0.10840  Biso   1.000  C
  C23      1.0000 0.51690  0.84110  0.60840  Biso   1.000  C
  C24      1.0000 0.48310  0.34110  0.89160  Biso   1.000  C
  C25      1.0000 0.54220  0.31750  0.38640  Biso   1.000  C
  C26      1.0000 0.45780  0.81750  0.11360  Biso   1.000  C
  C27      1.0000 0.45780  0.68250  0.61360  Biso   1.000  C
  C28      1.0000 0.54220  0.18250  0.88640  Biso   1.000  C
  C29      1.0000 0.59320  0.32920  0.31040  Biso   1.000  C
  C30      1.0000 0.40680  0.82920  0.18960  Biso   1.000  C
  C31      1.0000 0.40680  0.67080  0.68960  Biso   1.000  C
  C32      1.0000 0.59320  0.17080  0.81040  Biso   1.000  C
  C33      1.0000 0.59250  0.39100  0.43900  Biso   1.000  C
  C34      1.0000 0.40750  0.89100  0.06100  Biso   1.000  C
  C35      1.0000 0.40750  0.60900  0.56100  Biso   1.000  C
  C36      1.0000 0.59250  0.10900  0.93900  Biso   1.000  C
  C37      1.0000 0.58900  0.31500  0.30910  Biso   1.000  C
  C38      1.0000 0.41100  0.81500  0.19090  Biso   1.000  C
  C39      1.0000 0.41100  0.68500  0.69090  Biso   1.000  C
  C40      1.0000 0.58900  0.18500  0.80910  Biso   1.000  C
  C41      1.0000 0.55700  0.37200  0.46090  Biso   1.000  C
  C42      1.0000 0.44300  0.87200  0.03910  Biso   1.000  C
  C43      1.0000 0.44300  0.62800  0.53910  Biso   1.000  C
  C44      1.0000 0.55700  0.12800  0.96090  Biso   1.000  C
  C45      1.0000 0.43250  0.31480  0.37410  Biso   1.000  C
  C46      1.0000 0.56750  0.81480  0.12590  Biso   1.000  C
  C47      1.0000 0.56750  0.68520  0.62590  Biso   1.000  C
  C48      1.0000 0.43250  0.18520  0.87410  Biso   1.000  C
  C49      1.0000 0.39340  0.36570  0.30660  Biso   1.000  C
  C50      1.0000 0.60660  0.86570  0.19340  Biso   1.000  C
  C51      1.0000 0.60660  0.63430  0.69340  Biso   1.000  C
  C52      1.0000 0.39340  0.13430  0.80660  Biso   1.000  C
  H17      1.0000 0.42790  0.34350  0.26350  Biso   1.000  H
  H18      1.0000 0.57210  0.84350  0.23650  Biso   1.000  H
  H19      1.0000 0.57210  0.65650  0.73650  Biso   1.000  H
  H20      1.0000 0.42790  0.15650  0.76350  Biso   1.000  H
  H21      1.0000 0.40230  0.43500  0.31210  Biso   1.000  H
  H22      1.0000 0.59770  0.93500  0.18790  Biso   1.000  H
  H23      1.0000 0.59770  0.56500  0.68790  Biso   1.000  H
  H24      1.0000 0.40230  0.06500  0.81210  Biso   1.000  H
  H25      1.0000 0.32480  0.35150  0.30080  Biso   1.000  H
  H26      1.0000 0.67520  0.85150  0.19920  Biso   1.000  H
  H27      1.0000 0.67520  0.64850  0.69920  Biso   1.000  H
  H28      1.0000 0.32480  0.14850  0.80080  Biso   1.000  H
  C53      1.0000 0.37320  0.35200  0.44440  Biso   1.000  C
  C54      1.0000 0.62680  0.85200  0.05560  Biso   1.000  C
  C55      1.0000 0.62680  0.64800  0.55560  Biso   1.000  C
  C56      1.0000 0.37320  0.14800  0.94440  Biso   1.000  C
  H29      1.0000 0.39800  0.32040  0.48840  Biso   1.000  H
  H30      1.0000 0.60200  0.82040  0.01160  Biso   1.000  H
  H31      1.0000 0.60200  0.67960  0.51160  Biso   1.000  H
  H32      1.0000 0.39800  0.17960  0.98840  Biso   1.000  H
  H33      1.0000 0.30500  0.33660  0.43780  Biso   1.000  H
  H34      1.0000 0.69500  0.83660  0.06220  Biso   1.000  H
  H35      1.0000 0.69500  0.66340  0.56220  Biso   1.000  H
  H36      1.0000 0.30500  0.16340  0.93780  Biso   1.000  H
  H37      1.0000 0.38090  0.42140  0.44930  Biso   1.000  H
  H38      1.0000 0.61910  0.92140  0.05070  Biso   1.000  H
  H39      1.0000 0.61910  0.57860  0.55070  Biso   1.000  H
  H40      1.0000 0.38090  0.07860  0.94930  Biso   1.000  H
  C57      1.0000 0.10960  0.00760  0.35890  Biso   1.000  C
  C58      1.0000 0.89040  0.50760  0.14110  Biso   1.000  C
  C59      1.0000 0.89040  0.99240  0.64110  Biso   1.000  C
  C60      1.0000 0.10960  0.49240  0.85890  Biso   1.000  C
  H41      1.0000 0.10690  0.03650  0.40570  Biso   1.000  H
  H42      1.0000 0.89310  0.53650  0.09430  Biso   1.000  H
  H43      1.0000 0.89310  0.96350  0.59430  Biso   1.000  H
  H44      1.0000 0.10690  0.46350  0.90570  Biso   1.000  H
  C61      1.0000 0.03190  0.94940  0.33430  Biso   1.000  C
  C62      1.0000 0.96810  0.44940  0.16570  Biso   1.000  C
  C63      1.0000 0.96810  0.05060  0.66570  Biso   1.000  C
  C64      1.0000 0.03190  0.55060  0.83430  Biso   1.000  C
  H45      1.0000 0.97790  0.94030  0.36470  Biso   1.000  H
  H46      1.0000 0.02210  0.44030  0.13530  Biso   1.000  H
  H47      1.0000 0.02210  0.05970  0.63530  Biso   1.000  H
  H48      1.0000 0.97790  0.55970  0.86470  Biso   1.000  H
  C65      1.0000 0.03440  0.90530  0.26550  Biso   1.000  C
  C66      1.0000 0.96560  0.40530  0.23450  Biso   1.000  C
  C67      1.0000 0.96560  0.09470  0.73450  Biso   1.000  C
  C68      1.0000 0.03440  0.59470  0.76550  Biso   1.000  C
  C69      1.0000 0.11760  0.92050  0.22290  Biso   1.000  C
  C70      1.0000 0.88240  0.42050  0.27710  Biso   1.000  C
  C71      1.0000 0.88240  0.07950  0.77710  Biso   1.000  C
  C72      1.0000 0.11760  0.57950  0.72290  Biso   1.000  C
  H49      1.0000 0.12250  0.89230  0.17600  Biso   1.000  H
  H50      1.0000 0.87750  0.39230  0.32400  Biso   1.000  H
  H51      1.0000 0.87750  0.10770  0.82400  Biso   1.000  H
  H52      1.0000 0.12250  0.60770  0.67600  Biso   1.000  H
  C73      1.0000 0.19290  0.97780  0.25070  Biso   1.000  C
  C74      1.0000 0.80710  0.47780  0.24930  Biso   1.000  C
  C75      1.0000 0.80710  0.02220  0.74930  Biso   1.000  C
  C76      1.0000 0.19290  0.52220  0.75070  Biso   1.000  C
  H53      1.0000 0.24910  0.98550  0.22250  Biso   1.000  H
  H54      1.0000 0.75090  0.48550  0.27750  Biso   1.000  H
  H55      1.0000 0.75090  0.01450  0.77750  Biso   1.000  H
  H56      1.0000 0.24910  0.51450  0.72250  Biso   1.000  H
  C77      1.0000 0.95270  0.84130  0.23910  Biso   1.000  C
  C78      1.0000 0.04730  0.34130  0.26090  Biso   1.000  C
  C79      1.0000 0.04730  0.15870  0.76090  Biso   1.000  C
  C80      1.0000 0.95270  0.65870  0.73910  Biso   1.000  C
  C81      1.0000 0.89040  0.79910  0.28740  Biso   1.000  C
  C82      1.0000 0.10960  0.29910  0.21260  Biso   1.000  C
  C83      1.0000 0.10960  0.20090  0.71260  Biso   1.000  C
  C84      1.0000 0.89040  0.70090  0.78740  Biso   1.000  C
  H57      1.0000 0.89820  0.80850  0.33840  Biso   1.000  H
  H58      1.0000 0.10180  0.30850  0.16160  Biso   1.000  H
  H59      1.0000 0.10180  0.19150  0.66160  Biso   1.000  H
  H60      1.0000 0.89820  0.69150  0.83840  Biso   1.000  H
  C85      1.0000 0.81440  0.74110  0.25950  Biso   1.000  C
  C86      1.0000 0.18560  0.24110  0.24050  Biso   1.000  C
  C87      1.0000 0.18560  0.25890  0.74050  Biso   1.000  C
  C88      1.0000 0.81440  0.75890  0.75950  Biso   1.000  C
  C89      1.0000 0.86430  0.76430  0.14130  Biso   1.000  C
  C90      1.0000 0.13570  0.26430  0.35870  Biso   1.000  C
  C91      1.0000 0.13570  0.23570  0.85870  Biso   1.000  C
  C92      1.0000 0.86430  0.73570  0.64130  Biso   1.000  C
  H61      1.0000 0.85770  0.75050  0.09080  Biso   1.000  H
  H62      1.0000 0.14230  0.25050  0.40920  Biso   1.000  H
  H63      1.0000 0.14230  0.24950  0.90920  Biso   1.000  H
  H64      1.0000 0.85770  0.74950  0.59080  Biso   1.000  H
  C93      1.0000 0.93850  0.82580  0.16290  Biso   1.000  C
  C94      1.0000 0.06150  0.32580  0.33710  Biso   1.000  C
  C95      1.0000 0.06150  0.17420  0.83710  Biso   1.000  C
  C96      1.0000 0.93850  0.67420  0.66290  Biso   1.000  C
  H65      1.0000 0.97800  0.85620  0.12800  Biso   1.000  H
  H66      1.0000 0.02200  0.35620  0.37200  Biso   1.000  H
  H67      1.0000 0.02200  0.14380  0.87200  Biso   1.000  H
  H68      1.0000 0.97800  0.64380  0.62800  Biso   1.000  H
  N21      1.0000 0.19280  0.11590  0.52580  Biso   1.000  N
  N22      1.0000 0.80720  0.61590  0.97420  Biso   1.000  N
  N23      1.0000 0.80720  0.88410  0.47420  Biso   1.000  N
  N24      1.0000 0.19280  0.38410  0.02580  Biso   1.000  N
  O5       1.0000 0.25230  0.11990  0.47720  Biso   1.000  O
  O6       1.0000 0.74770  0.61990  0.02280  Biso   1.000  O
  O7       1.0000 0.74770  0.88010  0.52280  Biso   1.000  O
  O8       1.0000 0.25230  0.38010  0.97720  Biso   1.000  O
  O9       1.0000 0.20800  0.07000  0.58290  Biso   1.000  O
  O10      1.0000 0.79200  0.57000  0.91710  Biso   1.000  O
  O11      1.0000 0.79200  0.93000  0.41710  Biso   1.000  O
  O12      1.0000 0.20800  0.43000  0.08290  Biso   1.000  O
  O13      1.0000 0.11170  0.14830  0.52240  Biso   1.000  O
  O14      1.0000 0.88830  0.64830  0.97760  Biso   1.000  O
  O15      1.0000 0.88830  0.85170  0.47760  Biso   1.000  O
  O16      1.0000 0.11170  0.35170  0.02240  Biso   1.000  O
  N25      1.0000 0.44050  0.12180  0.17890  Biso   1.000  N
  N26      1.0000 0.55950  0.62180  0.32110  Biso   1.000  N
  N27      1.0000 0.55950  0.87820  0.82110  Biso   1.000  N
  N28      1.0000 0.44050  0.37820  0.67890  Biso   1.000  N
  O17      1.0000 0.37600  0.08860  0.22270  Biso   1.000  O
  O18      1.0000 0.62400  0.58860  0.27730  Biso   1.000  O
  O19      1.0000 0.62400  0.91140  0.77730  Biso   1.000  O
  O20      1.0000 0.37600  0.41140  0.72270  Biso   1.000  O
  O21      1.0000 0.51320  0.11160  0.21920  Biso   1.000  O
  O22      1.0000 0.48680  0.61160  0.28080  Biso   1.000  O
  O23      1.0000 0.48680  0.88840  0.78080  Biso   1.000  O
  O24      1.0000 0.51320  0.38840  0.71920  Biso   1.000  O
  O25      1.0000 0.38590  0.16770  0.13950  Biso   1.000  O
  O26      1.0000 0.61410  0.66770  0.36050  Biso   1.000  O
  O27      1.0000 0.61410  0.83230  0.86050  Biso   1.000  O
  O28      1.0000 0.38590  0.33230  0.63950  Biso   1.000  O
  O29      1.0000 0.12460  0.74400  0.00170  Biso   1.000  O
  O30      1.0000 0.87540  0.24400  0.49830  Biso   1.000  O
  O31      1.0000 0.87540  0.25600  0.99830  Biso   1.000  O
  O32      1.0000 0.12460  0.75600  0.50170  Biso   1.000  O
  O33      1.0000 0.14930  0.00900  0.02000  Biso   1.000  O
  O34      1.0000 0.85070  0.50900  0.48000  Biso   1.000  O
  O35      1.0000 0.85070  0.99100  0.98000  Biso   1.000  O
  O36      1.0000 0.14930  0.49100  0.52000  Biso   1.000  O
  O37      1.0000 0.12720  0.87000  0.03120  Biso   1.000  O
  O38      1.0000 0.87280  0.37000  0.46880  Biso   1.000  O
  O39      1.0000 0.87280  0.13000  0.96880  Biso   1.000  O
  O40      1.0000 0.12720  0.63000  0.53120  Biso   1.000  O
