data_image0
_cell_length_a       6.7493
_cell_length_b       10.667
_cell_length_c       6.3102
_cell_angle_alpha    90
_cell_angle_beta     106.81
_cell_angle_gamma    90

_symmetry_space_group_name_H-M    "P 1"
_symmetry_int_tables_number       1

loop_
  _symmetry_equiv_pos_as_xyz
  'x, y, z'

loop_
  _atom_site_label
  _atom_site_occupancy
  _atom_site_fract_x
  _atom_site_fract_y
  _atom_site_fract_z
  _atom_site_thermal_displace_type
  _atom_site_B_iso_or_equiv
  _atom_site_type_symbol
  Cu1      1.0000 0.00000  0.00000  0.00000  Biso   1.000  Cu
  Cu2      1.0000 0.00000  0.50000  0.50000  Biso   1.000  Cu
  Cl1      1.0000 0.07455  0.86010  0.27510  Biso   1.000  Cl
  Cl2      1.0000 0.92545  0.36010  0.22490  Biso   1.000  Cl
  Cl3      1.0000 0.92545  0.13990  0.72490  Biso   1.000  Cl
  Cl4      1.0000 0.07455  0.63990  0.77510  Biso   1.000  Cl
  N1       1.0000 0.29780  0.00396  0.00360  Biso   1.000  N
  N2       1.0000 0.70220  0.50396  0.49640  Biso   1.000  N
  N3       1.0000 0.70220  0.99604  0.99640  Biso   1.000  N
  N4       1.0000 0.29780  0.49604  0.50360  Biso   1.000  N
  C1       1.0000 0.37950  0.14740  0.32060  Biso   1.000  C
  C2       1.0000 0.62050  0.64740  0.17940  Biso   1.000  C
  C3       1.0000 0.62050  0.85260  0.67940  Biso   1.000  C
  C4       1.0000 0.37950  0.35260  0.82060  Biso   1.000  C
  H1       1.0000 0.23340  0.13870  0.29900  Biso   1.000  H
  H2       1.0000 0.76660  0.63870  0.20100  Biso   1.000  H
  H3       1.0000 0.76660  0.86130  0.70100  Biso   1.000  H
  H4       1.0000 0.23340  0.36130  0.79900  Biso   1.000  H
  H5       1.0000 0.41160  0.23370  0.30250  Biso   1.000  H
  H6       1.0000 0.58840  0.73370  0.19750  Biso   1.000  H
  H7       1.0000 0.58840  0.76630  0.69750  Biso   1.000  H
  H8       1.0000 0.41160  0.26630  0.80250  Biso   1.000  H
  H9       1.0000 0.45330  0.12010  0.46710  Biso   1.000  H
  H10      1.0000 0.54670  0.62010  0.03290  Biso   1.000  H
  H11      1.0000 0.54670  0.87990  0.53290  Biso   1.000  H
  H12      1.0000 0.45330  0.37990  0.96710  Biso   1.000  H
  C5       1.0000 0.35390  0.93620  0.85260  Biso   1.000  C
  C6       1.0000 0.64610  0.43620  0.64740  Biso   1.000  C
  C7       1.0000 0.64610  0.06380  0.14740  Biso   1.000  C
  C8       1.0000 0.35390  0.56380  0.35260  Biso   1.000  C
  H13      1.0000 0.25350  0.89090  0.74870  Biso   1.000  H
  H14      1.0000 0.74650  0.39090  0.75130  Biso   1.000  H
  H15      1.0000 0.74650  0.10910  0.25130  Biso   1.000  H
  H16      1.0000 0.25350  0.60910  0.24870  Biso   1.000  H
  C9       1.0000 0.44210  0.06880  0.15380  Biso   1.000  C
  C10      1.0000 0.55790  0.56880  0.34620  Biso   1.000  C
  C11      1.0000 0.55790  0.93120  0.84620  Biso   1.000  C
  C12      1.0000 0.44210  0.43120  0.65380  Biso   1.000  C
