data_image0
_cell_length_a       21.919
_cell_length_b       7.827
_cell_length_c       11.191
_cell_angle_alpha    90
_cell_angle_beta     101.8
_cell_angle_gamma    90

_symmetry_space_group_name_H-M    "P 1"
_symmetry_int_tables_number       1

loop_
  _symmetry_equiv_pos_as_xyz
  'x, y, z'

loop_
  _atom_site_label
  _atom_site_occupancy
  _atom_site_fract_x
  _atom_site_fract_y
  _atom_site_fract_z
  _atom_site_thermal_displace_type
  _atom_site_B_iso_or_equiv
  _atom_site_type_symbol
  Cu1      1.0000 0.00000  0.37180  0.25000  Biso   1.000  Cu
  Cu2      1.0000 0.50000  0.87180  0.25000  Biso   1.000  Cu
  Cu3      1.0000 0.00000  0.62820  0.75000  Biso   1.000  Cu
  Cu4      1.0000 0.50000  0.12820  0.75000  Biso   1.000  Cu
  Rb1      1.0000 0.44720  0.29060  0.39760  Biso   1.000  Rb
  Rb2      1.0000 0.94720  0.79060  0.39760  Biso   1.000  Rb
  Rb3      1.0000 0.55280  0.29060  0.10240  Biso   1.000  Rb
  Rb4      1.0000 0.05280  0.79060  0.10240  Biso   1.000  Rb
  Rb5      1.0000 0.55280  0.70940  0.60240  Biso   1.000  Rb
  Rb6      1.0000 0.05280  0.20940  0.60240  Biso   1.000  Rb
  Rb7      1.0000 0.44720  0.70940  0.89760  Biso   1.000  Rb
  Rb8      1.0000 0.94720  0.20940  0.89760  Biso   1.000  Rb
  O1       1.0000 0.93430  0.65760  0.14360  Biso   1.000  O
  O2       1.0000 0.43430  0.15760  0.14360  Biso   1.000  O
  O3       1.0000 0.06570  0.65760  0.35640  Biso   1.000  O
  O4       1.0000 0.56570  0.15760  0.35640  Biso   1.000  O
  O5       1.0000 0.06570  0.34240  0.85640  Biso   1.000  O
  O6       1.0000 0.56570  0.84240  0.85640  Biso   1.000  O
  O7       1.0000 0.93430  0.34240  0.64360  Biso   1.000  O
  O8       1.0000 0.43430  0.84240  0.64360  Biso   1.000  O
  O9       1.0000 0.92670  0.37560  0.11540  Biso   1.000  O
  O10      1.0000 0.42670  0.87560  0.11540  Biso   1.000  O
  O11      1.0000 0.07330  0.37560  0.38460  Biso   1.000  O
  O12      1.0000 0.57330  0.87560  0.38460  Biso   1.000  O
  O13      1.0000 0.07330  0.62440  0.88460  Biso   1.000  O
  O14      1.0000 0.57330  0.12440  0.88460  Biso   1.000  O
  O15      1.0000 0.92670  0.62440  0.61540  Biso   1.000  O
  O16      1.0000 0.42670  0.12440  0.61540  Biso   1.000  O
  O17      1.0000 0.94650  0.62140  0.86620  Biso   1.000  O
  O18      1.0000 0.44650  0.12140  0.86620  Biso   1.000  O
  O19      1.0000 0.05350  0.62140  0.63380  Biso   1.000  O
  O20      1.0000 0.55350  0.12140  0.63380  Biso   1.000  O
  O21      1.0000 0.05350  0.37860  0.13380  Biso   1.000  O
  O22      1.0000 0.55350  0.87860  0.13380  Biso   1.000  O
  O23      1.0000 0.94650  0.37860  0.36620  Biso   1.000  O
  O24      1.0000 0.44650  0.87860  0.36620  Biso   1.000  O
  O25      1.0000 0.89900  0.86790  0.80840  Biso   1.000  O
  O26      1.0000 0.39900  0.36790  0.80840  Biso   1.000  O
  O27      1.0000 0.10100  0.86790  0.69160  Biso   1.000  O
  O28      1.0000 0.60100  0.36790  0.69160  Biso   1.000  O
  O29      1.0000 0.10100  0.13210  0.19160  Biso   1.000  O
  O30      1.0000 0.60100  0.63210  0.19160  Biso   1.000  O
  O31      1.0000 0.89900  0.13210  0.30840  Biso   1.000  O
  O32      1.0000 0.39900  0.63210  0.30840  Biso   1.000  O
  O33      1.0000 0.06560  0.00150  0.40120  Biso   1.000  O
  O34      1.0000 0.56560  0.50150  0.40120  Biso   1.000  O
  O35      1.0000 0.93440  0.00150  0.09880  Biso   1.000  O
  O36      1.0000 0.43440  0.50150  0.09880  Biso   1.000  O
  O37      1.0000 0.93440  0.99850  0.59880  Biso   1.000  O
  O38      1.0000 0.43440  0.49850  0.59880  Biso   1.000  O
  O39      1.0000 0.06560  0.99850  0.90120  Biso   1.000  O
  O40      1.0000 0.56560  0.49850  0.90120  Biso   1.000  O
  C1       1.0000 0.84750  0.55140  0.99730  Biso   1.000  C
  C2       1.0000 0.34750  0.05140  0.99730  Biso   1.000  C
  C3       1.0000 0.15250  0.55140  0.50270  Biso   1.000  C
  C4       1.0000 0.65250  0.05140  0.50270  Biso   1.000  C
  C5       1.0000 0.15250  0.44860  0.00270  Biso   1.000  C
  C6       1.0000 0.65250  0.94860  0.00270  Biso   1.000  C
  C7       1.0000 0.84750  0.44860  0.49730  Biso   1.000  C
  C8       1.0000 0.34750  0.94860  0.49730  Biso   1.000  C
  C9       1.0000 0.84380  0.66100  0.89810  Biso   1.000  C
  C10      1.0000 0.34380  0.16100  0.89810  Biso   1.000  C
  C11      1.0000 0.15620  0.66100  0.60190  Biso   1.000  C
  C12      1.0000 0.65620  0.16100  0.60190  Biso   1.000  C
  C13      1.0000 0.15620  0.33900  0.10190  Biso   1.000  C
  C14      1.0000 0.65620  0.83900  0.10190  Biso   1.000  C
  C15      1.0000 0.84380  0.33900  0.39810  Biso   1.000  C
  C16      1.0000 0.34380  0.83900  0.39810  Biso   1.000  C
  C17      1.0000 0.78510  0.69930  0.82740  Biso   1.000  C
  C18      1.0000 0.28510  0.19930  0.82740  Biso   1.000  C
  C19      1.0000 0.21490  0.69930  0.67260  Biso   1.000  C
  C20      1.0000 0.71490  0.19930  0.67260  Biso   1.000  C
  C21      1.0000 0.21490  0.30070  0.17260  Biso   1.000  C
  C22      1.0000 0.71490  0.80070  0.17260  Biso   1.000  C
  C23      1.0000 0.78510  0.30070  0.32740  Biso   1.000  C
  C24      1.0000 0.28510  0.80070  0.32740  Biso   1.000  C
  C25      1.0000 0.73240  0.62020  0.85340  Biso   1.000  C
  C26      1.0000 0.23240  0.12020  0.85340  Biso   1.000  C
  C27      1.0000 0.26760  0.62020  0.64660  Biso   1.000  C
  C28      1.0000 0.76760  0.12020  0.64660  Biso   1.000  C
  C29      1.0000 0.26760  0.37980  0.14660  Biso   1.000  C
  C30      1.0000 0.76760  0.87980  0.14660  Biso   1.000  C
  C31      1.0000 0.73240  0.37980  0.35340  Biso   1.000  C
  C32      1.0000 0.23240  0.87980  0.35340  Biso   1.000  C
  C33      1.0000 0.73680  0.51100  0.95200  Biso   1.000  C
  C34      1.0000 0.23680  0.01100  0.95200  Biso   1.000  C
  C35      1.0000 0.26320  0.51100  0.54800  Biso   1.000  C
  C36      1.0000 0.76320  0.01100  0.54800  Biso   1.000  C
  C37      1.0000 0.26320  0.48900  0.04800  Biso   1.000  C
  C38      1.0000 0.76320  0.98900  0.04800  Biso   1.000  C
  C39      1.0000 0.73680  0.48900  0.45200  Biso   1.000  C
  C40      1.0000 0.23680  0.98900  0.45200  Biso   1.000  C
  C41      1.0000 0.79530  0.47480  0.02380  Biso   1.000  C
  C42      1.0000 0.29530  0.97480  0.02380  Biso   1.000  C
  C43      1.0000 0.20470  0.47480  0.47620  Biso   1.000  C
  C44      1.0000 0.70470  0.97480  0.47620  Biso   1.000  C
  C45      1.0000 0.20470  0.52520  0.97620  Biso   1.000  C
  C46      1.0000 0.70470  0.02520  0.97620  Biso   1.000  C
  C47      1.0000 0.79530  0.52520  0.52380  Biso   1.000  C
  C48      1.0000 0.29530  0.02520  0.52380  Biso   1.000  C
  C49      1.0000 0.90840  0.52740  0.09160  Biso   1.000  C
  C50      1.0000 0.40840  0.02740  0.09160  Biso   1.000  C
  C51      1.0000 0.09160  0.52740  0.40840  Biso   1.000  C
  C52      1.0000 0.59160  0.02740  0.40840  Biso   1.000  C
  C53      1.0000 0.09160  0.47260  0.90840  Biso   1.000  C
  C54      1.0000 0.59160  0.97260  0.90840  Biso   1.000  C
  C55      1.0000 0.90840  0.47260  0.59160  Biso   1.000  C
  C56      1.0000 0.40840  0.97260  0.59160  Biso   1.000  C
  C57      1.0000 0.90060  0.72700  0.85570  Biso   1.000  C
  C58      1.0000 0.40060  0.22700  0.85570  Biso   1.000  C
  C59      1.0000 0.09940  0.72700  0.64430  Biso   1.000  C
  C60      1.0000 0.59940  0.22700  0.64430  Biso   1.000  C
  C61      1.0000 0.09940  0.27300  0.14430  Biso   1.000  C
  C62      1.0000 0.59940  0.77300  0.14430  Biso   1.000  C
  C63      1.0000 0.90060  0.27300  0.35570  Biso   1.000  C
  C64      1.0000 0.40060  0.77300  0.35570  Biso   1.000  C
  H1       1.0000 0.78100  0.78200  0.75300  Biso   1.000  H
  H2       1.0000 0.28100  0.28200  0.75300  Biso   1.000  H
  H3       1.0000 0.21900  0.78200  0.74700  Biso   1.000  H
  H4       1.0000 0.71900  0.28200  0.74700  Biso   1.000  H
  H5       1.0000 0.21900  0.21800  0.24700  Biso   1.000  H
  H6       1.0000 0.71900  0.71800  0.24700  Biso   1.000  H
  H7       1.0000 0.78100  0.21800  0.25300  Biso   1.000  H
  H8       1.0000 0.28100  0.71800  0.25300  Biso   1.000  H
  H9       1.0000 0.69800  0.63100  0.79800  Biso   1.000  H
  H10      1.0000 0.19800  0.13100  0.79800  Biso   1.000  H
  H11      1.0000 0.30200  0.63100  0.70200  Biso   1.000  H
  H12      1.0000 0.80200  0.13100  0.70200  Biso   1.000  H
  H13      1.0000 0.30200  0.36900  0.20200  Biso   1.000  H
  H14      1.0000 0.80200  0.86900  0.20200  Biso   1.000  H
  H15      1.0000 0.69800  0.36900  0.29800  Biso   1.000  H
  H16      1.0000 0.19800  0.86900  0.29800  Biso   1.000  H
  H17      1.0000 0.69900  0.45300  0.97400  Biso   1.000  H
  H18      1.0000 0.19900  0.95300  0.97400  Biso   1.000  H
  H19      1.0000 0.30100  0.45300  0.52600  Biso   1.000  H
  H20      1.0000 0.80100  0.95300  0.52600  Biso   1.000  H
  H21      1.0000 0.30100  0.54700  0.02600  Biso   1.000  H
  H22      1.0000 0.80100  0.04700  0.02600  Biso   1.000  H
  H23      1.0000 0.69900  0.54700  0.47400  Biso   1.000  H
  H24      1.0000 0.19900  0.04700  0.47400  Biso   1.000  H
  H25      1.0000 0.79900  0.39600  0.09800  Biso   1.000  H
  H26      1.0000 0.29900  0.89600  0.09800  Biso   1.000  H
  H27      1.0000 0.20100  0.39600  0.40200  Biso   1.000  H
  H28      1.0000 0.70100  0.89600  0.40200  Biso   1.000  H
  H29      1.0000 0.20100  0.60400  0.90200  Biso   1.000  H
  H30      1.0000 0.70100  0.10400  0.90200  Biso   1.000  H
  H31      1.0000 0.79900  0.60400  0.59800  Biso   1.000  H
  H32      1.0000 0.29900  0.10400  0.59800  Biso   1.000  H
  H33      1.0000 0.07700  0.08800  0.43500  Biso   1.000  H
  H34      1.0000 0.57700  0.58800  0.43500  Biso   1.000  H
  H35      1.0000 0.92300  0.08800  0.06500  Biso   1.000  H
  H36      1.0000 0.42300  0.58800  0.06500  Biso   1.000  H
  H37      1.0000 0.92300  0.91200  0.56500  Biso   1.000  H
  H38      1.0000 0.42300  0.41200  0.56500  Biso   1.000  H
  H39      1.0000 0.07700  0.91200  0.93500  Biso   1.000  H
  H40      1.0000 0.57700  0.41200  0.93500  Biso   1.000  H
  H41      1.0000 0.08800  0.00600  0.31400  Biso   1.000  H
  H42      1.0000 0.58800  0.50600  0.31400  Biso   1.000  H
  H43      1.0000 0.91200  0.00600  0.18600  Biso   1.000  H
  H44      1.0000 0.41200  0.50600  0.18600  Biso   1.000  H
  H45      1.0000 0.91200  0.99400  0.68600  Biso   1.000  H
  H46      1.0000 0.41200  0.49400  0.68600  Biso   1.000  H
  H47      1.0000 0.08800  0.99400  0.81400  Biso   1.000  H
  H48      1.0000 0.58800  0.49400  0.81400  Biso   1.000  H
