data_image0
_cell_length_a       6.979
_cell_length_b       7.042
_cell_length_c       14.531
_cell_angle_alpha    90.47
_cell_angle_beta     101.67
_cell_angle_gamma    108.26

_symmetry_space_group_name_H-M    "P 1"
_symmetry_int_tables_number       1

loop_
  _symmetry_equiv_pos_as_xyz
  'x, y, z'

loop_
  _atom_site_label
  _atom_site_occupancy
  _atom_site_fract_x
  _atom_site_fract_y
  _atom_site_fract_z
  _atom_site_thermal_displace_type
  _atom_site_B_iso_or_equiv
  _atom_site_type_symbol
  Cu1      1.0000 0.00000  0.00000  0.00000  Biso   1.000  Cu
  Cu2      1.0000 0.00000  0.50000  0.00000  Biso   1.000  Cu
  Cl1      1.0000 0.22867  0.26783  0.94725  Biso   1.000  Cl
  Cl2      1.0000 0.77133  0.73217  0.05275  Biso   1.000  Cl
  Cl3      1.0000 0.99557  0.69142  0.86956  Biso   1.000  Cl
  Cl4      1.0000 0.00443  0.30858  0.13044  Biso   1.000  Cl
  N1       1.0000 0.22520  0.72490  0.07700  Biso   1.000  N
  N2       1.0000 0.77480  0.27510  0.92300  Biso   1.000  N
  N3       1.0000 0.23050  0.92060  0.07160  Biso   1.000  N
  N4       1.0000 0.76950  0.07940  0.92840  Biso   1.000  N
  C1       1.0000 0.39640  0.02960  0.13030  Biso   1.000  C
  C2       1.0000 0.60360  0.97040  0.86970  Biso   1.000  C
  H1       1.0000 0.44440  0.16280  0.14410  Biso   1.000  H
  H2       1.0000 0.55560  0.83720  0.85590  Biso   1.000  H
  N5       1.0000 0.49900  0.91190  0.17330  Biso   1.000  N
  N6       1.0000 0.50100  0.08810  0.82670  Biso   1.000  N
  C3       1.0000 0.39000  0.72450  0.13780  Biso   1.000  C
  C4       1.0000 0.61000  0.27550  0.86220  Biso   1.000  C
  H3       1.0000 0.42170  0.62340  0.15330  Biso   1.000  H
  H4       1.0000 0.57830  0.37660  0.84670  Biso   1.000  H
  Cu3      1.0000 0.00000  0.00000  0.50000  Biso   1.000  Cu
  Cu4      1.0000 0.50000  0.00000  0.50000  Biso   1.000  Cu
  Cl5      1.0000 0.13335  0.96374  0.36939  Biso   1.000  Cl
  Cl6      1.0000 0.86665  0.03626  0.63061  Biso   1.000  Cl
  Cl7      1.0000 0.57753  0.74555  0.42813  Biso   1.000  Cl
  Cl8      1.0000 0.42247  0.25445  0.57187  Biso   1.000  Cl
  N7       1.0000 0.31360  0.80330  0.56470  Biso   1.000  N
  N8       1.0000 0.68640  0.19670  0.43530  Biso   1.000  N
  N9       1.0000 0.11190  0.79290  0.56210  Biso   1.000  N
  N10      1.0000 0.88810  0.20710  0.43790  Biso   1.000  N
  C5       1.0000 0.04620  0.66130  0.62100  Biso   1.000  C
  C6       1.0000 0.95380  0.33870  0.37900  Biso   1.000  C
  H5       1.0000 0.92560  0.62770  0.62990  Biso   1.000  H
  H6       1.0000 0.07440  0.37230  0.37010  Biso   1.000  H
  N11      1.0000 0.68640  0.98490  0.24000  Biso   1.000  N
  N12      1.0000 0.31360  0.01510  0.76000  Biso   1.000  N
  H7       1.0000 0.77070  0.96470  0.21280  Biso   1.000  H
  H8       1.0000 0.22930  0.03530  0.78720  Biso   1.000  H
  H9       1.0000 0.67010  0.92000  0.28550  Biso   1.000  H
  H10      1.0000 0.32990  0.08000  0.71450  Biso   1.000  H
  C7       1.0000 0.35930  0.67990  0.62440  Biso   1.000  C
  C8       1.0000 0.64070  0.32010  0.37560  Biso   1.000  C
  H11      1.0000 0.48830  0.65990  0.64460  Biso   1.000  H
  H12      1.0000 0.51170  0.34010  0.35540  Biso   1.000  H
  N13      1.0000 0.19520  0.58830  0.66120  Biso   1.000  N
  N14      1.0000 0.80480  0.41170  0.33880  Biso   1.000  N
  N15      1.0000 0.20460  0.46150  0.73590  Biso   1.000  N
  N16      1.0000 0.79540  0.53850  0.26410  Biso   1.000  N
  H13      1.0000 0.17630  0.52240  0.78160  Biso   1.000  H
  H14      1.0000 0.82370  0.47760  0.21840  Biso   1.000  H
  H15      1.0000 0.11430  0.33490  0.70970  Biso   1.000  H
  H16      1.0000 0.88570  0.66510  0.29030  Biso   1.000  H
