data_image0
_cell_length_a       12.581
_cell_length_b       8.4606
_cell_length_c       13.465
_cell_angle_alpha    90
_cell_angle_beta     95.936
_cell_angle_gamma    90

_symmetry_space_group_name_H-M    "P 1"
_symmetry_int_tables_number       1

loop_
  _symmetry_equiv_pos_as_xyz
  'x, y, z'

loop_
  _atom_site_label
  _atom_site_occupancy
  _atom_site_fract_x
  _atom_site_fract_y
  _atom_site_fract_z
  _atom_site_thermal_displace_type
  _atom_site_B_iso_or_equiv
  _atom_site_type_symbol
  Cu1      1.0000 0.37683  0.22208  0.87365  Biso   1.000  Cu
  Cu2      1.0000 0.62317  0.72208  0.12635  Biso   1.000  Cu
  N1       1.0000 0.51710  0.14510  0.83120  Biso   1.000  N
  N2       1.0000 0.48290  0.64510  0.16880  Biso   1.000  N
  N3       1.0000 0.33920  0.95800  0.83170  Biso   1.000  N
  N4       1.0000 0.66080  0.45800  0.16830  Biso   1.000  N
  N5       1.0000 0.23810  0.31910  0.90750  Biso   1.000  N
  N6       1.0000 0.76190  0.81910  0.09250  Biso   1.000  N
  N7       1.0000 0.32550  0.32520  0.73890  Biso   1.000  N
  N8       1.0000 0.67450  0.82520  0.26110  Biso   1.000  N
  N9       1.0000 0.41840  0.17750  0.01640  Biso   1.000  N
  N10      1.0000 0.58160  0.67750  0.98360  Biso   1.000  N
  N11      1.0000 0.48840  0.09710  0.05110  Biso   1.000  N
  N12      1.0000 0.51160  0.59710  0.94890  Biso   1.000  N
  N13      1.0000 0.55700  0.02040  0.09190  Biso   1.000  N
  N14      1.0000 0.44300  0.52040  0.90810  Biso   1.000  N
  C1       1.0000 0.60600  0.23100  0.83050  Biso   1.000  C
  C2       1.0000 0.39400  0.73100  0.16950  Biso   1.000  C
  H1       1.0000 0.60420  0.33800  0.84590  Biso   1.000  H
  H2       1.0000 0.39580  0.83800  0.15410  Biso   1.000  H
  C3       1.0000 0.70090  0.16420  0.80720  Biso   1.000  C
  C4       1.0000 0.29910  0.66420  0.19280  Biso   1.000  C
  H3       1.0000 0.76150  0.22710  0.80740  Biso   1.000  H
  H4       1.0000 0.23850  0.72710  0.19260  Biso   1.000  H
  C5       1.0000 0.70660  0.00910  0.78420  Biso   1.000  C
  C6       1.0000 0.29340  0.50910  0.21580  Biso   1.000  C
  H5       1.0000 0.76970  0.96460  0.76690  Biso   1.000  H
  H6       1.0000 0.23030  0.46460  0.23310  Biso   1.000  H
  C7       1.0000 0.61570  0.91950  0.78750  Biso   1.000  C
  C8       1.0000 0.38430  0.41950  0.21250  Biso   1.000  C
  H7       1.0000 0.61660  0.81210  0.77290  Biso   1.000  H
  H8       1.0000 0.38340  0.31210  0.22710  Biso   1.000  H
  C9       1.0000 0.52510  0.98830  0.81190  Biso   1.000  C
  C10      1.0000 0.47490  0.48830  0.18810  Biso   1.000  C
  C11      1.0000 0.42380  0.89350  0.81300  Biso   1.000  C
  C12      1.0000 0.57620  0.39350  0.18700  Biso   1.000  C
  H9       1.0000 0.42450  0.78570  0.79950  Biso   1.000  H
  H10      1.0000 0.57550  0.28570  0.20050  Biso   1.000  H
  C13      1.0000 0.19740  0.30730  0.99400  Biso   1.000  C
  C14      1.0000 0.80260  0.80730  0.00600  Biso   1.000  C
  H11      1.0000 0.23540  0.25300  0.04630  Biso   1.000  H
  H12      1.0000 0.76460  0.75300  0.95370  Biso   1.000  H
  C15      1.0000 0.09960  0.37370  0.00860  Biso   1.000  C
  C16      1.0000 0.90040  0.87370  0.99140  Biso   1.000  C
  H13      1.0000 0.07180  0.36500  0.06970  Biso   1.000  H
  H14      1.0000 0.92820  0.86500  0.93030  Biso   1.000  H
  C17      1.0000 0.04470  0.45300  0.92980  Biso   1.000  C
  C18      1.0000 0.95530  0.95300  0.07020  Biso   1.000  C
  H15      1.0000 0.97800  0.49600  0.93730  Biso   1.000  H
  H16      1.0000 0.02200  0.99600  0.06270  Biso   1.000  H
  C19      1.0000 0.08810  0.46960  0.83850  Biso   1.000  C
  C20      1.0000 0.91190  0.96960  0.16150  Biso   1.000  C
  H17      1.0000 0.05330  0.52490  0.78500  Biso   1.000  H
  H18      1.0000 0.94670  0.02490  0.21500  Biso   1.000  H
  C21      1.0000 0.18400  0.40000  0.83360  Biso   1.000  C
  C22      1.0000 0.81600  0.90000  0.16640  Biso   1.000  C
  C23      1.0000 0.23930  0.39800  0.74120  Biso   1.000  C
  C24      1.0000 0.76070  0.89800  0.25880  Biso   1.000  C
  H19      1.0000 0.20950  0.45130  0.68470  Biso   1.000  H
  H20      1.0000 0.79050  0.95130  0.31530  Biso   1.000  H
  C25      1.0000 0.24190  0.85870  0.83290  Biso   1.000  C
  C26      1.0000 0.75810  0.35870  0.16710  Biso   1.000  C
  H21      1.0000 0.26130  0.75090  0.81530  Biso   1.000  H
  H22      1.0000 0.73870  0.25090  0.18470  Biso   1.000  H
  C27      1.0000 0.15980  0.91660  0.75190  Biso   1.000  C
  C28      1.0000 0.84020  0.41660  0.24810  Biso   1.000  C
  C29      1.0000 0.15790  0.86510  0.65290  Biso   1.000  C
  C30      1.0000 0.84210  0.36510  0.34710  Biso   1.000  C
  H23      1.0000 0.20610  0.78700  0.63890  Biso   1.000  H
  H24      1.0000 0.79390  0.28700  0.36110  Biso   1.000  H
  C31      1.0000 0.08980  0.92240  0.57560  Biso   1.000  C
  C32      1.0000 0.91020  0.42240  0.42440  Biso   1.000  C
  H25      1.0000 0.09240  0.88670  0.51050  Biso   1.000  H
  H26      1.0000 0.90760  0.38670  0.48950  Biso   1.000  H
  C33      1.0000 0.01570  0.03740  0.59850  Biso   1.000  C
  C34      1.0000 0.98430  0.53740  0.40150  Biso   1.000  C
  H27      1.0000 0.96650  0.07560  0.54790  Biso   1.000  H
  H28      1.0000 0.03350  0.57560  0.45210  Biso   1.000  H
  C35      1.0000 0.01410  0.09380  0.69170  Biso   1.000  C
  C36      1.0000 0.98590  0.59380  0.30830  Biso   1.000  C
  H29      1.0000 0.96620  0.17340  0.70420  Biso   1.000  H
  H30      1.0000 0.03380  0.67340  0.29580  Biso   1.000  H
  C37      1.0000 0.08570  0.03160  0.77150  Biso   1.000  C
  C38      1.0000 0.91430  0.53160  0.22850  Biso   1.000  C
  H31      1.0000 0.08270  0.06780  0.83630  Biso   1.000  H
  H32      1.0000 0.91730  0.56780  0.16370  Biso   1.000  H
  C39      1.0000 0.20990  0.85380  0.94020  Biso   1.000  C
  C40      1.0000 0.79010  0.35380  0.05980  Biso   1.000  C
  H33      1.0000 0.25270  0.77680  0.97830  Biso   1.000  H
  H34      1.0000 0.74730  0.27680  0.02170  Biso   1.000  H
  H35      1.0000 0.13580  0.82570  0.93860  Biso   1.000  H
  H36      1.0000 0.86420  0.32570  0.06140  Biso   1.000  H
  H37      1.0000 0.22120  0.95600  0.97050  Biso   1.000  H
  H38      1.0000 0.77880  0.45600  0.02950  Biso   1.000  H
  C41      1.0000 0.38030  0.31380  0.64400  Biso   1.000  C
  C42      1.0000 0.61970  0.81380  0.35600  Biso   1.000  C
  H39      1.0000 0.45690  0.29730  0.66290  Biso   1.000  H
  H40      1.0000 0.54310  0.79730  0.33710  Biso   1.000  H
  C43      1.0000 0.36670  0.47050  0.58750  Biso   1.000  C
  C44      1.0000 0.63330  0.97050  0.41250  Biso   1.000  C
  C45      1.0000 0.44170  0.58930  0.61110  Biso   1.000  C
  C46      1.0000 0.55830  0.08930  0.38890  Biso   1.000  C
  H41      1.0000 0.49620  0.57190  0.66200  Biso   1.000  H
  H42      1.0000 0.50380  0.07190  0.33800  Biso   1.000  H
  C47      1.0000 0.43740  0.73060  0.56170  Biso   1.000  C
  C48      1.0000 0.56260  0.23060  0.43830  Biso   1.000  C
  H43      1.0000 0.48810  0.80760  0.58100  Biso   1.000  H
  H44      1.0000 0.51190  0.30760  0.41900  Biso   1.000  H
  C49      1.0000 0.36030  0.76220  0.48410  Biso   1.000  C
  C50      1.0000 0.63970  0.26220  0.51590  Biso   1.000  C
  H45      1.0000 0.35760  0.85760  0.44970  Biso   1.000  H
  H46      1.0000 0.64240  0.35760  0.55030  Biso   1.000  H
  C51      1.0000 0.28470  0.63880  0.46010  Biso   1.000  C
  C52      1.0000 0.71530  0.13880  0.53990  Biso   1.000  C
  H47      1.0000 0.22900  0.65630  0.41030  Biso   1.000  H
  H48      1.0000 0.77100  0.15630  0.58970  Biso   1.000  H
  C53      1.0000 0.29100  0.49750  0.50700  Biso   1.000  C
  C54      1.0000 0.70900  0.99750  0.49300  Biso   1.000  C
  H49      1.0000 0.24390  0.41720  0.48490  Biso   1.000  H
  H50      1.0000 0.75610  0.91720  0.51510  Biso   1.000  H
  C55      1.0000 0.33740  0.17140  0.58950  Biso   1.000  C
  C56      1.0000 0.66260  0.67140  0.41050  Biso   1.000  C
  H51      1.0000 0.33340  0.08570  0.63570  Biso   1.000  H
  H52      1.0000 0.66660  0.58570  0.36430  Biso   1.000  H
  H53      1.0000 0.38370  0.14250  0.54010  Biso   1.000  H
  H54      1.0000 0.61630  0.64250  0.45990  Biso   1.000  H
  H55      1.0000 0.26730  0.19370  0.55740  Biso   1.000  H
  H56      1.0000 0.73270  0.69370  0.44260  Biso   1.000  H
  Cl1      1.0000 0.19251  0.07970  0.27802  Biso   1.000  Cl
  Cl2      1.0000 0.80749  0.57970  0.72198  Biso   1.000  Cl
  O1       1.0000 0.21180  0.05870  0.18480  Biso   1.000  O
  O2       1.0000 0.78820  0.55870  0.81520  Biso   1.000  O
  O3       1.0000 0.14260  0.94340  0.30990  Biso   1.000  O
  O4       1.0000 0.85740  0.44340  0.69010  Biso   1.000  O
  O5       1.0000 0.28220  0.10950  0.32510  Biso   1.000  O
  O6       1.0000 0.71780  0.60950  0.67490  Biso   1.000  O
  O7       1.0000 0.13030  0.19860  0.25830  Biso   1.000  O
  O8       1.0000 0.86970  0.69860  0.74170  Biso   1.000  O
