data_image0
_cell_length_a       3.88208
_cell_length_b       7.16481
_cell_length_c       10.0461
_cell_angle_alpha    112.758
_cell_angle_beta     98.1127
_cell_angle_gamma    87.6217

_symmetry_space_group_name_H-M    "P 1"
_symmetry_int_tables_number       1

loop_
  _symmetry_equiv_pos_as_xyz
  'x, y, z'

loop_
  _atom_site_label
  _atom_site_occupancy
  _atom_site_fract_x
  _atom_site_fract_y
  _atom_site_fract_z
  _atom_site_thermal_displace_type
  _atom_site_B_iso_or_equiv
  _atom_site_type_symbol
  Cu1      1.0000 0.00000  0.50000  0.50000  Biso   1.000  Cu
  C1       1.0000 0.16583  0.05499  0.85391  Biso   1.000  C
  C2       1.0000 0.83417  0.94501  0.14609  Biso   1.000  C
  C3       1.0000 0.02460  0.95821  0.92654  Biso   1.000  C
  C4       1.0000 0.97540  0.04179  0.07346  Biso   1.000  C
  C5       1.0000 0.93955  0.76600  0.83138  Biso   1.000  C
  C6       1.0000 0.06045  0.23400  0.16862  Biso   1.000  C
  C7       1.0000 0.28754  0.25567  0.91294  Biso   1.000  C
  C8       1.0000 0.71246  0.74433  0.08706  Biso   1.000  C
  N1       1.0000 0.16807  0.92258  0.71386  Biso   1.000  N
  N2       1.0000 0.83193  0.07742  0.28614  Biso   1.000  N
  N3       1.0000 0.02822  0.74398  0.69994  Biso   1.000  N
  N4       1.0000 0.97178  0.25602  0.30006  Biso   1.000  N
  H1       1.0000 0.83633  0.66487  0.85294  Biso   1.000  H
  H2       1.0000 0.16367  0.33513  0.14706  Biso   1.000  H
  H3       1.0000 0.47551  0.27501  0.99782  Biso   1.000  H
  H4       1.0000 0.52449  0.72499  0.00218  Biso   1.000  H
  H5       1.0000 0.38589  0.28724  0.83600  Biso   1.000  H
  H6       1.0000 0.61411  0.71276  0.16400  Biso   1.000  H
  H7       1.0000 0.08913  0.34975  0.94766  Biso   1.000  H
  H8       1.0000 0.91087  0.65025  0.05234  Biso   1.000  H
  H9       1.0000 0.25249  0.95003  0.63892  Biso   1.000  H
  H10      1.0000 0.74751  0.04997  0.36108  Biso   1.000  H
  Cl1      1.0000 0.32700  0.68089  0.41460  Biso   1.000  Cl
  Cl2      1.0000 0.67300  0.31911  0.58540  Biso   1.000  Cl
  C9       1.0000 0.78744  0.61696  0.86315  Biso   1.000  C
  C10      1.0000 0.21256  0.38304  0.13685  Biso   1.000  C
  H11      1.0000 0.24842  0.19117  0.89397  Biso   1.000  H
  H12      1.0000 0.75158  0.80883  0.10603  Biso   1.000  H
  H13      1.0000 0.55558  0.66549  0.89766  Biso   1.000  H
  H14      1.0000 0.44442  0.33451  0.10234  Biso   1.000  H
  H15      1.0000 0.75134  0.48858  0.77264  Biso   1.000  H
  H16      1.0000 0.24866  0.51142  0.22736  Biso   1.000  H
  H17      1.0000 0.94550  0.58915  0.94210  Biso   1.000  H
  H18      1.0000 0.05450  0.41085  0.05790  Biso   1.000  H
