data_image0
_cell_length_a       13.24
_cell_length_b       13.24
_cell_length_c       11.763
_cell_angle_alpha    90
_cell_angle_beta     90
_cell_angle_gamma    120

_symmetry_space_group_name_H-M    "P 1"
_symmetry_int_tables_number       1

loop_
  _symmetry_equiv_pos_as_xyz
  'x, y, z'

loop_
  _atom_site_label
  _atom_site_occupancy
  _atom_site_fract_x
  _atom_site_fract_y
  _atom_site_fract_z
  _atom_site_thermal_displace_type
  _atom_site_B_iso_or_equiv
  _atom_site_type_symbol
  Cu1      1.0000 0.14280  0.00000  0.50000  Biso   1.000  Cu
  Cu2      1.0000 0.00000  0.14280  0.50000  Biso   1.000  Cu
  Cu3      1.0000 0.85720  0.85720  0.50000  Biso   1.000  Cu
  O1       1.0000 0.20800  0.11880  0.61390  Biso   1.000  O
  O2       1.0000 0.88120  0.08920  0.61390  Biso   1.000  O
  O3       1.0000 0.91080  0.79200  0.61390  Biso   1.000  O
  O4       1.0000 0.20800  0.11880  0.38610  Biso   1.000  O
  O5       1.0000 0.88120  0.08920  0.38610  Biso   1.000  O
  O6       1.0000 0.91080  0.79200  0.38610  Biso   1.000  O
  O7       1.0000 0.11880  0.20800  0.38610  Biso   1.000  O
  O8       1.0000 0.08920  0.88120  0.38610  Biso   1.000  O
  O9       1.0000 0.79200  0.91080  0.38610  Biso   1.000  O
  O10      1.0000 0.11880  0.20800  0.61390  Biso   1.000  O
  O11      1.0000 0.08920  0.88120  0.61390  Biso   1.000  O
  O12      1.0000 0.79200  0.91080  0.61390  Biso   1.000  O
  N1       1.0000 0.62650  0.62650  0.88190  Biso   1.000  N
  N2       1.0000 0.37350  0.00000  0.88190  Biso   1.000  N
  N3       1.0000 0.00000  0.37350  0.88190  Biso   1.000  N
  N4       1.0000 0.62650  0.62650  0.11810  Biso   1.000  N
  N5       1.0000 0.37350  0.00000  0.11810  Biso   1.000  N
  N6       1.0000 0.00000  0.37350  0.11810  Biso   1.000  N
  C1       1.0000 0.19300  0.19300  0.64600  Biso   1.000  C
  C2       1.0000 0.80700  0.00000  0.64600  Biso   1.000  C
  C3       1.0000 1.00000  0.80700  0.64600  Biso   1.000  C
  C4       1.0000 0.19300  0.19300  0.35400  Biso   1.000  C
  C5       1.0000 0.80700  0.00000  0.35400  Biso   1.000  C
  C6       1.0000 1.00000  0.80700  0.35400  Biso   1.000  C
  C7       1.0000 0.28520  0.28520  0.73070  Biso   1.000  C
  C8       1.0000 0.71480  0.00000  0.73070  Biso   1.000  C
  C9       1.0000 0.00000  0.71480  0.73070  Biso   1.000  C
  C10      1.0000 0.28520  0.28520  0.26930  Biso   1.000  C
  C11      1.0000 0.71480  0.00000  0.26930  Biso   1.000  C
  C12      1.0000 0.00000  0.71480  0.26930  Biso   1.000  C
  C13      1.0000 0.37000  0.27050  0.76800  Biso   1.000  C
  C14      1.0000 0.72950  0.09950  0.76800  Biso   1.000  C
  C15      1.0000 0.90050  0.63000  0.76800  Biso   1.000  C
  C16      1.0000 0.37000  0.27050  0.23200  Biso   1.000  C
  C17      1.0000 0.72950  0.09950  0.23200  Biso   1.000  C
  C18      1.0000 0.90050  0.63000  0.23200  Biso   1.000  C
  C19      1.0000 0.27050  0.37000  0.23200  Biso   1.000  C
  C20      1.0000 0.09950  0.72950  0.23200  Biso   1.000  C
  C21      1.0000 0.63000  0.90050  0.23200  Biso   1.000  C
  C22      1.0000 0.27050  0.37000  0.76800  Biso   1.000  C
  C23      1.0000 0.09950  0.72950  0.76800  Biso   1.000  C
  C24      1.0000 0.63000  0.90050  0.76800  Biso   1.000  C
  H1       1.0000 0.37730  0.20700  0.74600  Biso   1.000  H
  H2       1.0000 0.79300  0.17030  0.74600  Biso   1.000  H
  H3       1.0000 0.82970  0.62270  0.74600  Biso   1.000  H
  H4       1.0000 0.37730  0.20700  0.25400  Biso   1.000  H
  H5       1.0000 0.79300  0.17030  0.25400  Biso   1.000  H
  H6       1.0000 0.82970  0.62270  0.25400  Biso   1.000  H
  H7       1.0000 0.20700  0.37730  0.25400  Biso   1.000  H
  H8       1.0000 0.17030  0.79300  0.25400  Biso   1.000  H
  H9       1.0000 0.62270  0.82970  0.25400  Biso   1.000  H
  H10      1.0000 0.20700  0.37730  0.74600  Biso   1.000  H
  H11      1.0000 0.17030  0.79300  0.74600  Biso   1.000  H
  H12      1.0000 0.62270  0.82970  0.74600  Biso   1.000  H
  C25      1.0000 0.45300  0.35900  0.84600  Biso   1.000  C
  C26      1.0000 0.64100  0.09400  0.84600  Biso   1.000  C
  C27      1.0000 0.90600  0.54700  0.84600  Biso   1.000  C
  C28      1.0000 0.45300  0.35900  0.15400  Biso   1.000  C
  C29      1.0000 0.64100  0.09400  0.15400  Biso   1.000  C
  C30      1.0000 0.90600  0.54700  0.15400  Biso   1.000  C
  C31      1.0000 0.35900  0.45300  0.15400  Biso   1.000  C
  C32      1.0000 0.09400  0.64100  0.15400  Biso   1.000  C
  C33      1.0000 0.54700  0.90600  0.15400  Biso   1.000  C
  C34      1.0000 0.35900  0.45300  0.84600  Biso   1.000  C
  C35      1.0000 0.09400  0.64100  0.84600  Biso   1.000  C
  C36      1.0000 0.54700  0.90600  0.84600  Biso   1.000  C
  H13      1.0000 0.51250  0.34930  0.87630  Biso   1.000  H
  H14      1.0000 0.65070  0.16320  0.87630  Biso   1.000  H
  H15      1.0000 0.83680  0.48750  0.87630  Biso   1.000  H
  H16      1.0000 0.51250  0.34930  0.12370  Biso   1.000  H
  H17      1.0000 0.65070  0.16320  0.12370  Biso   1.000  H
  H18      1.0000 0.83680  0.48750  0.12370  Biso   1.000  H
  H19      1.0000 0.34930  0.51250  0.12370  Biso   1.000  H
  H20      1.0000 0.16320  0.65070  0.12370  Biso   1.000  H
  H21      1.0000 0.48750  0.83680  0.12370  Biso   1.000  H
  H22      1.0000 0.34930  0.51250  0.87630  Biso   1.000  H
  H23      1.0000 0.16320  0.65070  0.87630  Biso   1.000  H
  H24      1.0000 0.48750  0.83680  0.87630  Biso   1.000  H
  C37      1.0000 0.44700  0.44700  0.87400  Biso   1.000  C
  C38      1.0000 0.55300  0.00000  0.87400  Biso   1.000  C
  C39      1.0000 0.00000  0.55300  0.87400  Biso   1.000  C
  C40      1.0000 0.44700  0.44700  0.12600  Biso   1.000  C
  C41      1.0000 0.55300  0.00000  0.12600  Biso   1.000  C
  C42      1.0000 0.00000  0.55300  0.12600  Biso   1.000  C
  C43      1.0000 0.54280  0.54280  0.93700  Biso   1.000  C
  C44      1.0000 0.45720  0.00000  0.93700  Biso   1.000  C
  C45      1.0000 0.00000  0.45720  0.93700  Biso   1.000  C
  C46      1.0000 0.54280  0.54280  0.06300  Biso   1.000  C
  C47      1.0000 0.45720  0.00000  0.06300  Biso   1.000  C
  C48      1.0000 0.00000  0.45720  0.06300  Biso   1.000  C
  C49      1.0000 0.71500  0.71500  0.93970  Biso   1.000  C
  C50      1.0000 0.28500  0.00000  0.93970  Biso   1.000  C
  C51      1.0000 0.00000  0.28500  0.93970  Biso   1.000  C
  C52      1.0000 0.71500  0.71500  0.06030  Biso   1.000  C
  C53      1.0000 0.28500  0.00000  0.06030  Biso   1.000  C
  C54      1.0000 0.00000  0.28500  0.06030  Biso   1.000  C
  C55      1.0000 0.80500  0.80500  0.88540  Biso   1.000  C
  C56      1.0000 0.19500  0.00000  0.88540  Biso   1.000  C
  C57      1.0000 0.00000  0.19500  0.88540  Biso   1.000  C
  C58      1.0000 0.80500  0.80500  0.11460  Biso   1.000  C
  C59      1.0000 0.19500  0.00000  0.11460  Biso   1.000  C
  C60      1.0000 0.00000  0.19500  0.11460  Biso   1.000  C
  H25      1.0000 0.80460  0.80460  0.80630  Biso   1.000  H
  H26      1.0000 0.19540  0.00000  0.80630  Biso   1.000  H
  H27      1.0000 0.00000  0.19540  0.80630  Biso   1.000  H
  H28      1.0000 0.80460  0.80460  0.19370  Biso   1.000  H
  H29      1.0000 0.19540  0.00000  0.19370  Biso   1.000  H
  H30      1.0000 0.00000  0.19540  0.19370  Biso   1.000  H
  C61      1.0000 0.89720  0.89720  0.93970  Biso   1.000  C
  C62      1.0000 0.10280  0.00000  0.93970  Biso   1.000  C
  C63      1.0000 0.00000  0.10280  0.93970  Biso   1.000  C
  C64      1.0000 0.89720  0.89720  0.06030  Biso   1.000  C
  C65      1.0000 0.10280  0.00000  0.06030  Biso   1.000  C
  C66      1.0000 0.00000  0.10280  0.06030  Biso   1.000  C
  C67      1.0000 0.00000  0.00000  0.90000  Biso   1.000  C
  C68      1.0000 0.00000  0.00000  0.10000  Biso   1.000  C
  H31      1.0000 0.00000  0.00000  0.81700  Biso   1.000  H
  H32      1.0000 0.00000  0.00000  0.18300  Biso   1.000  H
  O13      1.0000 0.28200  0.00000  0.50000  Biso   1.000  O
  O14      1.0000 0.00000  0.28200  0.50000  Biso   1.000  O
  O15      1.0000 0.71800  0.71800  0.50000  Biso   1.000  O
  O16      1.0000 0.00000  0.00000  0.50000  Biso   1.000  O
