data_image0
_cell_length_a       13.106
_cell_length_b       15.887
_cell_length_c       13.613
_cell_angle_alpha    90
_cell_angle_beta     92.166
_cell_angle_gamma    90

_symmetry_space_group_name_H-M    "P 1"
_symmetry_int_tables_number       1

loop_
  _symmetry_equiv_pos_as_xyz
  'x, y, z'

loop_
  _atom_site_label
  _atom_site_occupancy
  _atom_site_fract_x
  _atom_site_fract_y
  _atom_site_fract_z
  _atom_site_thermal_displace_type
  _atom_site_B_iso_or_equiv
  _atom_site_type_symbol
  C1       1.0000 0.83090  0.29280  0.35340  Biso   1.000  C
  C2       1.0000 0.66910  0.79280  0.14660  Biso   1.000  C
  C3       1.0000 0.16910  0.70720  0.64660  Biso   1.000  C
  C4       1.0000 0.33090  0.20720  0.85340  Biso   1.000  C
  H1       1.0000 0.80045  0.31645  0.40751  Biso   1.000  H
  H2       1.0000 0.69955  0.81645  0.09249  Biso   1.000  H
  H3       1.0000 0.19955  0.68355  0.59249  Biso   1.000  H
  H4       1.0000 0.30045  0.18355  0.90751  Biso   1.000  H
  C5       1.0000 0.76990  0.25840  0.28040  Biso   1.000  C
  C6       1.0000 0.73010  0.75840  0.21960  Biso   1.000  C
  C7       1.0000 0.23010  0.74160  0.71960  Biso   1.000  C
  C8       1.0000 0.26990  0.24160  0.78040  Biso   1.000  C
  C9       1.0000 0.81720  0.22330  0.19780  Biso   1.000  C
  C10      1.0000 0.68280  0.72330  0.30220  Biso   1.000  C
  C11      1.0000 0.18280  0.77670  0.80220  Biso   1.000  C
  C12      1.0000 0.31720  0.27670  0.69780  Biso   1.000  C
  H5       1.0000 0.77666  0.19994  0.14733  Biso   1.000  H
  H6       1.0000 0.72334  0.69994  0.35267  Biso   1.000  H
  H7       1.0000 0.22334  0.80006  0.85267  Biso   1.000  H
  H8       1.0000 0.27666  0.30006  0.64733  Biso   1.000  H
  C13      1.0000 0.91890  0.22310  0.19080  Biso   1.000  C
  C14      1.0000 0.58110  0.72310  0.30920  Biso   1.000  C
  C15      1.0000 0.08110  0.77690  0.80920  Biso   1.000  C
  C16      1.0000 0.41890  0.27690  0.69080  Biso   1.000  C
  H9       1.0000 0.94757  0.19985  0.13550  Biso   1.000  H
  H10      1.0000 0.55243  0.69985  0.36450  Biso   1.000  H
  H11      1.0000 0.05243  0.80015  0.86450  Biso   1.000  H
  H12      1.0000 0.44757  0.30015  0.63550  Biso   1.000  H
  C17      1.0000 0.98350  0.25750  0.26610  Biso   1.000  C
  C18      1.0000 0.51650  0.75750  0.23390  Biso   1.000  C
  C19      1.0000 0.01650  0.74250  0.73390  Biso   1.000  C
  C20      1.0000 0.48350  0.24250  0.76610  Biso   1.000  C
  C21      1.0000 0.94040  0.29370  0.34970  Biso   1.000  C
  C22      1.0000 0.55960  0.79370  0.15030  Biso   1.000  C
  C23      1.0000 0.05960  0.70630  0.65030  Biso   1.000  C
  C24      1.0000 0.44040  0.20630  0.84970  Biso   1.000  C
  C25      1.0000 0.99980  0.32730  0.42650  Biso   1.000  C
  C26      1.0000 0.50020  0.82730  0.07350  Biso   1.000  C
  C27      1.0000 0.00020  0.67270  0.57350  Biso   1.000  C
  C28      1.0000 0.49980  0.17270  0.92650  Biso   1.000  C
  H13      1.0000 0.96950  0.34984  0.48127  Biso   1.000  H
  H14      1.0000 0.53050  0.84984  0.01873  Biso   1.000  H
  H15      1.0000 0.03050  0.65016  0.51873  Biso   1.000  H
  H16      1.0000 0.46950  0.15016  0.98127  Biso   1.000  H
  C29      1.0000 0.10380  0.32670  0.42050  Biso   1.000  C
  C30      1.0000 0.39620  0.82670  0.07950  Biso   1.000  C
  C31      1.0000 0.89620  0.67330  0.57950  Biso   1.000  C
  C32      1.0000 0.60380  0.17330  0.92050  Biso   1.000  C
  H17      1.0000 0.14401  0.35138  0.47030  Biso   1.000  H
  H18      1.0000 0.35599  0.85138  0.02970  Biso   1.000  H
  H19      1.0000 0.85599  0.64862  0.52970  Biso   1.000  H
  H20      1.0000 0.64401  0.14862  0.97030  Biso   1.000  H
  C33      1.0000 0.15060  0.28940  0.34040  Biso   1.000  C
  C34      1.0000 0.34940  0.78940  0.15960  Biso   1.000  C
  C35      1.0000 0.84940  0.71060  0.65960  Biso   1.000  C
  C36      1.0000 0.65060  0.21060  0.84040  Biso   1.000  C
  C37      1.0000 0.09330  0.25700  0.26460  Biso   1.000  C
  C38      1.0000 0.40670  0.75700  0.23540  Biso   1.000  C
  C39      1.0000 0.90670  0.74300  0.73540  Biso   1.000  C
  C40      1.0000 0.59330  0.24300  0.76460  Biso   1.000  C
  H21      1.0000 0.12533  0.23410  0.21094  Biso   1.000  H
  H22      1.0000 0.37467  0.73410  0.28906  Biso   1.000  H
  H23      1.0000 0.87467  0.76590  0.78906  Biso   1.000  H
  H24      1.0000 0.62533  0.26590  0.71094  Biso   1.000  H
  C41      1.0000 0.26510  0.28830  0.34000  Biso   1.000  C
  C42      1.0000 0.23490  0.78830  0.16000  Biso   1.000  C
  C43      1.0000 0.73490  0.71170  0.66000  Biso   1.000  C
  C44      1.0000 0.76510  0.21170  0.84000  Biso   1.000  C
  C45      1.0000 0.65710  0.25760  0.29180  Biso   1.000  C
  C46      1.0000 0.84290  0.75760  0.20820  Biso   1.000  C
  C47      1.0000 0.34290  0.74240  0.70820  Biso   1.000  C
  C48      1.0000 0.15710  0.24240  0.79180  Biso   1.000  C
  C49      1.0000 0.25100  0.48520  0.01260  Biso   1.000  C
  C50      1.0000 0.24900  0.98520  0.48740  Biso   1.000  C
  C51      1.0000 0.74900  0.51480  0.98740  Biso   1.000  C
  C52      1.0000 0.75100  0.01480  0.51260  Biso   1.000  C
  H25      1.0000 0.24468  0.48359  0.08039  Biso   1.000  H
  H26      1.0000 0.25532  0.98359  0.41961  Biso   1.000  H
  H27      1.0000 0.75532  0.51641  0.91961  Biso   1.000  H
  H28      1.0000 0.74468  0.01641  0.58039  Biso   1.000  H
  C53      1.0000 0.32640  0.44000  0.96810  Biso   1.000  C
  C54      1.0000 0.17360  0.94000  0.53190  Biso   1.000  C
  C55      1.0000 0.67360  0.56000  0.03190  Biso   1.000  C
  C56      1.0000 0.82640  0.06000  0.46810  Biso   1.000  C
  C57      1.0000 0.33640  0.44060  0.86870  Biso   1.000  C
  C58      1.0000 0.16360  0.94060  0.63130  Biso   1.000  C
  C59      1.0000 0.66360  0.55940  0.13130  Biso   1.000  C
  C60      1.0000 0.83640  0.05940  0.36870  Biso   1.000  C
  H29      1.0000 0.38651  0.40832  0.84013  Biso   1.000  H
  H30      1.0000 0.11349  0.90832  0.65987  Biso   1.000  H
  H31      1.0000 0.61349  0.59168  0.15987  Biso   1.000  H
  H32      1.0000 0.88651  0.09168  0.34013  Biso   1.000  H
  C61      1.0000 0.27130  0.48990  0.81110  Biso   1.000  C
  C62      1.0000 0.22870  0.98990  0.68890  Biso   1.000  C
  C63      1.0000 0.72870  0.51010  0.18890  Biso   1.000  C
  C64      1.0000 0.77130  0.01010  0.31110  Biso   1.000  C
  C65      1.0000 0.19290  0.53640  0.85310  Biso   1.000  C
  C66      1.0000 0.30710  0.03640  0.64690  Biso   1.000  C
  C67      1.0000 0.80710  0.46360  0.14690  Biso   1.000  C
  C68      1.0000 0.69290  0.96360  0.35310  Biso   1.000  C
  H33      1.0000 0.14771  0.56846  0.81436  Biso   1.000  H
  H34      1.0000 0.35229  0.06846  0.68564  Biso   1.000  H
  H35      1.0000 0.85229  0.43154  0.18564  Biso   1.000  H
  H36      1.0000 0.64771  0.93154  0.31436  Biso   1.000  H
  C69      1.0000 0.18520  0.53270  0.95370  Biso   1.000  C
  C70      1.0000 0.31480  0.03270  0.54630  Biso   1.000  C
  C71      1.0000 0.81480  0.46730  0.04630  Biso   1.000  C
  C72      1.0000 0.68520  0.96730  0.45370  Biso   1.000  C
  C73      1.0000 0.37490  0.34680  0.10850  Biso   1.000  C
  C74      1.0000 0.12510  0.84680  0.39150  Biso   1.000  C
  C75      1.0000 0.62510  0.65320  0.89150  Biso   1.000  C
  C76      1.0000 0.87490  0.15320  0.60850  Biso   1.000  C
  H37      1.0000 0.30996  0.34335  0.13360  Biso   1.000  H
  H38      1.0000 0.19004  0.84335  0.36640  Biso   1.000  H
  H39      1.0000 0.69004  0.65665  0.86640  Biso   1.000  H
  H40      1.0000 0.80996  0.15665  0.63360  Biso   1.000  H
  C77      1.0000 0.53660  0.33240  0.09070  Biso   1.000  C
  C78      1.0000 0.96340  0.83240  0.40930  Biso   1.000  C
  C79      1.0000 0.46340  0.66760  0.90930  Biso   1.000  C
  C80      1.0000 0.03660  0.16760  0.59070  Biso   1.000  C
  H41      1.0000 0.60433  0.31612  0.10068  Biso   1.000  H
  H42      1.0000 0.89567  0.81612  0.39932  Biso   1.000  H
  H43      1.0000 0.39567  0.68388  0.89932  Biso   1.000  H
  H44      1.0000 0.10433  0.18388  0.60068  Biso   1.000  H
  C81      1.0000 0.49940  0.38330  0.01710  Biso   1.000  C
  C82      1.0000 0.00060  0.88330  0.48290  Biso   1.000  C
  C83      1.0000 0.50060  0.61670  0.98290  Biso   1.000  C
  C84      1.0000 0.99940  0.11670  0.51710  Biso   1.000  C
  H45      1.0000 0.53683  0.40850  0.96845  Biso   1.000  H
  H46      1.0000 0.96317  0.90850  0.53155  Biso   1.000  H
  H47      1.0000 0.46317  0.59150  0.03155  Biso   1.000  H
  H48      1.0000 0.03683  0.09150  0.46845  Biso   1.000  H
  C85      1.0000 0.12470  0.61770  0.09050  Biso   1.000  C
  C86      1.0000 0.37530  0.11770  0.40950  Biso   1.000  C
  C87      1.0000 0.87530  0.38230  0.90950  Biso   1.000  C
  C88      1.0000 0.62470  0.88230  0.59050  Biso   1.000  C
  H49      1.0000 0.18365  0.61177  0.13006  Biso   1.000  H
  H50      1.0000 0.31635  0.11177  0.36994  Biso   1.000  H
  H51      1.0000 0.81635  0.38823  0.86994  Biso   1.000  H
  H52      1.0000 0.68365  0.88823  0.63006  Biso   1.000  H
  C89      1.0000 0.97480  0.65230  0.03770  Biso   1.000  C
  C90      1.0000 0.52520  0.15230  0.46230  Biso   1.000  C
  C91      1.0000 0.02520  0.34770  0.96230  Biso   1.000  C
  C92      1.0000 0.47480  0.84770  0.53770  Biso   1.000  C
  H53      1.0000 0.90972  0.67571  0.03506  Biso   1.000  H
  H54      1.0000 0.59028  0.17571  0.46494  Biso   1.000  H
  H55      1.0000 0.09028  0.32429  0.96494  Biso   1.000  H
  H56      1.0000 0.40972  0.82429  0.53506  Biso   1.000  H
  C93      1.0000 0.01520  0.60540  0.96690  Biso   1.000  C
  C94      1.0000 0.48480  0.10540  0.53310  Biso   1.000  C
  C95      1.0000 0.98480  0.39460  0.03310  Biso   1.000  C
  C96      1.0000 0.51520  0.89460  0.46690  Biso   1.000  C
  H57      1.0000 0.98424  0.59093  0.90669  Biso   1.000  H
  H58      1.0000 0.51576  0.09093  0.59331  Biso   1.000  H
  H59      1.0000 0.01576  0.40907  0.09331  Biso   1.000  H
  H60      1.0000 0.48424  0.90907  0.40669  Biso   1.000  H
  C97      1.0000 0.37980  0.49430  0.67160  Biso   1.000  C
  C98      1.0000 0.12020  0.99430  0.82840  Biso   1.000  C
  C99      1.0000 0.62020  0.50570  0.32840  Biso   1.000  C
  C100     1.0000 0.87980  0.00570  0.17160  Biso   1.000  C
  H61      1.0000 0.44020  0.49533  0.70967  Biso   1.000  H
  H62      1.0000 0.05980  0.99533  0.79033  Biso   1.000  H
  H63      1.0000 0.55980  0.50467  0.29033  Biso   1.000  H
  H64      1.0000 0.94020  0.00467  0.20967  Biso   1.000  H
  C101     1.0000 0.21680  0.49210  0.62960  Biso   1.000  C
  C102     1.0000 0.28320  0.99210  0.87040  Biso   1.000  C
  C103     1.0000 0.78320  0.50790  0.37040  Biso   1.000  C
  C104     1.0000 0.71680  0.00790  0.12960  Biso   1.000  C
  H65      1.0000 0.14603  0.49196  0.63204  Biso   1.000  H
  H66      1.0000 0.35397  0.99196  0.86796  Biso   1.000  H
  H67      1.0000 0.85397  0.50804  0.36796  Biso   1.000  H
  H68      1.0000 0.64603  0.00804  0.13204  Biso   1.000  H
  C105     1.0000 0.27230  0.49190  0.54850  Biso   1.000  C
  C106     1.0000 0.22770  0.99190  0.95150  Biso   1.000  C
  C107     1.0000 0.72770  0.50810  0.45150  Biso   1.000  C
  C108     1.0000 0.77230  0.00810  0.04850  Biso   1.000  C
  H69      1.0000 0.24555  0.49035  0.48426  Biso   1.000  H
  H70      1.0000 0.25445  0.99035  0.01574  Biso   1.000  H
  H71      1.0000 0.75445  0.50965  0.51574  Biso   1.000  H
  H72      1.0000 0.74555  0.00965  0.98426  Biso   1.000  H
  N1       1.0000 0.39760  0.39010  0.02840  Biso   1.000  N
  N2       1.0000 0.10240  0.89010  0.47160  Biso   1.000  N
  N3       1.0000 0.60240  0.60990  0.97160  Biso   1.000  N
  N4       1.0000 0.89760  0.10990  0.52840  Biso   1.000  N
  N5       1.0000 0.45700  0.30930  0.14770  Biso   1.000  N
  N6       1.0000 0.04300  0.80930  0.35230  Biso   1.000  N
  N7       1.0000 0.54300  0.69070  0.85230  Biso   1.000  N
  N8       1.0000 0.95700  0.19070  0.64770  Biso   1.000  N
  N9       1.0000 0.11120  0.58320  0.00110  Biso   1.000  N
  N10      1.0000 0.38880  0.08320  0.49890  Biso   1.000  N
  N11      1.0000 0.88880  0.41680  0.99890  Biso   1.000  N
  N12      1.0000 0.61120  0.91680  0.50110  Biso   1.000  N
  N13      1.0000 0.04530  0.66030  0.11510  Biso   1.000  N
  N14      1.0000 0.45470  0.16030  0.38490  Biso   1.000  N
  N15      1.0000 0.95470  0.33970  0.88490  Biso   1.000  N
  N16      1.0000 0.54530  0.83970  0.61510  Biso   1.000  N
  N17      1.0000 0.28680  0.49250  0.70910  Biso   1.000  N
  N18      1.0000 0.21320  0.99250  0.79090  Biso   1.000  N
  N19      1.0000 0.71320  0.50750  0.29090  Biso   1.000  N
  N20      1.0000 0.78680  0.00750  0.20910  Biso   1.000  N
  N21      1.0000 0.37610  0.49460  0.57550  Biso   1.000  N
  N22      1.0000 0.12390  0.99460  0.92450  Biso   1.000  N
  N23      1.0000 0.62390  0.50540  0.42450  Biso   1.000  N
  N24      1.0000 0.87610  0.00540  0.07550  Biso   1.000  N
  O1       1.0000 0.60420  0.20710  0.24200  Biso   1.000  O
  O2       1.0000 0.89580  0.70710  0.25800  Biso   1.000  O
  O3       1.0000 0.39580  0.79290  0.75800  Biso   1.000  O
  O4       1.0000 0.10420  0.29290  0.74200  Biso   1.000  O
  O5       1.0000 0.62170  0.31020  0.34980  Biso   1.000  O
  O6       1.0000 0.87830  0.81020  0.15020  Biso   1.000  O
  O7       1.0000 0.37830  0.68980  0.65020  Biso   1.000  O
  O8       1.0000 0.12170  0.18980  0.84980  Biso   1.000  O
  O9       1.0000 0.31050  0.32060  0.41220  Biso   1.000  O
  O10      1.0000 0.18950  0.82060  0.08780  Biso   1.000  O
  O11      1.0000 0.68950  0.67940  0.58780  Biso   1.000  O
  O12      1.0000 0.81050  0.17940  0.91220  Biso   1.000  O
  O13      1.0000 0.30860  0.25200  0.27070  Biso   1.000  O
  O14      1.0000 0.19140  0.75200  0.22930  Biso   1.000  O
  O15      1.0000 0.69140  0.74800  0.72930  Biso   1.000  O
  O16      1.0000 0.80860  0.24800  0.77070  Biso   1.000  O
  O17      1.0000 0.51330  0.61900  0.53610  Biso   1.000  O
  O18      1.0000 0.98670  0.11900  0.96390  Biso   1.000  O
  O19      1.0000 0.48670  0.38100  0.46390  Biso   1.000  O
  O20      1.0000 0.01330  0.88100  0.03610  Biso   1.000  O
  H73      1.0000 0.57718  0.63249  0.55070  Biso   1.000  H
  H74      1.0000 0.92282  0.13249  0.94930  Biso   1.000  H
  H75      1.0000 0.42282  0.36751  0.44930  Biso   1.000  H
  H76      1.0000 0.07718  0.86751  0.05070  Biso   1.000  H
  H77      1.0000 0.47751  0.63087  0.58767  Biso   1.000  H
  H78      1.0000 0.02249  0.13087  0.91233  Biso   1.000  H
  H79      1.0000 0.52249  0.36913  0.41233  Biso   1.000  H
  H80      1.0000 0.97751  0.86913  0.08767  Biso   1.000  H
  Cu1      1.0000 0.50000  0.50000  0.50000  Biso   1.000  Cu
  Cu2      1.0000 0.00000  0.00000  0.00000  Biso   1.000  Cu
  Cu3      1.0000 0.45594  0.22996  0.26100  Biso   1.000  Cu
  Cu4      1.0000 0.04406  0.72996  0.23900  Biso   1.000  Cu
  Cu5      1.0000 0.54406  0.77004  0.73900  Biso   1.000  Cu
  Cu6      1.0000 0.95594  0.27004  0.76100  Biso   1.000  Cu
  O21      1.0000 0.39800  0.11340  0.15810  Biso   1.000  O
  O22      1.0000 0.10200  0.61340  0.34190  Biso   1.000  O
  O23      1.0000 0.60200  0.88660  0.84190  Biso   1.000  O
  O24      1.0000 0.89800  0.38660  0.65810  Biso   1.000  O
  N25      1.0000 0.35500  0.53190  0.27000  Biso   1.000  N
  N26      1.0000 0.14500  0.03190  0.23000  Biso   1.000  N
  N27      1.0000 0.64500  0.46810  0.73000  Biso   1.000  N
  N28      1.0000 0.85500  0.96810  0.77000  Biso   1.000  N
  O25      1.0000 0.26090  0.51700  0.25650  Biso   1.000  O
  O26      1.0000 0.23910  0.01700  0.24350  Biso   1.000  O
  O27      1.0000 0.73910  0.48300  0.74350  Biso   1.000  O
  O28      1.0000 0.76090  0.98300  0.75650  Biso   1.000  O
  O29      1.0000 0.40850  0.52670  0.20070  Biso   1.000  O
  O30      1.0000 0.09150  0.02670  0.29930  Biso   1.000  O
  O31      1.0000 0.59150  0.47330  0.79930  Biso   1.000  O
  O32      1.0000 0.90850  0.97330  0.70070  Biso   1.000  O
  O33      1.0000 0.38830  0.55050  0.35370  Biso   1.000  O
  O34      1.0000 0.11170  0.05050  0.14630  Biso   1.000  O
  O35      1.0000 0.61170  0.44950  0.64630  Biso   1.000  O
  O36      1.0000 0.88830  0.94950  0.85370  Biso   1.000  O
