data_image0
_cell_length_a       7.5623
_cell_length_b       6.3355
_cell_length_c       13.6245
_cell_angle_alpha    90
_cell_angle_beta     104.307
_cell_angle_gamma    90

_symmetry_space_group_name_H-M    "P 1"
_symmetry_int_tables_number       1

loop_
  _symmetry_equiv_pos_as_xyz
  'x, y, z'

loop_
  _atom_site_label
  _atom_site_occupancy
  _atom_site_fract_x
  _atom_site_fract_y
  _atom_site_fract_z
  _atom_site_thermal_displace_type
  _atom_site_B_iso_or_equiv
  _atom_site_type_symbol
  C1       1.0000 0.25260  0.87600  0.34600  Biso   1.000  C
  C2       1.0000 0.74740  0.37600  0.65400  Biso   1.000  C
  C3       1.0000 0.40540  0.85200  0.70330  Biso   1.000  C
  C4       1.0000 0.59460  0.35200  0.29670  Biso   1.000  C
  H1       1.0000 0.53980  0.84730  0.72880  Biso   1.000  H
  H2       1.0000 0.46020  0.34730  0.27120  Biso   1.000  H
  H3       1.0000 0.35530  0.71950  0.72440  Biso   1.000  H
  H4       1.0000 0.64470  0.21950  0.27560  Biso   1.000  H
  C5       1.0000 0.33090  0.03790  0.74930  Biso   1.000  C
  C6       1.0000 0.66910  0.53790  0.25070  Biso   1.000  C
  H5       1.0000 0.19720  0.03470  0.72930  Biso   1.000  H
  H6       1.0000 0.80280  0.53470  0.27070  Biso   1.000  H
  H7       1.0000 0.37450  0.16910  0.72530  Biso   1.000  H
  H8       1.0000 0.62550  0.66910  0.27470  Biso   1.000  H
  H9       1.0000 0.37260  0.03090  0.82330  Biso   1.000  H
  H10      1.0000 0.62740  0.53090  0.17670  Biso   1.000  H
  Cu1      1.0000 0.49804  0.62050  0.49852  Biso   1.000  Cu
  Cu2      1.0000 0.50196  0.12050  0.50148  Biso   1.000  Cu
  N1       1.0000 0.64520  0.87480  0.47620  Biso   1.000  N
  N2       1.0000 0.35480  0.37480  0.52380  Biso   1.000  N
  N3       1.0000 0.80930  0.86770  0.50410  Biso   1.000  N
  N4       1.0000 0.19070  0.36770  0.49590  Biso   1.000  N
  N5       1.0000 0.96360  0.86400  0.52780  Biso   1.000  N
  N6       1.0000 0.03640  0.36400  0.47220  Biso   1.000  N
  O1       1.0000 0.30560  0.69210  0.37940  Biso   1.000  O
  O2       1.0000 0.69440  0.19210  0.62060  Biso   1.000  O
  O3       1.0000 0.30790  0.04780  0.38470  Biso   1.000  O
  O4       1.0000 0.69210  0.54780  0.61530  Biso   1.000  O
  O5       1.0000 0.35890  0.86430  0.59470  Biso   1.000  O
  O6       1.0000 0.64110  0.36430  0.40530  Biso   1.000  O
  H11      1.0000 0.25400  0.84700  0.57900  Biso   1.000  H
  H12      1.0000 0.74600  0.34700  0.42100  Biso   1.000  H
  C7       1.0000 0.24600  0.26700  0.02940  Biso   1.000  C
  C8       1.0000 0.75400  0.76700  0.97060  Biso   1.000  C
  C9       1.0000 0.32200  0.07300  0.05080  Biso   1.000  C
  C10      1.0000 0.67800  0.57300  0.94920  Biso   1.000  C
  H13      1.0000 0.41110  0.02340  0.01770  Biso   1.000  H
  H14      1.0000 0.58890  0.52340  0.98230  Biso   1.000  H
  C11      1.0000 0.26800  0.94900  0.12270  Biso   1.000  C
  C12      1.0000 0.73200  0.44900  0.87730  Biso   1.000  C
  H15      1.0000 0.31730  0.81120  0.13650  Biso   1.000  H
  H16      1.0000 0.68270  0.31120  0.86350  Biso   1.000  H
  C13      1.0000 0.14400  0.02100  0.17460  Biso   1.000  C
  C14      1.0000 0.85600  0.52100  0.82540  Biso   1.000  C
  C15      1.0000 0.07400  0.22000  0.15100  Biso   1.000  C
  C16      1.0000 0.92600  0.72000  0.84900  Biso   1.000  C
  H17      1.0000 0.98930  0.27360  0.18560  Biso   1.000  H
  H18      1.0000 0.01070  0.77360  0.81440  Biso   1.000  H
  C17      1.0000 0.12400  0.34800  0.07810  Biso   1.000  C
  C18      1.0000 0.87600  0.84800  0.92190  Biso   1.000  C
  H19      1.0000 0.07400  0.48490  0.06320  Biso   1.000  H
  H20      1.0000 0.92600  0.98490  0.93680  Biso   1.000  H
  F1       1.0000 0.29200  0.38700  0.95700  Biso   1.000  F
  F2       1.0000 0.70800  0.88700  0.04300  Biso   1.000  F
  C19      1.0000 0.09080  0.88500  0.25370  Biso   1.000  C
  C20      1.0000 0.90920  0.38500  0.74630  Biso   1.000  C
  H21      1.0000 0.05900  0.74130  0.22670  Biso   1.000  H
  H22      1.0000 0.94100  0.24130  0.77330  Biso   1.000  H
  H23      1.0000 0.98330  0.94610  0.27260  Biso   1.000  H
  H24      1.0000 0.01670  0.44610  0.72740  Biso   1.000  H
  C21      1.0000 0.23200  0.33000  0.03800  Biso   1.000  C
  C22      1.0000 0.76800  0.83000  0.96200  Biso   1.000  C
  C23      1.0000 0.33100  0.14700  0.04890  Biso   1.000  C
  C24      1.0000 0.66900  0.64700  0.95110  Biso   1.000  C
  H25      1.0000 0.42070  0.12480  0.01220  Biso   1.000  H
  H26      1.0000 0.57930  0.62480  0.98780  Biso   1.000  H
  C25      1.0000 0.29600  0.99500  0.11550  Biso   1.000  C
  C26      1.0000 0.70400  0.49500  0.88450  Biso   1.000  C
  H27      1.0000 0.36400  0.86740  0.12590  Biso   1.000  H
  H28      1.0000 0.63600  0.36740  0.87410  Biso   1.000  H
  C27      1.0000 0.16100  0.03000  0.16600  Biso   1.000  C
  C28      1.0000 0.83900  0.53000  0.83400  Biso   1.000  C
  C29      1.0000 0.06500  0.21600  0.15200  Biso   1.000  C
  C30      1.0000 0.93500  0.71600  0.84800  Biso   1.000  C
  H29      1.0000 0.97360  0.24050  0.18770  Biso   1.000  H
  H30      1.0000 0.02640  0.74050  0.81230  Biso   1.000  H
  C31      1.0000 0.09700  0.37200  0.08500  Biso   1.000  C
  C32      1.0000 0.90300  0.87200  0.91500  Biso   1.000  C
  H31      1.0000 0.02920  0.49910  0.07390  Biso   1.000  H
  H32      1.0000 0.97080  0.99910  0.92610  Biso   1.000  H
  F3       1.0000 0.26900  0.47300  0.97100  Biso   1.000  F
  F4       1.0000 0.73100  0.97300  0.02900  Biso   1.000  F
  C33      1.0000 0.12400  0.86400  0.23890  Biso   1.000  C
  C34      1.0000 0.87600  0.36400  0.76110  Biso   1.000  C
  H33      1.0000 0.13530  0.72260  0.21030  Biso   1.000  H
  H34      1.0000 0.86470  0.22260  0.78970  Biso   1.000  H
  H35      1.0000 0.99630  0.87960  0.24450  Biso   1.000  H
  H36      1.0000 0.00370  0.37960  0.75550  Biso   1.000  H
