data_image0
_cell_length_a       7.6149
_cell_length_b       6.433
_cell_length_c       13.355
_cell_angle_alpha    90
_cell_angle_beta     99.363
_cell_angle_gamma    90

_symmetry_space_group_name_H-M    "P 1"
_symmetry_int_tables_number       1

loop_
  _symmetry_equiv_pos_as_xyz
  'x, y, z'

loop_
  _atom_site_label
  _atom_site_occupancy
  _atom_site_fract_x
  _atom_site_fract_y
  _atom_site_fract_z
  _atom_site_thermal_displace_type
  _atom_site_B_iso_or_equiv
  _atom_site_type_symbol
  Cu1      1.0000 0.49491  0.46340  0.50216  Biso   1.000  Cu
  Cu2      1.0000 0.50509  0.96340  0.49784  Biso   1.000  Cu
  O1       1.0000 0.65920  0.54000  0.62380  Biso   1.000  O
  O2       1.0000 0.34080  0.04000  0.37620  Biso   1.000  O
  O3       1.0000 0.67250  0.88960  0.61830  Biso   1.000  O
  O4       1.0000 0.32750  0.38960  0.38170  Biso   1.000  O
  O5       1.0000 0.33900  0.21510  0.59430  Biso   1.000  O
  O6       1.0000 0.66100  0.71510  0.40570  Biso   1.000  O
  H1       1.0000 0.23100  0.21200  0.57800  Biso   1.000  H
  H2       1.0000 0.76900  0.71200  0.42200  Biso   1.000  H
  N1       1.0000 0.35060  0.71950  0.51660  Biso   1.000  N
  N2       1.0000 0.64940  0.21950  0.48340  Biso   1.000  N
  N3       1.0000 0.19290  0.72670  0.48910  Biso   1.000  N
  N4       1.0000 0.80710  0.22670  0.51090  Biso   1.000  N
  N5       1.0000 0.04440  0.73490  0.46530  Biso   1.000  N
  N6       1.0000 0.95560  0.23490  0.53470  Biso   1.000  N
  C1       1.0000 0.71160  0.71330  0.65800  Biso   1.000  C
  C2       1.0000 0.28840  0.21330  0.34200  Biso   1.000  C
  C3       1.0000 0.84330  0.71260  0.75730  Biso   1.000  C
  C4       1.0000 0.15670  0.21260  0.24270  Biso   1.000  C
  H3       1.0000 0.96272  0.70330  0.74116  Biso   1.000  H
  H4       1.0000 0.03728  0.20330  0.25884  Biso   1.000  H
  H5       1.0000 0.83407  0.84478  0.79106  Biso   1.000  H
  H6       1.0000 0.16593  0.34478  0.20894  Biso   1.000  H
  C5       1.0000 0.82050  0.54440  0.82950  Biso   1.000  C
  C6       1.0000 0.17950  0.04440  0.17050  Biso   1.000  C
  C7       1.0000 0.94100  0.38240  0.84850  Biso   1.000  C
  C8       1.0000 0.05900  0.88240  0.15150  Biso   1.000  C
  H7       1.0000 0.03781  0.37670  0.81410  Biso   1.000  H
  H8       1.0000 0.96219  0.87670  0.18590  Biso   1.000  H
  C9       1.0000 0.91920  0.23000  0.91770  Biso   1.000  C
  C10      1.0000 0.08080  0.73000  0.08230  Biso   1.000  C
  H9       1.0000 0.00262  0.12325  0.93009  Biso   1.000  H
  H10      1.0000 0.99738  0.62325  0.06991  Biso   1.000  H
  C11      1.0000 0.77790  0.23100  0.96840  Biso   1.000  C
  C12      1.0000 0.22210  0.73100  0.03160  Biso   1.000  C
  H11      1.0000 0.76492  0.12688  0.01475  Biso   1.000  H
  H12      1.0000 0.23508  0.62688  0.98525  Biso   1.000  H
  C13      1.0000 0.65610  0.38680  0.95070  Biso   1.000  C
  C14      1.0000 0.34390  0.88680  0.04930  Biso   1.000  C
  H13      1.0000 0.55709  0.38959  0.98333  Biso   1.000  H
  H14      1.0000 0.44291  0.88959  0.01667  Biso   1.000  H
  C15      1.0000 0.68380  0.54060  0.88280  Biso   1.000  C
  C16      1.0000 0.31620  0.04060  0.11720  Biso   1.000  C
  F1       1.0000 0.56190  0.69250  0.86520  Biso   1.000  F
  F2       1.0000 0.43810  0.19250  0.13480  Biso   1.000  F
  C17      1.0000 0.37490  0.21800  0.70300  Biso   1.000  C
  C18      1.0000 0.62510  0.71800  0.29700  Biso   1.000  C
  H15      1.0000 0.32870  0.34578  0.72756  Biso   1.000  H
  H16      1.0000 0.67130  0.84578  0.27244  Biso   1.000  H
  H17      1.0000 0.50247  0.21517  0.72587  Biso   1.000  H
  H18      1.0000 0.49753  0.71517  0.27413  Biso   1.000  H
  C19      1.0000 0.28860  0.03160  0.74610  Biso   1.000  C
  C20      1.0000 0.71140  0.53160  0.25390  Biso   1.000  C
  H19      1.0000 0.32212  0.02904  0.81851  Biso   1.000  H
  H20      1.0000 0.67788  0.52904  0.18149  Biso   1.000  H
  H21      1.0000 0.32777  0.90605  0.71774  Biso   1.000  H
  H22      1.0000 0.67223  0.40605  0.28226  Biso   1.000  H
  H23      1.0000 0.16146  0.04240  0.72899  Biso   1.000  H
  H24      1.0000 0.83854  0.54240  0.27101  Biso   1.000  H
