data_image0
_cell_length_a       27.11
_cell_length_b       7.258
_cell_length_c       17.837
_cell_angle_alpha    90
_cell_angle_beta     94.267
_cell_angle_gamma    90

_symmetry_space_group_name_H-M    "P 1"
_symmetry_int_tables_number       1

loop_
  _symmetry_equiv_pos_as_xyz
  'x, y, z'

loop_
  _atom_site_label
  _atom_site_occupancy
  _atom_site_fract_x
  _atom_site_fract_y
  _atom_site_fract_z
  _atom_site_thermal_displace_type
  _atom_site_B_iso_or_equiv
  _atom_site_type_symbol
  Cu1      1.0000 0.29204  0.16155  0.35076  Biso   1.000  Cu
  Cu2      1.0000 0.79204  0.66155  0.35076  Biso   1.000  Cu
  Cu3      1.0000 0.70796  0.16155  0.14924  Biso   1.000  Cu
  Cu4      1.0000 0.20796  0.66155  0.14924  Biso   1.000  Cu
  Cu5      1.0000 0.70796  0.83845  0.64924  Biso   1.000  Cu
  Cu6      1.0000 0.20796  0.33845  0.64924  Biso   1.000  Cu
  Cu7      1.0000 0.29204  0.83845  0.85076  Biso   1.000  Cu
  Cu8      1.0000 0.79204  0.33845  0.85076  Biso   1.000  Cu
  O1       1.0000 0.26010  0.31290  0.26740  Biso   1.000  O
  O2       1.0000 0.76010  0.81290  0.26740  Biso   1.000  O
  O3       1.0000 0.73990  0.31290  0.23260  Biso   1.000  O
  O4       1.0000 0.23990  0.81290  0.23260  Biso   1.000  O
  O5       1.0000 0.73990  0.68710  0.73260  Biso   1.000  O
  O6       1.0000 0.23990  0.18710  0.73260  Biso   1.000  O
  O7       1.0000 0.26010  0.68710  0.76740  Biso   1.000  O
  O8       1.0000 0.76010  0.18710  0.76740  Biso   1.000  O
  O9       1.0000 0.18515  0.41820  0.22520  Biso   1.000  O
  O10      1.0000 0.68515  0.91820  0.22520  Biso   1.000  O
  O11      1.0000 0.81485  0.41820  0.27480  Biso   1.000  O
  O12      1.0000 0.31485  0.91820  0.27480  Biso   1.000  O
  O13      1.0000 0.81485  0.58180  0.77480  Biso   1.000  O
  O14      1.0000 0.31485  0.08180  0.77480  Biso   1.000  O
  O15      1.0000 0.18515  0.58180  0.72520  Biso   1.000  O
  O16      1.0000 0.68515  0.08180  0.72520  Biso   1.000  O
  O17      1.0000 0.30697  0.06630  0.45240  Biso   1.000  O
  O18      1.0000 0.80697  0.56630  0.45240  Biso   1.000  O
  O19      1.0000 0.69303  0.06630  0.04760  Biso   1.000  O
  O20      1.0000 0.19303  0.56630  0.04760  Biso   1.000  O
  O21      1.0000 0.69303  0.93370  0.54760  Biso   1.000  O
  O22      1.0000 0.19303  0.43370  0.54760  Biso   1.000  O
  O23      1.0000 0.30697  0.93370  0.95240  Biso   1.000  O
  O24      1.0000 0.80697  0.43370  0.95240  Biso   1.000  O
  O25      1.0000 0.26950  0.97910  0.55290  Biso   1.000  O
  O26      1.0000 0.76950  0.47910  0.55290  Biso   1.000  O
  O27      1.0000 0.73050  0.97910  0.94710  Biso   1.000  O
  O28      1.0000 0.23050  0.47910  0.94710  Biso   1.000  O
  O29      1.0000 0.73050  0.02090  0.44710  Biso   1.000  O
  O30      1.0000 0.23050  0.52090  0.44710  Biso   1.000  O
  O31      1.0000 0.26950  0.02090  0.05290  Biso   1.000  O
  O32      1.0000 0.76950  0.52090  0.05290  Biso   1.000  O
  O33      1.0000 0.54483  0.48010  0.33600  Biso   1.000  O
  O34      1.0000 0.04483  0.98010  0.33600  Biso   1.000  O
  O35      1.0000 0.45517  0.48010  0.16400  Biso   1.000  O
  O36      1.0000 0.95517  0.98010  0.16400  Biso   1.000  O
  O37      1.0000 0.45517  0.51990  0.66400  Biso   1.000  O
  O38      1.0000 0.95517  0.01990  0.66400  Biso   1.000  O
  O39      1.0000 0.54483  0.51990  0.83600  Biso   1.000  O
  O40      1.0000 0.04483  0.01990  0.83600  Biso   1.000  O
  O41      1.0000 0.46924  0.93020  0.39320  Biso   1.000  O
  O42      1.0000 0.96924  0.43020  0.39320  Biso   1.000  O
  O43      1.0000 0.53076  0.93020  0.10680  Biso   1.000  O
  O44      1.0000 0.03076  0.43020  0.10680  Biso   1.000  O
  O45      1.0000 0.53076  0.06980  0.60680  Biso   1.000  O
  O46      1.0000 0.03076  0.56980  0.60680  Biso   1.000  O
  O47      1.0000 0.46924  0.06980  0.89320  Biso   1.000  O
  O48      1.0000 0.96924  0.56980  0.89320  Biso   1.000  O
  N1       1.0000 0.22454  0.06680  0.36050  Biso   1.000  N
  N2       1.0000 0.72454  0.56680  0.36050  Biso   1.000  N
  N3       1.0000 0.77546  0.06680  0.13950  Biso   1.000  N
  N4       1.0000 0.27546  0.56680  0.13950  Biso   1.000  N
  N5       1.0000 0.77546  0.93320  0.63950  Biso   1.000  N
  N6       1.0000 0.27546  0.43320  0.63950  Biso   1.000  N
  N7       1.0000 0.22454  0.93320  0.86050  Biso   1.000  N
  N8       1.0000 0.72454  0.43320  0.86050  Biso   1.000  N
  H1       1.0000 0.22060  0.96420  0.33130  Biso   1.000  H
  H2       1.0000 0.72060  0.46420  0.33130  Biso   1.000  H
  H3       1.0000 0.77940  0.96420  0.16870  Biso   1.000  H
  H4       1.0000 0.27940  0.46420  0.16870  Biso   1.000  H
  H5       1.0000 0.77940  0.03580  0.66870  Biso   1.000  H
  H6       1.0000 0.27940  0.53580  0.66870  Biso   1.000  H
  H7       1.0000 0.22060  0.03580  0.83130  Biso   1.000  H
  H8       1.0000 0.72060  0.53580  0.83130  Biso   1.000  H
  N9       1.0000 0.35527  0.30180  0.35240  Biso   1.000  N
  N10      1.0000 0.85527  0.80180  0.35240  Biso   1.000  N
  N11      1.0000 0.64473  0.30180  0.14760  Biso   1.000  N
  N12      1.0000 0.14473  0.80180  0.14760  Biso   1.000  N
  N13      1.0000 0.64473  0.69820  0.64760  Biso   1.000  N
  N14      1.0000 0.14473  0.19820  0.64760  Biso   1.000  N
  N15      1.0000 0.35527  0.69820  0.85240  Biso   1.000  N
  N16      1.0000 0.85527  0.19820  0.85240  Biso   1.000  N
  N17      1.0000 0.53689  0.31610  0.35800  Biso   1.000  N
  N18      1.0000 0.03689  0.81610  0.35800  Biso   1.000  N
  N19      1.0000 0.46311  0.31610  0.14200  Biso   1.000  N
  N20      1.0000 0.96311  0.81610  0.14200  Biso   1.000  N
  N21      1.0000 0.46311  0.68390  0.64200  Biso   1.000  N
  N22      1.0000 0.96311  0.18390  0.64200  Biso   1.000  N
  N23      1.0000 0.53689  0.68390  0.85800  Biso   1.000  N
  N24      1.0000 0.03689  0.18390  0.85800  Biso   1.000  N
  N25      1.0000 0.50200  0.05410  0.38340  Biso   1.000  N
  N26      1.0000 0.00200  0.55410  0.38340  Biso   1.000  N
  N27      1.0000 0.49800  0.05410  0.11660  Biso   1.000  N
  N28      1.0000 0.99800  0.55410  0.11660  Biso   1.000  N
  N29      1.0000 0.49800  0.94590  0.61660  Biso   1.000  N
  N30      1.0000 0.99800  0.44590  0.61660  Biso   1.000  N
  N31      1.0000 0.50200  0.94590  0.88340  Biso   1.000  N
  N32      1.0000 0.00200  0.44590  0.88340  Biso   1.000  N
  C1       1.0000 0.21310  0.32140  0.26880  Biso   1.000  C
  C2       1.0000 0.71310  0.82140  0.26880  Biso   1.000  C
  C3       1.0000 0.78690  0.32140  0.23120  Biso   1.000  C
  C4       1.0000 0.28690  0.82140  0.23120  Biso   1.000  C
  C5       1.0000 0.78690  0.67860  0.73120  Biso   1.000  C
  C6       1.0000 0.28690  0.17860  0.73120  Biso   1.000  C
  C7       1.0000 0.21310  0.67860  0.76880  Biso   1.000  C
  C8       1.0000 0.71310  0.17860  0.76880  Biso   1.000  C
  C9       1.0000 0.18930  0.20850  0.32870  Biso   1.000  C
  C10      1.0000 0.68930  0.70850  0.32870  Biso   1.000  C
  C11      1.0000 0.81070  0.20850  0.17130  Biso   1.000  C
  C12      1.0000 0.31070  0.70850  0.17130  Biso   1.000  C
  C13      1.0000 0.81070  0.79150  0.67130  Biso   1.000  C
  C14      1.0000 0.31070  0.29150  0.67130  Biso   1.000  C
  C15      1.0000 0.18930  0.79150  0.82870  Biso   1.000  C
  C16      1.0000 0.68930  0.29150  0.82870  Biso   1.000  C
  H9       1.0000 0.17990  0.28930  0.36860  Biso   1.000  H
  H10      1.0000 0.67990  0.78930  0.36860  Biso   1.000  H
  H11      1.0000 0.82010  0.28930  0.13140  Biso   1.000  H
  H12      1.0000 0.32010  0.78930  0.13140  Biso   1.000  H
  H13      1.0000 0.82010  0.71070  0.63140  Biso   1.000  H
  H14      1.0000 0.32010  0.21070  0.63140  Biso   1.000  H
  H15      1.0000 0.17990  0.71070  0.86860  Biso   1.000  H
  H16      1.0000 0.67990  0.21070  0.86860  Biso   1.000  H
  H17      1.0000 0.15970  0.14890  0.30670  Biso   1.000  H
  H18      1.0000 0.65970  0.64890  0.30670  Biso   1.000  H
  H19      1.0000 0.84030  0.14890  0.19330  Biso   1.000  H
  H20      1.0000 0.34030  0.64890  0.19330  Biso   1.000  H
  H21      1.0000 0.84030  0.85110  0.69330  Biso   1.000  H
  H22      1.0000 0.34030  0.35110  0.69330  Biso   1.000  H
  H23      1.0000 0.15970  0.85110  0.80670  Biso   1.000  H
  H24      1.0000 0.65970  0.35110  0.80670  Biso   1.000  H
  C17      1.0000 0.21970  0.01060  0.43950  Biso   1.000  C
  C18      1.0000 0.71970  0.51060  0.43950  Biso   1.000  C
  C19      1.0000 0.78030  0.01060  0.06050  Biso   1.000  C
  C20      1.0000 0.28030  0.51060  0.06050  Biso   1.000  C
  C21      1.0000 0.78030  0.98940  0.56050  Biso   1.000  C
  C22      1.0000 0.28030  0.48940  0.56050  Biso   1.000  C
  C23      1.0000 0.21970  0.98940  0.93950  Biso   1.000  C
  C24      1.0000 0.71970  0.48940  0.93950  Biso   1.000  C
  H25      1.0000 0.20680  0.88600  0.44020  Biso   1.000  H
  H26      1.0000 0.70680  0.38600  0.44020  Biso   1.000  H
  H27      1.0000 0.79320  0.88600  0.05980  Biso   1.000  H
  H28      1.0000 0.29320  0.38600  0.05980  Biso   1.000  H
  H29      1.0000 0.79320  0.11400  0.55980  Biso   1.000  H
  H30      1.0000 0.29320  0.61400  0.55980  Biso   1.000  H
  H31      1.0000 0.20680  0.11400  0.94020  Biso   1.000  H
  H32      1.0000 0.70680  0.61400  0.94020  Biso   1.000  H
  H33      1.0000 0.19620  0.09110  0.46150  Biso   1.000  H
  H34      1.0000 0.69620  0.59110  0.46150  Biso   1.000  H
  H35      1.0000 0.80380  0.09110  0.03850  Biso   1.000  H
  H36      1.0000 0.30380  0.59110  0.03850  Biso   1.000  H
  H37      1.0000 0.80380  0.90890  0.53850  Biso   1.000  H
  H38      1.0000 0.30380  0.40890  0.53850  Biso   1.000  H
  H39      1.0000 0.19620  0.90890  0.96150  Biso   1.000  H
  H40      1.0000 0.69620  0.40890  0.96150  Biso   1.000  H
  C25      1.0000 0.26880  0.01820  0.48680  Biso   1.000  C
  C26      1.0000 0.76880  0.51820  0.48680  Biso   1.000  C
  C27      1.0000 0.73120  0.01820  0.01320  Biso   1.000  C
  C28      1.0000 0.23120  0.51820  0.01320  Biso   1.000  C
  C29      1.0000 0.73120  0.98180  0.51320  Biso   1.000  C
  C30      1.0000 0.23120  0.48180  0.51320  Biso   1.000  C
  C31      1.0000 0.26880  0.98180  0.98680  Biso   1.000  C
  C32      1.0000 0.76880  0.48180  0.98680  Biso   1.000  C
  C33      1.0000 0.35280  0.48820  0.34810  Biso   1.000  C
  C34      1.0000 0.85280  0.98820  0.34810  Biso   1.000  C
  C35      1.0000 0.64720  0.48820  0.15190  Biso   1.000  C
  C36      1.0000 0.14720  0.98820  0.15190  Biso   1.000  C
  C37      1.0000 0.64720  0.51180  0.65190  Biso   1.000  C
  C38      1.0000 0.14720  0.01180  0.65190  Biso   1.000  C
  C39      1.0000 0.35280  0.51180  0.84810  Biso   1.000  C
  C40      1.0000 0.85280  0.01180  0.84810  Biso   1.000  C
  H41      1.0000 0.32190  0.54460  0.34530  Biso   1.000  H
  H42      1.0000 0.82190  0.04460  0.34530  Biso   1.000  H
  H43      1.0000 0.67810  0.54460  0.15470  Biso   1.000  H
  H44      1.0000 0.17810  0.04460  0.15470  Biso   1.000  H
  H45      1.0000 0.67810  0.45540  0.65470  Biso   1.000  H
  H46      1.0000 0.17810  0.95540  0.65470  Biso   1.000  H
  H47      1.0000 0.32190  0.45540  0.84530  Biso   1.000  H
  H48      1.0000 0.82190  0.95540  0.84530  Biso   1.000  H
  C41      1.0000 0.39410  0.59580  0.34780  Biso   1.000  C
  C42      1.0000 0.89410  0.09580  0.34780  Biso   1.000  C
  C43      1.0000 0.60590  0.59580  0.15220  Biso   1.000  C
  C44      1.0000 0.10590  0.09580  0.15220  Biso   1.000  C
  C45      1.0000 0.60590  0.40420  0.65220  Biso   1.000  C
  C46      1.0000 0.10590  0.90420  0.65220  Biso   1.000  C
  C47      1.0000 0.39410  0.40420  0.84780  Biso   1.000  C
  C48      1.0000 0.89410  0.90420  0.84780  Biso   1.000  C
  H49      1.0000 0.39100  0.72320  0.34470  Biso   1.000  H
  H50      1.0000 0.89100  0.22320  0.34470  Biso   1.000  H
  H51      1.0000 0.60900  0.72320  0.15530  Biso   1.000  H
  H52      1.0000 0.10900  0.22320  0.15530  Biso   1.000  H
  H53      1.0000 0.60900  0.27680  0.65530  Biso   1.000  H
  H54      1.0000 0.10900  0.77680  0.65530  Biso   1.000  H
  H55      1.0000 0.39100  0.27680  0.84470  Biso   1.000  H
  H56      1.0000 0.89100  0.77680  0.84470  Biso   1.000  H
  C49      1.0000 0.44030  0.51600  0.35210  Biso   1.000  C
  C50      1.0000 0.94030  0.01600  0.35210  Biso   1.000  C
  C51      1.0000 0.55970  0.51600  0.14790  Biso   1.000  C
  C52      1.0000 0.05970  0.01600  0.14790  Biso   1.000  C
  C53      1.0000 0.55970  0.48400  0.64790  Biso   1.000  C
  C54      1.0000 0.05970  0.98400  0.64790  Biso   1.000  C
  C55      1.0000 0.44030  0.48400  0.85210  Biso   1.000  C
  C56      1.0000 0.94030  0.98400  0.85210  Biso   1.000  C
  H57      1.0000 0.46850  0.58870  0.35120  Biso   1.000  H
  H58      1.0000 0.96850  0.08870  0.35120  Biso   1.000  H
  H59      1.0000 0.53150  0.58870  0.14880  Biso   1.000  H
  H60      1.0000 0.03150  0.08870  0.14880  Biso   1.000  H
  H61      1.0000 0.53150  0.41130  0.64880  Biso   1.000  H
  H62      1.0000 0.03150  0.91130  0.64880  Biso   1.000  H
  H63      1.0000 0.46850  0.41130  0.85120  Biso   1.000  H
  H64      1.0000 0.96850  0.91130  0.85120  Biso   1.000  H
  C57      1.0000 0.44430  0.32210  0.35810  Biso   1.000  C
  C58      1.0000 0.94430  0.82210  0.35810  Biso   1.000  C
  C59      1.0000 0.55570  0.32210  0.14190  Biso   1.000  C
  C60      1.0000 0.05570  0.82210  0.14190  Biso   1.000  C
  C61      1.0000 0.55570  0.67790  0.64190  Biso   1.000  C
  C62      1.0000 0.05570  0.17790  0.64190  Biso   1.000  C
  C63      1.0000 0.44430  0.67790  0.85810  Biso   1.000  C
  C64      1.0000 0.94430  0.17790  0.85810  Biso   1.000  C
  C65      1.0000 0.40020  0.22220  0.35840  Biso   1.000  C
  C66      1.0000 0.90020  0.72220  0.35840  Biso   1.000  C
  C67      1.0000 0.59980  0.22220  0.14160  Biso   1.000  C
  C68      1.0000 0.09980  0.72220  0.14160  Biso   1.000  C
  C69      1.0000 0.59980  0.77780  0.64160  Biso   1.000  C
  C70      1.0000 0.09980  0.27780  0.64160  Biso   1.000  C
  C71      1.0000 0.40020  0.77780  0.85840  Biso   1.000  C
  C72      1.0000 0.90020  0.27780  0.85840  Biso   1.000  C
  H65      1.0000 0.40200  0.09460  0.36290  Biso   1.000  H
  H66      1.0000 0.90200  0.59460  0.36290  Biso   1.000  H
  H67      1.0000 0.59800  0.09460  0.13710  Biso   1.000  H
  H68      1.0000 0.09800  0.59460  0.13710  Biso   1.000  H
  H69      1.0000 0.59800  0.90540  0.63710  Biso   1.000  H
  H70      1.0000 0.09800  0.40540  0.63710  Biso   1.000  H
  H71      1.0000 0.40200  0.90540  0.86290  Biso   1.000  H
  H72      1.0000 0.90200  0.40540  0.86290  Biso   1.000  H
  C73      1.0000 0.49290  0.23250  0.36530  Biso   1.000  C
  C74      1.0000 0.99290  0.73250  0.36530  Biso   1.000  C
  C75      1.0000 0.50710  0.23250  0.13470  Biso   1.000  C
  C76      1.0000 0.00710  0.73250  0.13470  Biso   1.000  C
  C77      1.0000 0.50710  0.76750  0.63470  Biso   1.000  C
  C78      1.0000 0.00710  0.26750  0.63470  Biso   1.000  C
  C79      1.0000 0.49290  0.76750  0.86530  Biso   1.000  C
  C80      1.0000 0.99290  0.26750  0.86530  Biso   1.000  C
  C81      1.0000 0.57990  0.19780  0.38900  Biso   1.000  C
  C82      1.0000 0.07990  0.69780  0.38900  Biso   1.000  C
  C83      1.0000 0.42010  0.19780  0.11100  Biso   1.000  C
  C84      1.0000 0.92010  0.69780  0.11100  Biso   1.000  C
  C85      1.0000 0.42010  0.80220  0.61100  Biso   1.000  C
  C86      1.0000 0.92010  0.30220  0.61100  Biso   1.000  C
  C87      1.0000 0.57990  0.80220  0.88900  Biso   1.000  C
  C88      1.0000 0.07990  0.30220  0.88900  Biso   1.000  C
  C89      1.0000 0.62450  0.22820  0.34280  Biso   1.000  C
  C90      1.0000 0.12450  0.72820  0.34280  Biso   1.000  C
  C91      1.0000 0.37550  0.22820  0.15720  Biso   1.000  C
  C92      1.0000 0.87550  0.72820  0.15720  Biso   1.000  C
  C93      1.0000 0.37550  0.77180  0.65720  Biso   1.000  C
  C94      1.0000 0.87550  0.27180  0.65720  Biso   1.000  C
  C95      1.0000 0.62450  0.77180  0.84280  Biso   1.000  C
  C96      1.0000 0.12450  0.27180  0.84280  Biso   1.000  C
  H73      1.0000 0.61640  0.18910  0.29190  Biso   1.000  H
  H74      1.0000 0.11640  0.68910  0.29190  Biso   1.000  H
  H75      1.0000 0.38360  0.18910  0.20810  Biso   1.000  H
  H76      1.0000 0.88360  0.68910  0.20810  Biso   1.000  H
  H77      1.0000 0.38360  0.81090  0.70810  Biso   1.000  H
  H78      1.0000 0.88360  0.31090  0.70810  Biso   1.000  H
  H79      1.0000 0.61640  0.81090  0.79190  Biso   1.000  H
  H80      1.0000 0.11640  0.31090  0.79190  Biso   1.000  H
  H81      1.0000 0.65200  0.15790  0.36410  Biso   1.000  H
  H82      1.0000 0.15200  0.65790  0.36410  Biso   1.000  H
  H83      1.0000 0.34800  0.15790  0.13590  Biso   1.000  H
  H84      1.0000 0.84800  0.65790  0.13590  Biso   1.000  H
  H85      1.0000 0.34800  0.84210  0.63590  Biso   1.000  H
  H86      1.0000 0.84800  0.34210  0.63590  Biso   1.000  H
  H87      1.0000 0.65200  0.84210  0.86410  Biso   1.000  H
  H88      1.0000 0.15200  0.34210  0.86410  Biso   1.000  H
  H89      1.0000 0.63290  0.35660  0.34330  Biso   1.000  H
  H90      1.0000 0.13290  0.85660  0.34330  Biso   1.000  H
  H91      1.0000 0.36710  0.35660  0.15670  Biso   1.000  H
  H92      1.0000 0.86710  0.85660  0.15670  Biso   1.000  H
  H93      1.0000 0.36710  0.64340  0.65670  Biso   1.000  H
  H94      1.0000 0.86710  0.14340  0.65670  Biso   1.000  H
  H95      1.0000 0.63290  0.64340  0.84330  Biso   1.000  H
  H96      1.0000 0.13290  0.14340  0.84330  Biso   1.000  H
  C97      1.0000 0.59140  0.25760  0.46950  Biso   1.000  C
  C98      1.0000 0.09140  0.75760  0.46950  Biso   1.000  C
  C99      1.0000 0.40860  0.25760  0.03050  Biso   1.000  C
  C100     1.0000 0.90860  0.75760  0.03050  Biso   1.000  C
  C101     1.0000 0.40860  0.74240  0.53050  Biso   1.000  C
  C102     1.0000 0.90860  0.24240  0.53050  Biso   1.000  C
  C103     1.0000 0.59140  0.74240  0.96950  Biso   1.000  C
  C104     1.0000 0.09140  0.24240  0.96950  Biso   1.000  C
  H97      1.0000 0.60010  0.38580  0.47080  Biso   1.000  H
  H98      1.0000 0.10010  0.88580  0.47080  Biso   1.000  H
  H99      1.0000 0.39990  0.38580  0.02920  Biso   1.000  H
  H100     1.0000 0.89990  0.88580  0.02920  Biso   1.000  H
  H101     1.0000 0.39990  0.61420  0.52920  Biso   1.000  H
  H102     1.0000 0.89990  0.11420  0.52920  Biso   1.000  H
  H103     1.0000 0.60010  0.61420  0.97080  Biso   1.000  H
  H104     1.0000 0.10010  0.11420  0.97080  Biso   1.000  H
  H105     1.0000 0.61850  0.18620  0.49170  Biso   1.000  H
  H106     1.0000 0.11850  0.68620  0.49170  Biso   1.000  H
  H107     1.0000 0.38150  0.18620  0.00830  Biso   1.000  H
  H108     1.0000 0.88150  0.68620  0.00830  Biso   1.000  H
  H109     1.0000 0.38150  0.81380  0.50830  Biso   1.000  H
  H110     1.0000 0.88150  0.31380  0.50830  Biso   1.000  H
  H111     1.0000 0.61850  0.81380  0.99170  Biso   1.000  H
  H112     1.0000 0.11850  0.31380  0.99170  Biso   1.000  H
  H113     1.0000 0.56280  0.23900  0.49740  Biso   1.000  H
  H114     1.0000 0.06280  0.73900  0.49740  Biso   1.000  H
  H115     1.0000 0.43720  0.23900  0.00260  Biso   1.000  H
  H116     1.0000 0.93720  0.73900  0.00260  Biso   1.000  H
  H117     1.0000 0.43720  0.76100  0.50260  Biso   1.000  H
  H118     1.0000 0.93720  0.26100  0.50260  Biso   1.000  H
  H119     1.0000 0.56280  0.76100  0.99740  Biso   1.000  H
  H120     1.0000 0.06280  0.26100  0.99740  Biso   1.000  H
  C105     1.0000 0.55600  0.00400  0.37990  Biso   1.000  C
  C106     1.0000 0.05600  0.50400  0.37990  Biso   1.000  C
  C107     1.0000 0.44400  0.00400  0.12010  Biso   1.000  C
  C108     1.0000 0.94400  0.50400  0.12010  Biso   1.000  C
  C109     1.0000 0.44400  0.99600  0.62010  Biso   1.000  C
  C110     1.0000 0.94400  0.49600  0.62010  Biso   1.000  C
  C111     1.0000 0.55600  0.99600  0.87990  Biso   1.000  C
  C112     1.0000 0.05600  0.49600  0.87990  Biso   1.000  C
  C113     1.0000 0.56020  0.91800  0.30300  Biso   1.000  C
  C114     1.0000 0.06020  0.41800  0.30300  Biso   1.000  C
  C115     1.0000 0.43980  0.91800  0.19700  Biso   1.000  C
  C116     1.0000 0.93980  0.41800  0.19700  Biso   1.000  C
  C117     1.0000 0.43980  0.08200  0.69700  Biso   1.000  C
  C118     1.0000 0.93980  0.58200  0.69700  Biso   1.000  C
  C119     1.0000 0.56020  0.08200  0.80300  Biso   1.000  C
  C120     1.0000 0.06020  0.58200  0.80300  Biso   1.000  C
  H121     1.0000 0.59410  0.88620  0.29720  Biso   1.000  H
  H122     1.0000 0.09410  0.38620  0.29720  Biso   1.000  H
  H123     1.0000 0.40590  0.88620  0.20280  Biso   1.000  H
  H124     1.0000 0.90590  0.38620  0.20280  Biso   1.000  H
  H125     1.0000 0.40590  0.11380  0.70280  Biso   1.000  H
  H126     1.0000 0.90590  0.61380  0.70280  Biso   1.000  H
  H127     1.0000 0.59410  0.11380  0.79720  Biso   1.000  H
  H128     1.0000 0.09410  0.61380  0.79720  Biso   1.000  H
  H129     1.0000 0.54900  0.00450  0.26470  Biso   1.000  H
  H130     1.0000 0.04900  0.50450  0.26470  Biso   1.000  H
  H131     1.0000 0.45100  0.00450  0.23530  Biso   1.000  H
  H132     1.0000 0.95100  0.50450  0.23530  Biso   1.000  H
  H133     1.0000 0.45100  0.99550  0.73530  Biso   1.000  H
  H134     1.0000 0.95100  0.49550  0.73530  Biso   1.000  H
  H135     1.0000 0.54900  0.99550  0.76470  Biso   1.000  H
  H136     1.0000 0.04900  0.49550  0.76470  Biso   1.000  H
  H137     1.0000 0.54010  0.80910  0.29860  Biso   1.000  H
  H138     1.0000 0.04010  0.30910  0.29860  Biso   1.000  H
  H139     1.0000 0.45990  0.80910  0.20140  Biso   1.000  H
  H140     1.0000 0.95990  0.30910  0.20140  Biso   1.000  H
  H141     1.0000 0.45990  0.19090  0.70140  Biso   1.000  H
  H142     1.0000 0.95990  0.69090  0.70140  Biso   1.000  H
  H143     1.0000 0.54010  0.19090  0.79860  Biso   1.000  H
  H144     1.0000 0.04010  0.69090  0.79860  Biso   1.000  H
  C121     1.0000 0.57120  0.86960  0.44290  Biso   1.000  C
  C122     1.0000 0.07120  0.36960  0.44290  Biso   1.000  C
  C123     1.0000 0.42880  0.86960  0.05710  Biso   1.000  C
  C124     1.0000 0.92880  0.36960  0.05710  Biso   1.000  C
  C125     1.0000 0.42880  0.13040  0.55710  Biso   1.000  C
  C126     1.0000 0.92880  0.63040  0.55710  Biso   1.000  C
  C127     1.0000 0.57120  0.13040  0.94290  Biso   1.000  C
  C128     1.0000 0.07120  0.63040  0.94290  Biso   1.000  C
  H145     1.0000 0.55790  0.75000  0.43060  Biso   1.000  H
  H146     1.0000 0.05790  0.25000  0.43060  Biso   1.000  H
  H147     1.0000 0.44210  0.75000  0.06940  Biso   1.000  H
  H148     1.0000 0.94210  0.25000  0.06940  Biso   1.000  H
  H149     1.0000 0.44210  0.25000  0.56940  Biso   1.000  H
  H150     1.0000 0.94210  0.75000  0.56940  Biso   1.000  H
  H151     1.0000 0.55790  0.25000  0.93060  Biso   1.000  H
  H152     1.0000 0.05790  0.75000  0.93060  Biso   1.000  H
  H153     1.0000 0.55880  0.91180  0.48890  Biso   1.000  H
  H154     1.0000 0.05880  0.41180  0.48890  Biso   1.000  H
  H155     1.0000 0.44120  0.91180  0.01110  Biso   1.000  H
  H156     1.0000 0.94120  0.41180  0.01110  Biso   1.000  H
  H157     1.0000 0.44120  0.08820  0.51110  Biso   1.000  H
  H158     1.0000 0.94120  0.58820  0.51110  Biso   1.000  H
  H159     1.0000 0.55880  0.08820  0.98890  Biso   1.000  H
  H160     1.0000 0.05880  0.58820  0.98890  Biso   1.000  H
  H161     1.0000 0.60670  0.86240  0.44900  Biso   1.000  H
  H162     1.0000 0.10670  0.36240  0.44900  Biso   1.000  H
  H163     1.0000 0.39330  0.86240  0.05100  Biso   1.000  H
  H164     1.0000 0.89330  0.36240  0.05100  Biso   1.000  H
  H165     1.0000 0.39330  0.13760  0.55100  Biso   1.000  H
  H166     1.0000 0.89330  0.63760  0.55100  Biso   1.000  H
  H167     1.0000 0.60670  0.13760  0.94900  Biso   1.000  H
  H168     1.0000 0.10670  0.63760  0.94900  Biso   1.000  H
