data_image0
_cell_length_a       9.293
_cell_length_b       7.7249
_cell_length_c       24.945
_cell_angle_alpha    90
_cell_angle_beta     96.686
_cell_angle_gamma    90

_symmetry_space_group_name_H-M    "P 1"
_symmetry_int_tables_number       1

loop_
  _symmetry_equiv_pos_as_xyz
  'x, y, z'

loop_
  _atom_site_label
  _atom_site_occupancy
  _atom_site_fract_x
  _atom_site_fract_y
  _atom_site_fract_z
  _atom_site_thermal_displace_type
  _atom_site_B_iso_or_equiv
  _atom_site_type_symbol
  Cu1      1.0000 0.27702  0.72045  0.20707  Biso   1.000  Cu
  Cu2      1.0000 0.72298  0.22045  0.29293  Biso   1.000  Cu
  Cu3      1.0000 0.72298  0.27955  0.79293  Biso   1.000  Cu
  Cu4      1.0000 0.27702  0.77955  0.70707  Biso   1.000  Cu
  N1       1.0000 0.29270  0.55790  0.14635  Biso   1.000  N
  N2       1.0000 0.70730  0.05790  0.35365  Biso   1.000  N
  N3       1.0000 0.70730  0.44210  0.85365  Biso   1.000  N
  N4       1.0000 0.29270  0.94210  0.64635  Biso   1.000  N
  N5       1.0000 0.24620  0.06860  0.00579  Biso   1.000  N
  N6       1.0000 0.75380  0.56860  0.49421  Biso   1.000  N
  N7       1.0000 0.75380  0.93140  0.99421  Biso   1.000  N
  N8       1.0000 0.24620  0.43140  0.50579  Biso   1.000  N
  N9       1.0000 0.24610  0.30820  0.95536  Biso   1.000  N
  N10      1.0000 0.75390  0.80820  0.54464  Biso   1.000  N
  N11      1.0000 0.75390  0.69180  0.04464  Biso   1.000  N
  N12      1.0000 0.24610  0.19180  0.45536  Biso   1.000  N
  N13      1.0000 0.23830  0.90860  0.25637  Biso   1.000  N
  N14      1.0000 0.76170  0.40860  0.24363  Biso   1.000  N
  N15      1.0000 0.76170  0.09140  0.74363  Biso   1.000  N
  N16      1.0000 0.23830  0.59140  0.75637  Biso   1.000  N
  H1       1.0000 0.17600  0.98100  0.23720  Biso   1.000  H
  H2       1.0000 0.82400  0.48100  0.26280  Biso   1.000  H
  H3       1.0000 0.82400  0.01900  0.76280  Biso   1.000  H
  H4       1.0000 0.17600  0.51900  0.73720  Biso   1.000  H
  O1       1.0000 0.26820  0.96180  0.04270  Biso   1.000  O
  O2       1.0000 0.73180  0.46180  0.45730  Biso   1.000  O
  O3       1.0000 0.73180  0.03820  0.95730  Biso   1.000  O
  O4       1.0000 0.26820  0.53820  0.54270  Biso   1.000  O
  O5       1.0000 0.26940  0.45950  0.93994  Biso   1.000  O
  O6       1.0000 0.73060  0.95950  0.56006  Biso   1.000  O
  O7       1.0000 0.73060  0.54050  0.06006  Biso   1.000  O
  O8       1.0000 0.26940  0.04050  0.43994  Biso   1.000  O
  O9       1.0000 0.10270  0.61720  0.23083  Biso   1.000  O
  O10      1.0000 0.89730  0.11720  0.26917  Biso   1.000  O
  O11      1.0000 0.89730  0.38280  0.76917  Biso   1.000  O
  O12      1.0000 0.10270  0.88280  0.73083  Biso   1.000  O
  O13      1.0000 0.97040  0.62970  0.30002  Biso   1.000  O
  O14      1.0000 0.02960  0.12970  0.19998  Biso   1.000  O
  O15      1.0000 0.02960  0.37030  0.69998  Biso   1.000  O
  O16      1.0000 0.97040  0.87030  0.80002  Biso   1.000  O
  O17      1.0000 0.42950  0.87540  0.18749  Biso   1.000  O
  O18      1.0000 0.57050  0.37540  0.31251  Biso   1.000  O
  O19      1.0000 0.57050  0.12460  0.81251  Biso   1.000  O
  O20      1.0000 0.42950  0.62460  0.68749  Biso   1.000  O
  O21      1.0000 0.57800  0.07820  0.22463  Biso   1.000  O
  O22      1.0000 0.42200  0.57820  0.27537  Biso   1.000  O
  O23      1.0000 0.42200  0.92180  0.77537  Biso   1.000  O
  O24      1.0000 0.57800  0.42180  0.72463  Biso   1.000  O
  C1       1.0000 0.24830  0.39250  0.14781  Biso   1.000  C
  C2       1.0000 0.75170  0.89250  0.35219  Biso   1.000  C
  C3       1.0000 0.75170  0.60750  0.85219  Biso   1.000  C
  C4       1.0000 0.24830  0.10750  0.64781  Biso   1.000  C
  H5       1.0000 0.21950  0.34990  0.17980  Biso   1.000  H
  H6       1.0000 0.78050  0.84990  0.32020  Biso   1.000  H
  H7       1.0000 0.78050  0.65010  0.82020  Biso   1.000  H
  H8       1.0000 0.21950  0.15010  0.67980  Biso   1.000  H
  C5       1.0000 0.24370  0.28370  0.10404  Biso   1.000  C
  C6       1.0000 0.75630  0.78370  0.39596  Biso   1.000  C
  C7       1.0000 0.75630  0.71630  0.89596  Biso   1.000  C
  C8       1.0000 0.24370  0.21630  0.60404  Biso   1.000  C
  H9       1.0000 0.21400  0.16950  0.10690  Biso   1.000  H
  H10      1.0000 0.78600  0.66950  0.39310  Biso   1.000  H
  H11      1.0000 0.78600  0.83050  0.89310  Biso   1.000  H
  H12      1.0000 0.21400  0.33050  0.60690  Biso   1.000  H
  C9       1.0000 0.28370  0.34520  0.05545  Biso   1.000  C
  C10      1.0000 0.71630  0.84520  0.44455  Biso   1.000  C
  C11      1.0000 0.71630  0.65480  0.94455  Biso   1.000  C
  C12      1.0000 0.28370  0.15480  0.55545  Biso   1.000  C
  C13      1.0000 0.33370  0.51460  0.05434  Biso   1.000  C
  C14      1.0000 0.66630  0.01460  0.44566  Biso   1.000  C
  C15      1.0000 0.66630  0.48540  0.94566  Biso   1.000  C
  C16      1.0000 0.33370  0.98540  0.55434  Biso   1.000  C
  H13      1.0000 0.36430  0.56000  0.02310  Biso   1.000  H
  H14      1.0000 0.63570  0.06000  0.47690  Biso   1.000  H
  H15      1.0000 0.63570  0.44000  0.97690  Biso   1.000  H
  H16      1.0000 0.36430  0.94000  0.52310  Biso   1.000  H
  C17      1.0000 0.33710  0.61450  0.10035  Biso   1.000  C
  C18      1.0000 0.66290  0.11450  0.39965  Biso   1.000  C
  C19      1.0000 0.66290  0.38550  0.89965  Biso   1.000  C
  C20      1.0000 0.33710  0.88550  0.60035  Biso   1.000  C
  H17      1.0000 0.37220  0.72700  0.09930  Biso   1.000  H
  H18      1.0000 0.62780  0.22700  0.40070  Biso   1.000  H
  H19      1.0000 0.62780  0.27300  0.90070  Biso   1.000  H
  H20      1.0000 0.37220  0.77300  0.59930  Biso   1.000  H
  C21      1.0000 0.26160  0.23830  0.00582  Biso   1.000  C
  C22      1.0000 0.73840  0.73830  0.49418  Biso   1.000  C
  C23      1.0000 0.73840  0.76170  0.99418  Biso   1.000  C
  C24      1.0000 0.26160  0.26170  0.50582  Biso   1.000  C
  C25      1.0000 0.22710  0.00710  0.94836  Biso   1.000  C
  C26      1.0000 0.77290  0.50710  0.55164  Biso   1.000  C
  C27      1.0000 0.77290  0.99290  0.05164  Biso   1.000  C
  C28      1.0000 0.22710  0.49290  0.44836  Biso   1.000  C
  C29      1.0000 0.18460  0.17380  0.91617  Biso   1.000  C
  C30      1.0000 0.81540  0.67380  0.58383  Biso   1.000  C
  C31      1.0000 0.81540  0.82620  0.08383  Biso   1.000  C
  C32      1.0000 0.18460  0.32620  0.41617  Biso   1.000  C
  C33      1.0000 0.11490  0.86280  0.94243  Biso   1.000  C
  C34      1.0000 0.88510  0.36280  0.55757  Biso   1.000  C
  C35      1.0000 0.88510  0.13720  0.05757  Biso   1.000  C
  C36      1.0000 0.11490  0.63720  0.44243  Biso   1.000  C
  H21      1.0000 0.15060  0.76500  0.96380  Biso   1.000  H
  H22      1.0000 0.84940  0.26500  0.53620  Biso   1.000  H
  H23      1.0000 0.84940  0.23500  0.03620  Biso   1.000  H
  H24      1.0000 0.15060  0.73500  0.46380  Biso   1.000  H
  H25      1.0000 0.09680  0.82910  0.90520  Biso   1.000  H
  H26      1.0000 0.90320  0.32910  0.59480  Biso   1.000  H
  H27      1.0000 0.90320  0.17090  0.09480  Biso   1.000  H
  H28      1.0000 0.09680  0.67090  0.40520  Biso   1.000  H
  H29      1.0000 0.02650  0.90310  0.95460  Biso   1.000  H
  H30      1.0000 0.97350  0.40310  0.54540  Biso   1.000  H
  H31      1.0000 0.97350  0.09690  0.04540  Biso   1.000  H
  H32      1.0000 0.02650  0.59690  0.45460  Biso   1.000  H
  C37      1.0000 0.37540  0.93580  0.93713  Biso   1.000  C
  C38      1.0000 0.62460  0.43580  0.56287  Biso   1.000  C
  C39      1.0000 0.62460  0.06420  0.06287  Biso   1.000  C
  C40      1.0000 0.37540  0.56420  0.43713  Biso   1.000  C
  H33      1.0000 0.44650  0.02630  0.94220  Biso   1.000  H
  H34      1.0000 0.55350  0.52630  0.55780  Biso   1.000  H
  H35      1.0000 0.55350  0.97370  0.05780  Biso   1.000  H
  H36      1.0000 0.44650  0.47370  0.44220  Biso   1.000  H
  H37      1.0000 0.36890  0.89440  0.90070  Biso   1.000  H
  H38      1.0000 0.63110  0.39440  0.59930  Biso   1.000  H
  H39      1.0000 0.63110  0.10560  0.09930  Biso   1.000  H
  H40      1.0000 0.36890  0.60560  0.40070  Biso   1.000  H
  H41      1.0000 0.40320  0.84240  0.96160  Biso   1.000  H
  H42      1.0000 0.59680  0.34240  0.53840  Biso   1.000  H
  H43      1.0000 0.59680  0.15760  0.03840  Biso   1.000  H
  H44      1.0000 0.40320  0.65760  0.46160  Biso   1.000  H
  C41      1.0000 0.02090  0.20640  0.90730  Biso   1.000  C
  C42      1.0000 0.97910  0.70640  0.59270  Biso   1.000  C
  C43      1.0000 0.97910  0.79360  0.09270  Biso   1.000  C
  C44      1.0000 0.02090  0.29360  0.40730  Biso   1.000  C
  H45      1.0000 0.98060  0.18920  0.94060  Biso   1.000  H
  H46      1.0000 0.01940  0.68920  0.55940  Biso   1.000  H
  H47      1.0000 0.01940  0.81080  0.05940  Biso   1.000  H
  H48      1.0000 0.98060  0.31080  0.44060  Biso   1.000  H
  H49      1.0000 0.97670  0.12740  0.88060  Biso   1.000  H
  H50      1.0000 0.02330  0.62740  0.61940  Biso   1.000  H
  H51      1.0000 0.02330  0.87260  0.11940  Biso   1.000  H
  H52      1.0000 0.97670  0.37260  0.38060  Biso   1.000  H
  H53      1.0000 0.00300  0.32320  0.89510  Biso   1.000  H
  H54      1.0000 0.99700  0.82320  0.60490  Biso   1.000  H
  H55      1.0000 0.99700  0.67680  0.10490  Biso   1.000  H
  H56      1.0000 0.00300  0.17680  0.39510  Biso   1.000  H
  C45      1.0000 0.24510  0.19380  0.86236  Biso   1.000  C
  C46      1.0000 0.75490  0.69380  0.63764  Biso   1.000  C
  C47      1.0000 0.75490  0.80620  0.13764  Biso   1.000  C
  C48      1.0000 0.24510  0.30620  0.36236  Biso   1.000  C
  H57      1.0000 0.21510  0.30310  0.84650  Biso   1.000  H
  H58      1.0000 0.78490  0.80310  0.65350  Biso   1.000  H
  H59      1.0000 0.78490  0.69690  0.15350  Biso   1.000  H
  H60      1.0000 0.21510  0.19690  0.34650  Biso   1.000  H
  H61      1.0000 0.20950  0.10180  0.83860  Biso   1.000  H
  H62      1.0000 0.79050  0.60180  0.66140  Biso   1.000  H
  H63      1.0000 0.79050  0.89820  0.16140  Biso   1.000  H
  H64      1.0000 0.20950  0.39820  0.33860  Biso   1.000  H
  H65      1.0000 0.34900  0.18920  0.86810  Biso   1.000  H
  H66      1.0000 0.65100  0.68920  0.63190  Biso   1.000  H
  H67      1.0000 0.65100  0.81080  0.13190  Biso   1.000  H
  H68      1.0000 0.34900  0.31080  0.36810  Biso   1.000  H
  C49      1.0000 0.07040  0.68130  0.27525  Biso   1.000  C
  C50      1.0000 0.92960  0.18130  0.22475  Biso   1.000  C
  C51      1.0000 0.92960  0.31870  0.72475  Biso   1.000  C
  C52      1.0000 0.07040  0.81870  0.77525  Biso   1.000  C
  C53      1.0000 0.16490  0.83000  0.29924  Biso   1.000  C
  C54      1.0000 0.83510  0.33000  0.20076  Biso   1.000  C
  C55      1.0000 0.83510  0.17000  0.70076  Biso   1.000  C
  C56      1.0000 0.16490  0.67000  0.79924  Biso   1.000  C
  H69      1.0000 0.10540  0.91570  0.31460  Biso   1.000  H
  H70      1.0000 0.89460  0.41570  0.18540  Biso   1.000  H
  H71      1.0000 0.89460  0.08430  0.68540  Biso   1.000  H
  H72      1.0000 0.10540  0.58430  0.81460  Biso   1.000  H
  H73      1.0000 0.23590  0.78700  0.32770  Biso   1.000  H
  H74      1.0000 0.76410  0.28700  0.17230  Biso   1.000  H
  H75      1.0000 0.76410  0.21300  0.67230  Biso   1.000  H
  H76      1.0000 0.23590  0.71300  0.82770  Biso   1.000  H
  C57      1.0000 0.37680  0.99860  0.27079  Biso   1.000  C
  C58      1.0000 0.62320  0.49860  0.22921  Biso   1.000  C
  C59      1.0000 0.62320  0.00140  0.72921  Biso   1.000  C
  C60      1.0000 0.37680  0.50140  0.77079  Biso   1.000  C
  H77      1.0000 0.42780  0.94680  0.30300  Biso   1.000  H
  H78      1.0000 0.57220  0.44680  0.19700  Biso   1.000  H
  H79      1.0000 0.57220  0.05320  0.69700  Biso   1.000  H
  H80      1.0000 0.42780  0.55320  0.80300  Biso   1.000  H
  H81      1.0000 0.35880  0.11930  0.27850  Biso   1.000  H
  H82      1.0000 0.64120  0.61930  0.22150  Biso   1.000  H
  H83      1.0000 0.64120  0.88070  0.72150  Biso   1.000  H
  H84      1.0000 0.35880  0.38070  0.77850  Biso   1.000  H
  C61      1.0000 0.46960  0.98590  0.22430  Biso   1.000  C
  C62      1.0000 0.53040  0.48590  0.27570  Biso   1.000  C
  C63      1.0000 0.53040  0.01410  0.77570  Biso   1.000  C
  C64      1.0000 0.46960  0.51410  0.72430  Biso   1.000  C
