data_image0
_cell_length_a       8.9
_cell_length_b       9.805
_cell_length_c       11.494
_cell_angle_alpha    113.895
_cell_angle_beta     101.188
_cell_angle_gamma    97.633

_symmetry_space_group_name_H-M    "P 1"
_symmetry_int_tables_number       1

loop_
  _symmetry_equiv_pos_as_xyz
  'x, y, z'

loop_
  _atom_site_label
  _atom_site_occupancy
  _atom_site_fract_x
  _atom_site_fract_y
  _atom_site_fract_z
  _atom_site_thermal_displace_type
  _atom_site_B_iso_or_equiv
  _atom_site_type_symbol
  Cu1      1.0000 0.50000  0.00000  0.50000  Biso   1.000  Cu
  Cu2      1.0000 0.36831  0.40286  0.26358  Biso   1.000  Cu
  Cu3      1.0000 0.63169  0.59714  0.73642  Biso   1.000  Cu
  N1       1.0000 0.13820  0.41920  0.21370  Biso   1.000  N
  N2       1.0000 0.86180  0.58080  0.78630  Biso   1.000  N
  N3       1.0000 0.36440  0.38640  0.05880  Biso   1.000  N
  N4       1.0000 0.63560  0.61360  0.94120  Biso   1.000  N
  O1       1.0000 0.31140  0.82820  0.41190  Biso   1.000  O
  O2       1.0000 0.68860  0.17180  0.58810  Biso   1.000  O
  O3       1.0000 0.42040  0.62700  0.35870  Biso   1.000  O
  O4       1.0000 0.57960  0.37300  0.64130  Biso   1.000  O
  O5       1.0000 0.25120  0.39830  0.43820  Biso   1.000  O
  O6       1.0000 0.74880  0.60170  0.56180  Biso   1.000  O
  O7       1.0000 0.01850  0.28660  0.44110  Biso   1.000  O
  O8       1.0000 0.98150  0.71340  0.55890  Biso   1.000  O
  O9       1.0000 0.31420  0.17860  0.16350  Biso   1.000  O
  O10      1.0000 0.68580  0.82140  0.83650  Biso   1.000  O
  O11      1.0000 0.28950  0.97940  0.97320  Biso   1.000  O
  O12      1.0000 0.71050  0.02060  0.02680  Biso   1.000  O
  O13      1.0000 0.63620  0.87470  0.60400  Biso   1.000  O
  O14      1.0000 0.36380  0.12530  0.39600  Biso   1.000  O
  O15      1.0000 0.41520  0.08160  0.65700  Biso   1.000  O
  O16      1.0000 0.58480  0.91840  0.34300  Biso   1.000  O
  C1       1.0000 0.30620  0.68690  0.35810  Biso   1.000  C
  C2       1.0000 0.69380  0.31310  0.64190  Biso   1.000  C
  C3       1.0000 0.14000  0.58390  0.28680  Biso   1.000  C
  C4       1.0000 0.86000  0.41610  0.71320  Biso   1.000  C
  H1       1.0000 0.08080  0.59520  0.35130  Biso   1.000  H
  H2       1.0000 0.91920  0.40480  0.64870  Biso   1.000  H
  H3       1.0000 0.08750  0.61820  0.22510  Biso   1.000  H
  H4       1.0000 0.91250  0.38180  0.77490  Biso   1.000  H
  C5       1.0000 0.10710  0.34040  0.38970  Biso   1.000  C
  C6       1.0000 0.89290  0.65960  0.61030  Biso   1.000  C
  C7       1.0000 0.03500  0.32500  0.25290  Biso   1.000  C
  C8       1.0000 0.96500  0.67500  0.74710  Biso   1.000  C
  H5       1.0000 0.01320  0.21810  0.18920  Biso   1.000  H
  H6       1.0000 0.98680  0.78190  0.81080  Biso   1.000  H
  H7       1.0000 0.93550  0.35540  0.25110  Biso   1.000  H
  H8       1.0000 0.06450  0.64460  0.74890  Biso   1.000  H
  C9       1.0000 0.31660  0.11940  0.04360  Biso   1.000  C
  C10      1.0000 0.68340  0.88060  0.95640  Biso   1.000  C
  C11      1.0000 0.36160  0.22490  0.98140  Biso   1.000  C
  C12      1.0000 0.63840  0.77510  0.01860  Biso   1.000  C
  H9       1.0000 0.46510  0.21790  0.96790  Biso   1.000  H
  H10      1.0000 0.53490  0.78210  0.03210  Biso   1.000  H
  H11      1.0000 0.28740  0.18770  0.89520  Biso   1.000  H
  H12      1.0000 0.71260  0.81230  0.10480  Biso   1.000  H
  C13      1.0000 0.08980  0.36280  0.06860  Biso   1.000  C
  C14      1.0000 0.91020  0.63720  0.93140  Biso   1.000  C
  H13      1.0000 0.99350  0.39270  0.04360  Biso   1.000  H
  H14      1.0000 0.00650  0.60730  0.95640  Biso   1.000  H
  H15      1.0000 0.06780  0.25160  0.02630  Biso   1.000  H
  H16      1.0000 0.93220  0.74840  0.97370  Biso   1.000  H
  C15      1.0000 0.21550  0.42580  0.01990  Biso   1.000  C
  C16      1.0000 0.78450  0.57420  0.98010  Biso   1.000  C
  H17      1.0000 0.18080  0.38380  0.92420  Biso   1.000  H
  H18      1.0000 0.81920  0.61620  0.07580  Biso   1.000  H
  H19      1.0000 0.23180  0.53650  0.05640  Biso   1.000  H
  H20      1.0000 0.76820  0.46350  0.94360  Biso   1.000  H
  C17      1.0000 0.50200  0.49570  0.06510  Biso   1.000  C
  C18      1.0000 0.49800  0.50430  0.93490  Biso   1.000  C
  H21      1.0000 0.59740  0.46590  0.09240  Biso   1.000  H
  H22      1.0000 0.40260  0.53410  0.90760  Biso   1.000  H
  H23      1.0000 0.50720  0.59720  0.13240  Biso   1.000  H
  H24      1.0000 0.49280  0.40280  0.86760  Biso   1.000  H
  O17      1.0000 0.59050  0.39960  0.32250  Biso   1.000  O
  O18      1.0000 0.40950  0.60040  0.67750  Biso   1.000  O
  O19      1.0000 0.28700  0.85500  0.71110  Biso   1.000  O
  O20      1.0000 0.71300  0.14500  0.28890  Biso   1.000  O
  O21      1.0000 0.27350  0.81590  0.12540  Biso   1.000  O
  O22      1.0000 0.72650  0.18410  0.87460  Biso   1.000  O
  O23      1.0000 0.81450  0.76860  0.34750  Biso   1.000  O
  O24      1.0000 0.18550  0.23140  0.65250  Biso   1.000  O
  O25      1.0000 0.97360  0.06820  0.72520  Biso   1.000  O
  O26      1.0000 0.02640  0.93180  0.27480  Biso   1.000  O
