data_image0
_cell_length_a       21.1935
_cell_length_b       5.2277
_cell_length_c       27.3542
_cell_angle_alpha    90
_cell_angle_beta     105.527
_cell_angle_gamma    90

_symmetry_space_group_name_H-M    "P 1"
_symmetry_int_tables_number       1

loop_
  _symmetry_equiv_pos_as_xyz
  'x, y, z'

loop_
  _atom_site_label
  _atom_site_occupancy
  _atom_site_fract_x
  _atom_site_fract_y
  _atom_site_fract_z
  _atom_site_thermal_displace_type
  _atom_site_B_iso_or_equiv
  _atom_site_type_symbol
  Cu1      1.0000 0.11967  0.92318  0.09206  Biso   1.000  Cu
  Cu2      1.0000 0.61967  0.42318  0.09206  Biso   1.000  Cu
  Cu3      1.0000 0.88033  0.92318  0.40794  Biso   1.000  Cu
  Cu4      1.0000 0.38033  0.42318  0.40794  Biso   1.000  Cu
  Cu5      1.0000 0.88033  0.07682  0.90794  Biso   1.000  Cu
  Cu6      1.0000 0.38033  0.57682  0.90794  Biso   1.000  Cu
  Cu7      1.0000 0.11967  0.07682  0.59206  Biso   1.000  Cu
  Cu8      1.0000 0.61967  0.57682  0.59206  Biso   1.000  Cu
  N1       1.0000 0.12470  0.78690  0.16181  Biso   1.000  N
  N2       1.0000 0.62470  0.28690  0.16181  Biso   1.000  N
  N3       1.0000 0.87530  0.78690  0.33819  Biso   1.000  N
  N4       1.0000 0.37530  0.28690  0.33819  Biso   1.000  N
  N5       1.0000 0.87530  0.21310  0.83819  Biso   1.000  N
  N6       1.0000 0.37530  0.71310  0.83819  Biso   1.000  N
  N7       1.0000 0.12470  0.21310  0.66181  Biso   1.000  N
  N8       1.0000 0.62470  0.71310  0.66181  Biso   1.000  N
  N9       1.0000 0.18483  0.65730  0.08500  Biso   1.000  N
  N10      1.0000 0.68483  0.15730  0.08500  Biso   1.000  N
  N11      1.0000 0.81517  0.65730  0.41500  Biso   1.000  N
  N12      1.0000 0.31517  0.15730  0.41500  Biso   1.000  N
  N13      1.0000 0.81517  0.34270  0.91500  Biso   1.000  N
  N14      1.0000 0.31517  0.84270  0.91500  Biso   1.000  N
  N15      1.0000 0.18483  0.34270  0.58500  Biso   1.000  N
  N16      1.0000 0.68483  0.84270  0.58500  Biso   1.000  N
  N17      1.0000 0.12000  0.92500  0.52333  Biso   1.000  N
  N18      1.0000 0.62000  0.42500  0.52333  Biso   1.000  N
  N19      1.0000 0.88000  0.92500  0.97667  Biso   1.000  N
  N20      1.0000 0.38000  0.42500  0.97667  Biso   1.000  N
  N21      1.0000 0.88000  0.07500  0.47667  Biso   1.000  N
  N22      1.0000 0.38000  0.57500  0.47667  Biso   1.000  N
  N23      1.0000 0.12000  0.07500  0.02333  Biso   1.000  N
  N24      1.0000 0.62000  0.57500  0.02333  Biso   1.000  N
  N25      1.0000 0.19088  0.45700  0.10679  Biso   1.000  N
  N26      1.0000 0.69088  0.95700  0.10679  Biso   1.000  N
  N27      1.0000 0.80912  0.45700  0.39321  Biso   1.000  N
  N28      1.0000 0.30912  0.95700  0.39321  Biso   1.000  N
  N29      1.0000 0.80912  0.54300  0.89321  Biso   1.000  N
  N30      1.0000 0.30912  0.04300  0.89321  Biso   1.000  N
  N31      1.0000 0.19088  0.54300  0.60679  Biso   1.000  N
  N32      1.0000 0.69088  0.04300  0.60679  Biso   1.000  N
  N33      1.0000 0.19774  0.25740  0.12711  Biso   1.000  N
  N34      1.0000 0.69774  0.75740  0.12711  Biso   1.000  N
  N35      1.0000 0.80226  0.25740  0.37289  Biso   1.000  N
  N36      1.0000 0.30226  0.75740  0.37289  Biso   1.000  N
  N37      1.0000 0.80226  0.74260  0.87289  Biso   1.000  N
  N38      1.0000 0.30226  0.24260  0.87289  Biso   1.000  N
  N39      1.0000 0.19774  0.74260  0.62711  Biso   1.000  N
  N40      1.0000 0.69774  0.24260  0.62711  Biso   1.000  N
  N41      1.0000 0.03182  0.07310  0.08604  Biso   1.000  N
  N42      1.0000 0.53182  0.57310  0.08604  Biso   1.000  N
  N43      1.0000 0.96818  0.07310  0.41396  Biso   1.000  N
  N44      1.0000 0.46818  0.57310  0.41396  Biso   1.000  N
  N45      1.0000 0.96818  0.92690  0.91396  Biso   1.000  N
  N46      1.0000 0.46818  0.42690  0.91396  Biso   1.000  N
  N47      1.0000 0.03182  0.92690  0.58604  Biso   1.000  N
  N48      1.0000 0.53182  0.42690  0.58604  Biso   1.000  N
  N49      1.0000 0.00609  0.06650  0.11824  Biso   1.000  N
  N50      1.0000 0.50609  0.56650  0.11824  Biso   1.000  N
  N51      1.0000 0.99391  0.06650  0.38176  Biso   1.000  N
  N52      1.0000 0.49391  0.56650  0.38176  Biso   1.000  N
  N53      1.0000 0.99391  0.93350  0.88176  Biso   1.000  N
  N54      1.0000 0.49391  0.43350  0.88176  Biso   1.000  N
  N55      1.0000 0.00609  0.93350  0.61824  Biso   1.000  N
  N56      1.0000 0.50609  0.43350  0.61824  Biso   1.000  N
  N57      1.0000 0.97788  0.06930  0.14996  Biso   1.000  N
  N58      1.0000 0.47788  0.56930  0.14996  Biso   1.000  N
  N59      1.0000 0.02212  0.06930  0.35004  Biso   1.000  N
  N60      1.0000 0.52212  0.56930  0.35004  Biso   1.000  N
  N61      1.0000 0.02212  0.93070  0.85004  Biso   1.000  N
  N62      1.0000 0.52212  0.43070  0.85004  Biso   1.000  N
  N63      1.0000 0.97788  0.93070  0.64996  Biso   1.000  N
  N64      1.0000 0.47788  0.43070  0.64996  Biso   1.000  N
  C1       1.0000 0.17882  0.75630  0.25033  Biso   1.000  C
  C2       1.0000 0.67882  0.25630  0.25033  Biso   1.000  C
  C3       1.0000 0.82118  0.75630  0.24967  Biso   1.000  C
  C4       1.0000 0.32118  0.25630  0.24967  Biso   1.000  C
  C5       1.0000 0.82118  0.24370  0.74967  Biso   1.000  C
  C6       1.0000 0.32118  0.74370  0.74967  Biso   1.000  C
  C7       1.0000 0.17882  0.24370  0.75033  Biso   1.000  C
  C8       1.0000 0.67882  0.74370  0.75033  Biso   1.000  C
  H1       1.0000 0.21090  0.81860  0.27800  Biso   1.000  H
  H2       1.0000 0.71090  0.31860  0.27800  Biso   1.000  H
  H3       1.0000 0.78910  0.81860  0.22200  Biso   1.000  H
  H4       1.0000 0.28910  0.31860  0.22200  Biso   1.000  H
  H5       1.0000 0.78910  0.18140  0.72200  Biso   1.000  H
  H6       1.0000 0.28910  0.68140  0.72200  Biso   1.000  H
  H7       1.0000 0.21090  0.18140  0.77800  Biso   1.000  H
  H8       1.0000 0.71090  0.68140  0.77800  Biso   1.000  H
  C9       1.0000 0.17070  0.86500  0.20344  Biso   1.000  C
  C10      1.0000 0.67070  0.36500  0.20344  Biso   1.000  C
  C11      1.0000 0.82930  0.86500  0.29656  Biso   1.000  C
  C12      1.0000 0.32930  0.36500  0.29656  Biso   1.000  C
  C13      1.0000 0.82930  0.13500  0.79656  Biso   1.000  C
  C14      1.0000 0.32930  0.63500  0.79656  Biso   1.000  C
  C15      1.0000 0.17070  0.13500  0.70344  Biso   1.000  C
  C16      1.0000 0.67070  0.63500  0.70344  Biso   1.000  C
  H9       1.0000 0.19820  0.99880  0.20020  Biso   1.000  H
  H10      1.0000 0.69820  0.49880  0.20020  Biso   1.000  H
  H11      1.0000 0.80180  0.99880  0.29980  Biso   1.000  H
  H12      1.0000 0.30180  0.49880  0.29980  Biso   1.000  H
  H13      1.0000 0.80180  0.00120  0.79980  Biso   1.000  H
  H14      1.0000 0.30180  0.50120  0.79980  Biso   1.000  H
  H15      1.0000 0.19820  0.00120  0.70020  Biso   1.000  H
  H16      1.0000 0.69820  0.50120  0.70020  Biso   1.000  H
  C17      1.0000 0.08544  0.59630  0.16821  Biso   1.000  C
  C18      1.0000 0.58544  0.09630  0.16821  Biso   1.000  C
  C19      1.0000 0.91456  0.59630  0.33179  Biso   1.000  C
  C20      1.0000 0.41456  0.09630  0.33179  Biso   1.000  C
  C21      1.0000 0.91456  0.40370  0.83179  Biso   1.000  C
  C22      1.0000 0.41456  0.90370  0.83179  Biso   1.000  C
  C23      1.0000 0.08544  0.40370  0.66821  Biso   1.000  C
  C24      1.0000 0.58544  0.90370  0.66821  Biso   1.000  C
  H17      1.0000 0.05270  0.54120  0.14020  Biso   1.000  H
  H18      1.0000 0.55270  0.04120  0.14020  Biso   1.000  H
  H19      1.0000 0.94730  0.54120  0.35980  Biso   1.000  H
  H20      1.0000 0.44730  0.04120  0.35980  Biso   1.000  H
  H21      1.0000 0.94730  0.45880  0.85980  Biso   1.000  H
  H22      1.0000 0.44730  0.95880  0.85980  Biso   1.000  H
  H23      1.0000 0.05270  0.45880  0.64020  Biso   1.000  H
  H24      1.0000 0.55270  0.95880  0.64020  Biso   1.000  H
  C25      1.0000 0.09108  0.47760  0.21426  Biso   1.000  C
  C26      1.0000 0.59108  0.97760  0.21426  Biso   1.000  C
  C27      1.0000 0.90892  0.47760  0.28574  Biso   1.000  C
  C28      1.0000 0.40892  0.97760  0.28574  Biso   1.000  C
  C29      1.0000 0.90892  0.52240  0.78574  Biso   1.000  C
  C30      1.0000 0.40892  0.02240  0.78574  Biso   1.000  C
  C31      1.0000 0.09108  0.52240  0.71426  Biso   1.000  C
  C32      1.0000 0.59108  0.02240  0.71426  Biso   1.000  C
  H25      1.0000 0.06240  0.34650  0.21680  Biso   1.000  H
  H26      1.0000 0.56240  0.84650  0.21680  Biso   1.000  H
  H27      1.0000 0.93760  0.34650  0.28320  Biso   1.000  H
  H28      1.0000 0.43760  0.84650  0.28320  Biso   1.000  H
  H29      1.0000 0.93760  0.65350  0.78320  Biso   1.000  H
  H30      1.0000 0.43760  0.15350  0.78320  Biso   1.000  H
  H31      1.0000 0.06240  0.65350  0.71680  Biso   1.000  H
  H32      1.0000 0.56240  0.15350  0.71680  Biso   1.000  H
  C33      1.0000 0.13937  0.55360  0.25673  Biso   1.000  C
  C34      1.0000 0.63937  0.05360  0.25673  Biso   1.000  C
  C35      1.0000 0.86063  0.55360  0.24327  Biso   1.000  C
  C36      1.0000 0.36063  0.05360  0.24327  Biso   1.000  C
  C37      1.0000 0.86063  0.44640  0.74327  Biso   1.000  C
  C38      1.0000 0.36063  0.94640  0.74327  Biso   1.000  C
  C39      1.0000 0.13937  0.44640  0.75673  Biso   1.000  C
  C40      1.0000 0.63937  0.94640  0.75673  Biso   1.000  C
  C41      1.0000 0.14846  0.42670  0.30737  Biso   1.000  C
  C42      1.0000 0.64846  0.92670  0.30737  Biso   1.000  C
  C43      1.0000 0.85154  0.42670  0.19263  Biso   1.000  C
  C44      1.0000 0.35154  0.92670  0.19263  Biso   1.000  C
  C45      1.0000 0.85154  0.57330  0.69263  Biso   1.000  C
  C46      1.0000 0.35154  0.07330  0.69263  Biso   1.000  C
  C47      1.0000 0.14846  0.57330  0.80737  Biso   1.000  C
  C48      1.0000 0.64846  0.07330  0.80737  Biso   1.000  C
  H33      1.0000 0.19350  0.36980  0.31960  Biso   1.000  H
  H34      1.0000 0.69350  0.86980  0.31960  Biso   1.000  H
  H35      1.0000 0.80650  0.36980  0.18040  Biso   1.000  H
  H36      1.0000 0.30650  0.86980  0.18040  Biso   1.000  H
  H37      1.0000 0.80650  0.63020  0.68040  Biso   1.000  H
  H38      1.0000 0.30650  0.13020  0.68040  Biso   1.000  H
  H39      1.0000 0.19350  0.63020  0.81960  Biso   1.000  H
  H40      1.0000 0.69350  0.13020  0.81960  Biso   1.000  H
  H41      1.0000 0.12060  0.27680  0.30320  Biso   1.000  H
  H42      1.0000 0.62060  0.77680  0.30320  Biso   1.000  H
  H43      1.0000 0.87940  0.27680  0.19680  Biso   1.000  H
  H44      1.0000 0.37940  0.77680  0.19680  Biso   1.000  H
  H45      1.0000 0.87940  0.72320  0.69680  Biso   1.000  H
  H46      1.0000 0.37940  0.22320  0.69680  Biso   1.000  H
  H47      1.0000 0.12060  0.72320  0.80320  Biso   1.000  H
  H48      1.0000 0.62060  0.22320  0.80320  Biso   1.000  H
  C49      1.0000 0.13253  0.60160  0.34695  Biso   1.000  C
  C50      1.0000 0.63253  0.10160  0.34695  Biso   1.000  C
  C51      1.0000 0.86747  0.60160  0.15305  Biso   1.000  C
  C52      1.0000 0.36747  0.10160  0.15305  Biso   1.000  C
  C53      1.0000 0.86747  0.39840  0.65305  Biso   1.000  C
  C54      1.0000 0.36747  0.89840  0.65305  Biso   1.000  C
  C55      1.0000 0.13253  0.39840  0.84695  Biso   1.000  C
  C56      1.0000 0.63253  0.89840  0.84695  Biso   1.000  C
  H49      1.0000 0.08610  0.64000  0.33730  Biso   1.000  H
  H50      1.0000 0.58610  0.14000  0.33730  Biso   1.000  H
  H51      1.0000 0.91390  0.64000  0.16270  Biso   1.000  H
  H52      1.0000 0.41390  0.14000  0.16270  Biso   1.000  H
  H53      1.0000 0.91390  0.36000  0.66270  Biso   1.000  H
  H54      1.0000 0.41390  0.86000  0.66270  Biso   1.000  H
  H55      1.0000 0.08610  0.36000  0.83730  Biso   1.000  H
  H56      1.0000 0.58610  0.86000  0.83730  Biso   1.000  H
  H57      1.0000 0.15630  0.76130  0.34840  Biso   1.000  H
  H58      1.0000 0.65630  0.26130  0.34840  Biso   1.000  H
  H59      1.0000 0.84370  0.76130  0.15160  Biso   1.000  H
  H60      1.0000 0.34370  0.26130  0.15160  Biso   1.000  H
  H61      1.0000 0.84370  0.23870  0.65160  Biso   1.000  H
  H62      1.0000 0.34370  0.73870  0.65160  Biso   1.000  H
  H63      1.0000 0.15630  0.23870  0.84840  Biso   1.000  H
  H64      1.0000 0.65630  0.73870  0.84840  Biso   1.000  H
  C57      1.0000 0.15129  0.47450  0.39922  Biso   1.000  C
  C58      1.0000 0.65129  0.97450  0.39922  Biso   1.000  C
  C59      1.0000 0.84871  0.47450  0.10078  Biso   1.000  C
  C60      1.0000 0.34871  0.97450  0.10078  Biso   1.000  C
  C61      1.0000 0.84871  0.52550  0.60078  Biso   1.000  C
  C62      1.0000 0.34871  0.02550  0.60078  Biso   1.000  C
  C63      1.0000 0.15129  0.52550  0.89922  Biso   1.000  C
  C64      1.0000 0.65129  0.02550  0.89922  Biso   1.000  C
  H65      1.0000 0.12710  0.31570  0.39730  Biso   1.000  H
  H66      1.0000 0.62710  0.81570  0.39730  Biso   1.000  H
  H67      1.0000 0.87290  0.31570  0.10270  Biso   1.000  H
  H68      1.0000 0.37290  0.81570  0.10270  Biso   1.000  H
  H69      1.0000 0.87290  0.68430  0.60270  Biso   1.000  H
  H70      1.0000 0.37290  0.18430  0.60270  Biso   1.000  H
  H71      1.0000 0.12710  0.68430  0.89730  Biso   1.000  H
  H72      1.0000 0.62710  0.18430  0.89730  Biso   1.000  H
  H73      1.0000 0.19750  0.43220  0.40790  Biso   1.000  H
  H74      1.0000 0.69750  0.93220  0.40790  Biso   1.000  H
  H75      1.0000 0.80250  0.43220  0.09210  Biso   1.000  H
  H76      1.0000 0.30250  0.93220  0.09210  Biso   1.000  H
  H77      1.0000 0.80250  0.56780  0.59210  Biso   1.000  H
  H78      1.0000 0.30250  0.06780  0.59210  Biso   1.000  H
  H79      1.0000 0.19750  0.56780  0.90790  Biso   1.000  H
  H80      1.0000 0.69750  0.06780  0.90790  Biso   1.000  H
  C65      1.0000 0.13823  0.63740  0.44104  Biso   1.000  C
  C66      1.0000 0.63823  0.13740  0.44104  Biso   1.000  C
  C67      1.0000 0.86177  0.63740  0.05896  Biso   1.000  C
  C68      1.0000 0.36177  0.13740  0.05896  Biso   1.000  C
  C69      1.0000 0.86177  0.36260  0.55896  Biso   1.000  C
  C70      1.0000 0.36177  0.86260  0.55896  Biso   1.000  C
  C71      1.0000 0.13823  0.36260  0.94104  Biso   1.000  C
  C72      1.0000 0.63823  0.86260  0.94104  Biso   1.000  C
  C73      1.0000 0.17697  0.84620  0.46040  Biso   1.000  C
  C74      1.0000 0.67697  0.34620  0.46040  Biso   1.000  C
  C75      1.0000 0.82303  0.84620  0.03960  Biso   1.000  C
  C76      1.0000 0.32303  0.34620  0.03960  Biso   1.000  C
  C77      1.0000 0.82303  0.15380  0.53960  Biso   1.000  C
  C78      1.0000 0.32303  0.65380  0.53960  Biso   1.000  C
  C79      1.0000 0.17697  0.15380  0.96040  Biso   1.000  C
  C80      1.0000 0.67697  0.65380  0.96040  Biso   1.000  C
  H81      1.0000 0.21010  0.89510  0.44590  Biso   1.000  H
  H82      1.0000 0.71010  0.39510  0.44590  Biso   1.000  H
  H83      1.0000 0.78990  0.89510  0.05410  Biso   1.000  H
  H84      1.0000 0.28990  0.39510  0.05410  Biso   1.000  H
  H85      1.0000 0.78990  0.10490  0.55410  Biso   1.000  H
  H86      1.0000 0.28990  0.60490  0.55410  Biso   1.000  H
  H87      1.0000 0.21010  0.10490  0.94590  Biso   1.000  H
  H88      1.0000 0.71010  0.60490  0.94590  Biso   1.000  H
  C81      1.0000 0.16738  0.98240  0.50075  Biso   1.000  C
  C82      1.0000 0.66738  0.48240  0.50075  Biso   1.000  C
  C83      1.0000 0.83262  0.98240  0.99925  Biso   1.000  C
  C84      1.0000 0.33262  0.48240  0.99925  Biso   1.000  C
  C85      1.0000 0.83262  0.01760  0.49925  Biso   1.000  C
  C86      1.0000 0.33262  0.51760  0.49925  Biso   1.000  C
  C87      1.0000 0.16738  0.01760  0.00075  Biso   1.000  C
  C88      1.0000 0.66738  0.51760  0.00075  Biso   1.000  C
  H89      1.0000 0.19480  0.12030  0.51300  Biso   1.000  H
  H90      1.0000 0.69480  0.62030  0.51300  Biso   1.000  H
  H91      1.0000 0.80520  0.12030  0.98700  Biso   1.000  H
  H92      1.0000 0.30520  0.62030  0.98700  Biso   1.000  H
  H93      1.0000 0.80520  0.87970  0.48700  Biso   1.000  H
  H94      1.0000 0.30520  0.37970  0.48700  Biso   1.000  H
  H95      1.0000 0.19480  0.87970  0.01300  Biso   1.000  H
  H96      1.0000 0.69480  0.37970  0.01300  Biso   1.000  H
  C89      1.0000 0.08089  0.72980  0.50340  Biso   1.000  C
  C90      1.0000 0.58089  0.22980  0.50340  Biso   1.000  C
  C91      1.0000 0.91911  0.72980  0.99660  Biso   1.000  C
  C92      1.0000 0.41911  0.22980  0.99660  Biso   1.000  C
  C93      1.0000 0.91911  0.27020  0.49660  Biso   1.000  C
  C94      1.0000 0.41911  0.77020  0.49660  Biso   1.000  C
  C95      1.0000 0.08089  0.27020  0.00340  Biso   1.000  C
  C96      1.0000 0.58089  0.77020  0.00340  Biso   1.000  C
  H97      1.0000 0.04660  0.68960  0.51730  Biso   1.000  H
  H98      1.0000 0.54660  0.18960  0.51730  Biso   1.000  H
  H99      1.0000 0.95340  0.68960  0.98270  Biso   1.000  H
  H100     1.0000 0.45340  0.18960  0.98270  Biso   1.000  H
  H101     1.0000 0.95340  0.31040  0.48270  Biso   1.000  H
  H102     1.0000 0.45340  0.81040  0.48270  Biso   1.000  H
  H103     1.0000 0.04660  0.31040  0.01730  Biso   1.000  H
  H104     1.0000 0.54660  0.81040  0.01730  Biso   1.000  H
  C97      1.0000 0.08855  0.58420  0.46324  Biso   1.000  C
  C98      1.0000 0.58855  0.08420  0.46324  Biso   1.000  C
  C99      1.0000 0.91145  0.58420  0.03676  Biso   1.000  C
  C100     1.0000 0.41145  0.08420  0.03676  Biso   1.000  C
  C101     1.0000 0.91145  0.41580  0.53676  Biso   1.000  C
  C102     1.0000 0.41145  0.91580  0.53676  Biso   1.000  C
  C103     1.0000 0.08855  0.41580  0.96324  Biso   1.000  C
  C104     1.0000 0.58855  0.91580  0.96324  Biso   1.000  C
  H105     1.0000 0.06000  0.44950  0.45110  Biso   1.000  H
  H106     1.0000 0.56000  0.94950  0.45110  Biso   1.000  H
  H107     1.0000 0.94000  0.44950  0.04890  Biso   1.000  H
  H108     1.0000 0.44000  0.94950  0.04890  Biso   1.000  H
  H109     1.0000 0.94000  0.55050  0.54890  Biso   1.000  H
  H110     1.0000 0.44000  0.05050  0.54890  Biso   1.000  H
  H111     1.0000 0.06000  0.55050  0.95110  Biso   1.000  H
  H112     1.0000 0.56000  0.05050  0.95110  Biso   1.000  H
