data_image0
_cell_length_a       9.777
_cell_length_b       5.2706
_cell_length_c       11.0568
_cell_angle_alpha    90
_cell_angle_beta     104.956
_cell_angle_gamma    90

_symmetry_space_group_name_H-M    "P 1"
_symmetry_int_tables_number       1

loop_
  _symmetry_equiv_pos_as_xyz
  'x, y, z'

loop_
  _atom_site_label
  _atom_site_occupancy
  _atom_site_fract_x
  _atom_site_fract_y
  _atom_site_fract_z
  _atom_site_thermal_displace_type
  _atom_site_B_iso_or_equiv
  _atom_site_type_symbol
  Cu1      1.0000 0.32556  0.72960  0.33214  Biso   1.000  Cu
  Cu2      1.0000 0.67444  0.22960  0.66786  Biso   1.000  Cu
  S1       1.0000 0.67310  0.68820  0.21580  Biso   1.000  S
  S2       1.0000 0.32690  0.18820  0.78420  Biso   1.000  S
  N1       1.0000 0.49660  0.93130  0.32430  Biso   1.000  N
  N2       1.0000 0.50340  0.43130  0.67570  Biso   1.000  N
  H1       1.0000 0.50740  0.06520  0.37790  Biso   1.000  H
  H2       1.0000 0.49260  0.56520  0.62210  Biso   1.000  H
  C1       1.0000 0.46660  0.02600  0.18970  Biso   1.000  C
  C2       1.0000 0.53340  0.52600  0.81030  Biso   1.000  C
  H3       1.0000 0.52350  0.17650  0.18340  Biso   1.000  H
  H4       1.0000 0.47650  0.67650  0.81660  Biso   1.000  H
  C3       1.0000 0.07790  0.45200  0.23500  Biso   1.000  C
  C4       1.0000 0.92210  0.95200  0.76500  Biso   1.000  C
  H5       1.0000 0.08380  0.52350  0.15960  Biso   1.000  H
  H6       1.0000 0.91620  0.02350  0.84040  Biso   1.000  H
  N3       1.0000 0.97840  0.28800  0.23280  Biso   1.000  N
  N4       1.0000 0.02160  0.78800  0.76720  Biso   1.000  N
  C5       1.0000 0.62430  0.76800  0.35710  Biso   1.000  C
  C6       1.0000 0.37570  0.26800  0.64290  Biso   1.000  C
  H7       1.0000 0.70210  0.86160  0.41310  Biso   1.000  H
  H8       1.0000 0.29790  0.36160  0.58690  Biso   1.000  H
  C7       1.0000 0.50560  0.80800  0.12030  Biso   1.000  C
  C8       1.0000 0.49440  0.30800  0.87970  Biso   1.000  C
  H9       1.0000 0.51540  0.86160  0.03910  Biso   1.000  H
  H10      1.0000 0.48460  0.36160  0.96090  Biso   1.000  H
  H11      1.0000 0.43340  0.67690  0.10790  Biso   1.000  H
  H12      1.0000 0.56660  0.17690  0.89210  Biso   1.000  H
  O1       1.0000 0.46350  0.45900  0.40620  Biso   1.000  O
  O2       1.0000 0.53650  0.95900  0.59380  Biso   1.000  O
  O3       1.0000 0.22730  0.95230  0.19680  Biso   1.000  O
  O4       1.0000 0.77270  0.45230  0.80320  Biso   1.000  O
  O5       1.0000 0.16830  0.51990  0.33520  Biso   1.000  O
  O6       1.0000 0.83170  0.01990  0.66480  Biso   1.000  O
  O7       1.0000 0.26930  0.25100  0.06760  Biso   1.000  O
  O8       1.0000 0.73070  0.75100  0.93240  Biso   1.000  O
  C9       1.0000 0.88770  0.19900  0.11240  Biso   1.000  C
  C10      1.0000 0.11230  0.69900  0.88760  Biso   1.000  C
  H13      1.0000 0.89010  0.31990  0.04810  Biso   1.000  H
  H14      1.0000 0.10990  0.81990  0.95190  Biso   1.000  H
  H15      1.0000 0.79220  0.18090  0.11910  Biso   1.000  H
  H16      1.0000 0.20780  0.68090  0.88090  Biso   1.000  H
  H17      1.0000 0.92160  0.03810  0.09170  Biso   1.000  H
  H18      1.0000 0.07840  0.53810  0.90830  Biso   1.000  H
  C11      1.0000 0.59240  0.52500  0.42390  Biso   1.000  C
  C12      1.0000 0.40760  0.02500  0.57610  Biso   1.000  C
  C13      1.0000 0.30830  0.08500  0.14770  Biso   1.000  C
  C14      1.0000 0.69170  0.58500  0.85230  Biso   1.000  C
  C15      1.0000 0.96790  0.15400  0.34760  Biso   1.000  C
  C16      1.0000 0.03210  0.65400  0.65240  Biso   1.000  C
  H19      1.0000 0.05540  0.17090  0.41090  Biso   1.000  H
  H20      1.0000 0.94460  0.67090  0.58910  Biso   1.000  H
  H21      1.0000 0.94910  0.97700  0.32910  Biso   1.000  H
  H22      1.0000 0.05090  0.47700  0.67090  Biso   1.000  H
  H23      1.0000 0.89230  0.22540  0.37730  Biso   1.000  H
  H24      1.0000 0.10770  0.72540  0.62270  Biso   1.000  H
  O9       1.0000 0.69620  0.40230  0.48500  Biso   1.000  O
  O10      1.0000 0.30380  0.90230  0.51500  Biso   1.000  O
