data_image0
_cell_length_a       9.9835
_cell_length_b       10.6754
_cell_length_c       11.0174
_cell_angle_alpha    90
_cell_angle_beta     90
_cell_angle_gamma    90

_symmetry_space_group_name_H-M    "P 1"
_symmetry_int_tables_number       1

loop_
  _symmetry_equiv_pos_as_xyz
  'x, y, z'

loop_
  _atom_site_label
  _atom_site_occupancy
  _atom_site_fract_x
  _atom_site_fract_y
  _atom_site_fract_z
  _atom_site_thermal_displace_type
  _atom_site_B_iso_or_equiv
  _atom_site_type_symbol
  O1       1.0000 0.60790  0.83930  0.95020  Biso   1.000  O
  O2       1.0000 0.89210  0.16070  0.45020  Biso   1.000  O
  O3       1.0000 0.39210  0.33930  0.54980  Biso   1.000  O
  O4       1.0000 0.10790  0.66070  0.04980  Biso   1.000  O
  C1       1.0000 0.73560  0.84130  0.95230  Biso   1.000  C
  C2       1.0000 0.76440  0.15870  0.45230  Biso   1.000  C
  C3       1.0000 0.26440  0.34130  0.54770  Biso   1.000  C
  C4       1.0000 0.23560  0.65870  0.04770  Biso   1.000  C
  Cu1      1.0000 0.02333  0.79096  0.95337  Biso   1.000  Cu
  Cu2      1.0000 0.47667  0.20904  0.45337  Biso   1.000  Cu
  Cu3      1.0000 0.97667  0.29096  0.54663  Biso   1.000  Cu
  Cu4      1.0000 0.52333  0.70904  0.04663  Biso   1.000  Cu
  S1       1.0000 0.76697  0.87632  0.65961  Biso   1.000  S
  S2       1.0000 0.73303  0.12368  0.15961  Biso   1.000  S
  S3       1.0000 0.23303  0.37632  0.84039  Biso   1.000  S
  S4       1.0000 0.26697  0.62368  0.34039  Biso   1.000  S
  O5       1.0000 0.06490  0.92650  0.06970  Biso   1.000  O
  O6       1.0000 0.43510  0.07350  0.56970  Biso   1.000  O
  O7       1.0000 0.93510  0.42650  0.43030  Biso   1.000  O
  O8       1.0000 0.56490  0.57350  0.93030  Biso   1.000  O
  N1       1.0000 0.93800  0.91910  0.84340  Biso   1.000  N
  N2       1.0000 0.56200  0.08090  0.34340  Biso   1.000  N
  N3       1.0000 0.06200  0.41910  0.65660  Biso   1.000  N
  N4       1.0000 0.43800  0.58090  0.15660  Biso   1.000  N
  H1       1.0000 0.98260  0.98800  0.83740  Biso   1.000  H
  H2       1.0000 0.51740  0.01200  0.33740  Biso   1.000  H
  H3       1.0000 0.01740  0.48800  0.66260  Biso   1.000  H
  H4       1.0000 0.48260  0.51200  0.16260  Biso   1.000  H
  O9       1.0000 0.02470  0.68430  0.81090  Biso   1.000  O
  O10      1.0000 0.47530  0.31570  0.31090  Biso   1.000  O
  O11      1.0000 0.97530  0.18430  0.68910  Biso   1.000  O
  O12      1.0000 0.52470  0.81570  0.18910  Biso   1.000  O
  O13      1.0000 0.80730  0.76680  0.00570  Biso   1.000  O
  O14      1.0000 0.69270  0.23320  0.50570  Biso   1.000  O
  O15      1.0000 0.19270  0.26680  0.49430  Biso   1.000  O
  O16      1.0000 0.30730  0.73320  0.99430  Biso   1.000  O
  C5       1.0000 0.98300  0.73240  0.71350  Biso   1.000  C
  C6       1.0000 0.51700  0.26760  0.21350  Biso   1.000  C
  C7       1.0000 0.01700  0.23240  0.78650  Biso   1.000  C
  C8       1.0000 0.48300  0.76760  0.28650  Biso   1.000  C
  O17      1.0000 0.98030  0.67950  0.61570  Biso   1.000  O
  O18      1.0000 0.51970  0.32050  0.11570  Biso   1.000  O
  O19      1.0000 0.01970  0.17950  0.88430  Biso   1.000  O
  O20      1.0000 0.48030  0.82050  0.38430  Biso   1.000  O
  C9       1.0000 0.72290  0.99060  0.77050  Biso   1.000  C
  C10      1.0000 0.77710  0.00940  0.27050  Biso   1.000  C
  C11      1.0000 0.27710  0.49060  0.72950  Biso   1.000  C
  C12      1.0000 0.22290  0.50940  0.22950  Biso   1.000  C
  H5       1.0000 0.74940  0.07380  0.74440  Biso   1.000  H
  H6       1.0000 0.75060  0.92620  0.24440  Biso   1.000  H
  H7       1.0000 0.25060  0.57380  0.75560  Biso   1.000  H
  H8       1.0000 0.24940  0.42620  0.25560  Biso   1.000  H
  H9       1.0000 0.62710  0.99010  0.78550  Biso   1.000  H
  H10      1.0000 0.87290  0.00990  0.28550  Biso   1.000  H
  H11      1.0000 0.37290  0.49010  0.71450  Biso   1.000  H
  H12      1.0000 0.12710  0.50990  0.21450  Biso   1.000  H
  C13      1.0000 0.93730  0.86920  0.71690  Biso   1.000  C
  C14      1.0000 0.56270  0.13080  0.21690  Biso   1.000  C
  C15      1.0000 0.06270  0.36920  0.78310  Biso   1.000  C
  C16      1.0000 0.43730  0.63080  0.28310  Biso   1.000  C
  H13      1.0000 0.99610  0.92020  0.66560  Biso   1.000  H
  H14      1.0000 0.50390  0.07980  0.16560  Biso   1.000  H
  H15      1.0000 0.00390  0.42020  0.83440  Biso   1.000  H
  H16      1.0000 0.49610  0.57980  0.33440  Biso   1.000  H
  C17      1.0000 0.79960  0.95130  0.88280  Biso   1.000  C
  C18      1.0000 0.70040  0.04870  0.38280  Biso   1.000  C
  C19      1.0000 0.20040  0.45130  0.61720  Biso   1.000  C
  C20      1.0000 0.29960  0.54870  0.11720  Biso   1.000  C
  H17      1.0000 0.80480  0.02340  0.93770  Biso   1.000  H
  H18      1.0000 0.69520  0.97660  0.43770  Biso   1.000  H
  H19      1.0000 0.19520  0.52340  0.56230  Biso   1.000  H
  H20      1.0000 0.30480  0.47660  0.06230  Biso   1.000  H
  C21      1.0000 0.10290  0.91340  0.17420  Biso   1.000  C
  C22      1.0000 0.39710  0.08660  0.67420  Biso   1.000  C
  C23      1.0000 0.89710  0.41340  0.32580  Biso   1.000  C
  C24      1.0000 0.60290  0.58660  0.82580  Biso   1.000  C
  H21      1.0000 0.10570  0.83250  0.20530  Biso   1.000  H
  H22      1.0000 0.39430  0.16750  0.70530  Biso   1.000  H
  H23      1.0000 0.89430  0.33250  0.29470  Biso   1.000  H
  H24      1.0000 0.60570  0.66750  0.79470  Biso   1.000  H
  N5       1.0000 0.14030  0.00580  0.24630  Biso   1.000  N
  N6       1.0000 0.35970  0.99420  0.74630  Biso   1.000  N
  N7       1.0000 0.85970  0.50580  0.25370  Biso   1.000  N
  N8       1.0000 0.64030  0.49420  0.75370  Biso   1.000  N
  C25      1.0000 0.14040  0.13470  0.20210  Biso   1.000  C
  C26      1.0000 0.35960  0.86530  0.70210  Biso   1.000  C
  C27      1.0000 0.85960  0.63470  0.29790  Biso   1.000  C
  C28      1.0000 0.64040  0.36530  0.79790  Biso   1.000  C
  H25      1.0000 0.23040  0.15960  0.18330  Biso   1.000  H
  H26      1.0000 0.26960  0.84040  0.68330  Biso   1.000  H
  H27      1.0000 0.76960  0.65960  0.31670  Biso   1.000  H
  H28      1.0000 0.73040  0.34040  0.81670  Biso   1.000  H
  H29      1.0000 0.10460  0.18890  0.26360  Biso   1.000  H
  H30      1.0000 0.39540  0.81110  0.76360  Biso   1.000  H
  H31      1.0000 0.89540  0.68890  0.23640  Biso   1.000  H
  H32      1.0000 0.60460  0.31110  0.73640  Biso   1.000  H
  H33      1.0000 0.08620  0.14030  0.13040  Biso   1.000  H
  H34      1.0000 0.41380  0.85970  0.63040  Biso   1.000  H
  H35      1.0000 0.91380  0.64030  0.36960  Biso   1.000  H
  H36      1.0000 0.58620  0.35970  0.86960  Biso   1.000  H
  C29      1.0000 0.17400  0.98360  0.37390  Biso   1.000  C
  C30      1.0000 0.32600  0.01640  0.87390  Biso   1.000  C
  C31      1.0000 0.82600  0.48360  0.12610  Biso   1.000  C
  C32      1.0000 0.67400  0.51640  0.62610  Biso   1.000  C
  H37      1.0000 0.16770  0.89560  0.39120  Biso   1.000  H
  H38      1.0000 0.33230  0.10440  0.89120  Biso   1.000  H
  H39      1.0000 0.83230  0.39560  0.10880  Biso   1.000  H
  H40      1.0000 0.66770  0.60440  0.60880  Biso   1.000  H
  H41      1.0000 0.11280  0.02880  0.42480  Biso   1.000  H
  H42      1.0000 0.38720  0.97120  0.92480  Biso   1.000  H
  H43      1.0000 0.88720  0.52880  0.07520  Biso   1.000  H
  H44      1.0000 0.61280  0.47120  0.57520  Biso   1.000  H
  H45      1.0000 0.26370  0.01180  0.38930  Biso   1.000  H
  H46      1.0000 0.23630  0.98820  0.88930  Biso   1.000  H
  H47      1.0000 0.73630  0.51180  0.11070  Biso   1.000  H
  H48      1.0000 0.76370  0.48820  0.61070  Biso   1.000  H
