data_image0
_cell_length_a       19.8492
_cell_length_b       7.7764
_cell_length_c       15.2852
_cell_angle_alpha    90
_cell_angle_beta     90
_cell_angle_gamma    90

_symmetry_space_group_name_H-M    "P 1"
_symmetry_int_tables_number       1

loop_
  _symmetry_equiv_pos_as_xyz
  'x, y, z'

loop_
  _atom_site_label
  _atom_site_occupancy
  _atom_site_fract_x
  _atom_site_fract_y
  _atom_site_fract_z
  _atom_site_thermal_displace_type
  _atom_site_B_iso_or_equiv
  _atom_site_type_symbol
  Cu1      1.0000 0.20684  0.39934  0.40422  Biso   1.000  Cu
  Cu2      1.0000 0.29316  0.10066  0.90422  Biso   1.000  Cu
  Cu3      1.0000 0.70684  0.10066  0.59578  Biso   1.000  Cu
  Cu4      1.0000 0.79316  0.39934  0.09578  Biso   1.000  Cu
  Cu5      1.0000 0.79316  0.60066  0.59578  Biso   1.000  Cu
  Cu6      1.0000 0.70684  0.89934  0.09578  Biso   1.000  Cu
  Cu7      1.0000 0.29316  0.89934  0.40422  Biso   1.000  Cu
  Cu8      1.0000 0.20684  0.60066  0.90422  Biso   1.000  Cu
  Br1      1.0000 0.26633  0.57966  0.50297  Biso   1.000  Br
  Br2      1.0000 0.23367  0.92034  0.00297  Biso   1.000  Br
  Br3      1.0000 0.76633  0.92034  0.49703  Biso   1.000  Br
  Br4      1.0000 0.73367  0.57966  0.99703  Biso   1.000  Br
  Br5      1.0000 0.73367  0.42034  0.49703  Biso   1.000  Br
  Br6      1.0000 0.76633  0.07966  0.99703  Biso   1.000  Br
  Br7      1.0000 0.23367  0.07966  0.50297  Biso   1.000  Br
  Br8      1.0000 0.26633  0.42034  0.00297  Biso   1.000  Br
  S1       1.0000 0.10298  0.45176  0.45808  Biso   1.000  S
  S2       1.0000 0.39702  0.04824  0.95808  Biso   1.000  S
  S3       1.0000 0.60298  0.04824  0.54192  Biso   1.000  S
  S4       1.0000 0.89702  0.45176  0.04192  Biso   1.000  S
  S5       1.0000 0.89702  0.54824  0.54192  Biso   1.000  S
  S6       1.0000 0.60298  0.95176  0.04192  Biso   1.000  S
  S7       1.0000 0.39702  0.95176  0.45808  Biso   1.000  S
  S8       1.0000 0.10298  0.54824  0.95808  Biso   1.000  S
  N1       1.0000 0.28560  0.33510  0.32563  Biso   1.000  N
  N2       1.0000 0.21440  0.16490  0.82563  Biso   1.000  N
  N3       1.0000 0.78560  0.16490  0.67437  Biso   1.000  N
  N4       1.0000 0.71440  0.33510  0.17437  Biso   1.000  N
  N5       1.0000 0.71440  0.66490  0.67437  Biso   1.000  N
  N6       1.0000 0.78560  0.83510  0.17437  Biso   1.000  N
  N7       1.0000 0.21440  0.83510  0.32563  Biso   1.000  N
  N8       1.0000 0.28560  0.66490  0.82563  Biso   1.000  N
  N9       1.0000 0.15812  0.30210  0.30609  Biso   1.000  N
  N10      1.0000 0.34188  0.19790  0.80609  Biso   1.000  N
  N11      1.0000 0.65812  0.19790  0.69391  Biso   1.000  N
  N12      1.0000 0.84188  0.30210  0.19391  Biso   1.000  N
  N13      1.0000 0.84188  0.69790  0.69391  Biso   1.000  N
  N14      1.0000 0.65812  0.80210  0.19391  Biso   1.000  N
  N15      1.0000 0.34188  0.80210  0.30609  Biso   1.000  N
  N16      1.0000 0.15812  0.69790  0.80609  Biso   1.000  N
  N17      1.0000 0.08852  0.30030  0.29880  Biso   1.000  N
  N18      1.0000 0.41148  0.19970  0.79880  Biso   1.000  N
  N19      1.0000 0.58852  0.19970  0.70120  Biso   1.000  N
  N20      1.0000 0.91148  0.30030  0.20120  Biso   1.000  N
  N21      1.0000 0.91148  0.69970  0.70120  Biso   1.000  N
  N22      1.0000 0.58852  0.80030  0.20120  Biso   1.000  N
  N23      1.0000 0.41148  0.80030  0.29880  Biso   1.000  N
  N24      1.0000 0.08852  0.69970  0.79880  Biso   1.000  N
  N25      1.0000 0.99185  0.38250  0.36800  Biso   1.000  N
  N26      1.0000 0.50815  0.11750  0.86800  Biso   1.000  N
  N27      1.0000 0.49185  0.11750  0.63200  Biso   1.000  N
  N28      1.0000 0.00815  0.38250  0.13200  Biso   1.000  N
  N29      1.0000 0.00815  0.61750  0.63200  Biso   1.000  N
  N30      1.0000 0.49185  0.88250  0.13200  Biso   1.000  N
  N31      1.0000 0.50815  0.88250  0.36800  Biso   1.000  N
  N32      1.0000 0.99185  0.61750  0.86800  Biso   1.000  N
  H1       1.0000 0.97280  0.42350  0.41010  Biso   1.000  H
  H2       1.0000 0.52720  0.07650  0.91010  Biso   1.000  H
  H3       1.0000 0.47280  0.07650  0.58990  Biso   1.000  H
  H4       1.0000 0.02720  0.42350  0.08990  Biso   1.000  H
  H5       1.0000 0.02720  0.57650  0.58990  Biso   1.000  H
  H6       1.0000 0.47280  0.92350  0.08990  Biso   1.000  H
  H7       1.0000 0.52720  0.92350  0.41010  Biso   1.000  H
  H8       1.0000 0.97280  0.57650  0.91010  Biso   1.000  H
  H9       1.0000 0.96710  0.36010  0.32360  Biso   1.000  H
  H10      1.0000 0.53290  0.13990  0.82360  Biso   1.000  H
  H11      1.0000 0.46710  0.13990  0.67640  Biso   1.000  H
  H12      1.0000 0.03290  0.36010  0.17640  Biso   1.000  H
  H13      1.0000 0.03290  0.63990  0.67640  Biso   1.000  H
  H14      1.0000 0.46710  0.86010  0.17640  Biso   1.000  H
  H15      1.0000 0.53290  0.86010  0.32360  Biso   1.000  H
  H16      1.0000 0.96710  0.63990  0.82360  Biso   1.000  H
  N33      1.0000 0.16562  0.16880  0.16940  Biso   1.000  N
  N34      1.0000 0.33438  0.33120  0.66940  Biso   1.000  N
  N35      1.0000 0.66562  0.33120  0.83060  Biso   1.000  N
  N36      1.0000 0.83438  0.16880  0.33060  Biso   1.000  N
  N37      1.0000 0.83438  0.83120  0.83060  Biso   1.000  N
  N38      1.0000 0.66562  0.66880  0.33060  Biso   1.000  N
  N39      1.0000 0.33438  0.66880  0.16940  Biso   1.000  N
  N40      1.0000 0.16562  0.83120  0.66940  Biso   1.000  N
  H17      1.0000 0.19230  0.12840  0.13190  Biso   1.000  H
  H18      1.0000 0.30770  0.37160  0.63190  Biso   1.000  H
  H19      1.0000 0.69230  0.37160  0.86810  Biso   1.000  H
  H20      1.0000 0.80770  0.12840  0.36810  Biso   1.000  H
  H21      1.0000 0.80770  0.87160  0.86810  Biso   1.000  H
  H22      1.0000 0.69230  0.62840  0.36810  Biso   1.000  H
  H23      1.0000 0.30770  0.62840  0.13190  Biso   1.000  H
  H24      1.0000 0.19230  0.87160  0.63190  Biso   1.000  H
  H25      1.0000 0.12250  0.15920  0.16220  Biso   1.000  H
  H26      1.0000 0.37750  0.34080  0.66220  Biso   1.000  H
  H27      1.0000 0.62250  0.34080  0.83780  Biso   1.000  H
  H28      1.0000 0.87750  0.15920  0.33780  Biso   1.000  H
  H29      1.0000 0.87750  0.84080  0.83780  Biso   1.000  H
  H30      1.0000 0.62250  0.65920  0.33780  Biso   1.000  H
  H31      1.0000 0.37750  0.65920  0.16220  Biso   1.000  H
  H32      1.0000 0.12250  0.84080  0.66220  Biso   1.000  H
  C1       1.0000 0.35108  0.35520  0.34260  Biso   1.000  C
  C2       1.0000 0.14892  0.14480  0.84260  Biso   1.000  C
  C3       1.0000 0.85108  0.14480  0.65740  Biso   1.000  C
  C4       1.0000 0.64892  0.35520  0.15740  Biso   1.000  C
  C5       1.0000 0.64892  0.64480  0.65740  Biso   1.000  C
  C6       1.0000 0.85108  0.85520  0.15740  Biso   1.000  C
  C7       1.0000 0.14892  0.85520  0.34260  Biso   1.000  C
  C8       1.0000 0.35108  0.64480  0.84260  Biso   1.000  C
  H33      1.0000 0.36410  0.41090  0.39380  Biso   1.000  H
  H34      1.0000 0.13590  0.08910  0.89380  Biso   1.000  H
  H35      1.0000 0.86410  0.08910  0.60620  Biso   1.000  H
  H36      1.0000 0.63590  0.41090  0.10620  Biso   1.000  H
  H37      1.0000 0.63590  0.58910  0.60620  Biso   1.000  H
  H38      1.0000 0.86410  0.91090  0.10620  Biso   1.000  H
  H39      1.0000 0.13590  0.91090  0.39380  Biso   1.000  H
  H40      1.0000 0.36410  0.58910  0.89380  Biso   1.000  H
  C9       1.0000 0.40008  0.29410  0.28570  Biso   1.000  C
  C10      1.0000 0.09992  0.20590  0.78570  Biso   1.000  C
  C11      1.0000 0.90008  0.20590  0.71430  Biso   1.000  C
  C12      1.0000 0.59992  0.29410  0.21430  Biso   1.000  C
  C13      1.0000 0.59992  0.70590  0.71430  Biso   1.000  C
  C14      1.0000 0.90008  0.79410  0.21430  Biso   1.000  C
  C15      1.0000 0.09992  0.79410  0.28570  Biso   1.000  C
  C16      1.0000 0.40008  0.70590  0.78570  Biso   1.000  C
  H41      1.0000 0.44550  0.30910  0.29860  Biso   1.000  H
  H42      1.0000 0.05450  0.19090  0.79860  Biso   1.000  H
  H43      1.0000 0.94550  0.19090  0.70140  Biso   1.000  H
  H44      1.0000 0.55450  0.30910  0.20140  Biso   1.000  H
  H45      1.0000 0.55450  0.69090  0.70140  Biso   1.000  H
  H46      1.0000 0.94550  0.80910  0.20140  Biso   1.000  H
  H47      1.0000 0.05450  0.80910  0.29860  Biso   1.000  H
  H48      1.0000 0.44550  0.69090  0.79860  Biso   1.000  H
  C17      1.0000 0.38112  0.21220  0.21050  Biso   1.000  C
  C18      1.0000 0.11888  0.28780  0.71050  Biso   1.000  C
  C19      1.0000 0.88112  0.28780  0.78950  Biso   1.000  C
  C20      1.0000 0.61888  0.21220  0.28950  Biso   1.000  C
  C21      1.0000 0.61888  0.78780  0.78950  Biso   1.000  C
  C22      1.0000 0.88112  0.71220  0.28950  Biso   1.000  C
  C23      1.0000 0.11888  0.71220  0.21050  Biso   1.000  C
  C24      1.0000 0.38112  0.78780  0.71050  Biso   1.000  C
  H49      1.0000 0.41350  0.17220  0.17150  Biso   1.000  H
  H50      1.0000 0.08650  0.32780  0.67150  Biso   1.000  H
  H51      1.0000 0.91350  0.32780  0.82850  Biso   1.000  H
  H52      1.0000 0.58650  0.17220  0.32850  Biso   1.000  H
  H53      1.0000 0.58650  0.82780  0.82850  Biso   1.000  H
  H54      1.0000 0.91350  0.67220  0.32850  Biso   1.000  H
  H55      1.0000 0.08650  0.67220  0.17150  Biso   1.000  H
  H56      1.0000 0.41350  0.82780  0.67150  Biso   1.000  H
  C25      1.0000 0.31314  0.18830  0.19240  Biso   1.000  C
  C26      1.0000 0.18686  0.31170  0.69240  Biso   1.000  C
  C27      1.0000 0.81314  0.31170  0.80760  Biso   1.000  C
  C28      1.0000 0.68686  0.18830  0.30760  Biso   1.000  C
  C29      1.0000 0.68686  0.81170  0.80760  Biso   1.000  C
  C30      1.0000 0.81314  0.68830  0.30760  Biso   1.000  C
  C31      1.0000 0.18686  0.68830  0.19240  Biso   1.000  C
  C32      1.0000 0.31314  0.81170  0.69240  Biso   1.000  C
  H57      1.0000 0.29920  0.13080  0.14220  Biso   1.000  H
  H58      1.0000 0.20080  0.36920  0.64220  Biso   1.000  H
  H59      1.0000 0.79920  0.36920  0.85780  Biso   1.000  H
  H60      1.0000 0.70080  0.13080  0.35780  Biso   1.000  H
  H61      1.0000 0.70080  0.86920  0.85780  Biso   1.000  H
  H62      1.0000 0.79920  0.63080  0.35780  Biso   1.000  H
  H63      1.0000 0.20080  0.63080  0.14220  Biso   1.000  H
  H64      1.0000 0.29920  0.86920  0.64220  Biso   1.000  H
  C33      1.0000 0.26661  0.25360  0.25200  Biso   1.000  C
  C34      1.0000 0.23339  0.24640  0.75200  Biso   1.000  C
  C35      1.0000 0.76661  0.24640  0.74800  Biso   1.000  C
  C36      1.0000 0.73339  0.25360  0.24800  Biso   1.000  C
  C37      1.0000 0.73339  0.74640  0.74800  Biso   1.000  C
  C38      1.0000 0.76661  0.75360  0.24800  Biso   1.000  C
  C39      1.0000 0.23339  0.75360  0.25200  Biso   1.000  C
  C40      1.0000 0.26661  0.74640  0.75200  Biso   1.000  C
  C41      1.0000 0.19237  0.24010  0.24060  Biso   1.000  C
  C42      1.0000 0.30763  0.25990  0.74060  Biso   1.000  C
  C43      1.0000 0.69237  0.25990  0.75940  Biso   1.000  C
  C44      1.0000 0.80763  0.24010  0.25940  Biso   1.000  C
  C45      1.0000 0.80763  0.75990  0.75940  Biso   1.000  C
  C46      1.0000 0.69237  0.74010  0.25940  Biso   1.000  C
  C47      1.0000 0.30763  0.74010  0.24060  Biso   1.000  C
  C48      1.0000 0.19237  0.75990  0.74060  Biso   1.000  C
  C49      1.0000 0.06031  0.37020  0.36740  Biso   1.000  C
  C50      1.0000 0.43969  0.12980  0.86740  Biso   1.000  C
  C51      1.0000 0.56031  0.12980  0.63260  Biso   1.000  C
  C52      1.0000 0.93969  0.37020  0.13260  Biso   1.000  C
  C53      1.0000 0.93969  0.62980  0.63260  Biso   1.000  C
  C54      1.0000 0.56031  0.87020  0.13260  Biso   1.000  C
  C55      1.0000 0.43969  0.87020  0.36740  Biso   1.000  C
  C56      1.0000 0.06031  0.62980  0.86740  Biso   1.000  C
