data_image0
_cell_length_a       10.6081
_cell_length_b       22.9446
_cell_length_c       7.4028
_cell_angle_alpha    90
_cell_angle_beta     90
_cell_angle_gamma    90

_symmetry_space_group_name_H-M    "P 1"
_symmetry_int_tables_number       1

loop_
  _symmetry_equiv_pos_as_xyz
  'x, y, z'

loop_
  _atom_site_label
  _atom_site_occupancy
  _atom_site_fract_x
  _atom_site_fract_y
  _atom_site_fract_z
  _atom_site_thermal_displace_type
  _atom_site_B_iso_or_equiv
  _atom_site_type_symbol
  Cu1      1.0000 0.56513  0.75000  0.00484  Biso   1.000  Cu
  Cu2      1.0000 0.93487  0.25000  0.50484  Biso   1.000  Cu
  Cu3      1.0000 0.06513  0.75000  0.49516  Biso   1.000  Cu
  Cu4      1.0000 0.43487  0.25000  0.99516  Biso   1.000  Cu
  O1       1.0000 0.13060  0.75000  0.83810  Biso   1.000  O
  O2       1.0000 0.36940  0.25000  0.33810  Biso   1.000  O
  O3       1.0000 0.63060  0.75000  0.66190  Biso   1.000  O
  O4       1.0000 0.86940  0.25000  0.16190  Biso   1.000  O
  O5       1.0000 0.69707  0.69281  0.05250  Biso   1.000  O
  O6       1.0000 0.80293  0.30719  0.55250  Biso   1.000  O
  O7       1.0000 0.19707  0.80719  0.44750  Biso   1.000  O
  O8       1.0000 0.30293  0.19281  0.94750  Biso   1.000  O
  O9       1.0000 0.30293  0.30719  0.94750  Biso   1.000  O
  O10      1.0000 0.19707  0.69281  0.44750  Biso   1.000  O
  O11      1.0000 0.80293  0.19281  0.55250  Biso   1.000  O
  O12      1.0000 0.69707  0.80719  0.05250  Biso   1.000  O
  O13      1.0000 0.91038  0.63579  0.09610  Biso   1.000  O
  O14      1.0000 0.58962  0.36421  0.59610  Biso   1.000  O
  O15      1.0000 0.41038  0.86421  0.40390  Biso   1.000  O
  O16      1.0000 0.08962  0.13579  0.90390  Biso   1.000  O
  O17      1.0000 0.08962  0.36421  0.90390  Biso   1.000  O
  O18      1.0000 0.41038  0.63579  0.40390  Biso   1.000  O
  O19      1.0000 0.58962  0.13579  0.59610  Biso   1.000  O
  O20      1.0000 0.91038  0.86421  0.09610  Biso   1.000  O
  N1       1.0000 0.44010  0.68594  0.95790  Biso   1.000  N
  N2       1.0000 0.05990  0.31406  0.45790  Biso   1.000  N
  N3       1.0000 0.94010  0.81406  0.54210  Biso   1.000  N
  N4       1.0000 0.55990  0.18594  0.04210  Biso   1.000  N
  N5       1.0000 0.55990  0.31406  0.04210  Biso   1.000  N
  N6       1.0000 0.94010  0.68594  0.54210  Biso   1.000  N
  N7       1.0000 0.05990  0.18594  0.45790  Biso   1.000  N
  N8       1.0000 0.44010  0.81406  0.95790  Biso   1.000  N
  C1       1.0000 0.26440  0.75000  0.86520  Biso   1.000  C
  C2       1.0000 0.23560  0.25000  0.36520  Biso   1.000  C
  C3       1.0000 0.76440  0.75000  0.63480  Biso   1.000  C
  C4       1.0000 0.73560  0.25000  0.13480  Biso   1.000  C
  H1       1.0000 0.30550  0.75000  0.74670  Biso   1.000  H
  H2       1.0000 0.19450  0.25000  0.24670  Biso   1.000  H
  H3       1.0000 0.80550  0.75000  0.75330  Biso   1.000  H
  H4       1.0000 0.69450  0.25000  0.25330  Biso   1.000  H
  C5       1.0000 0.30190  0.69527  0.96370  Biso   1.000  C
  C6       1.0000 0.19810  0.30473  0.46370  Biso   1.000  C
  C7       1.0000 0.80190  0.80473  0.53630  Biso   1.000  C
  C8       1.0000 0.69810  0.19527  0.03630  Biso   1.000  C
  C9       1.0000 0.69810  0.30473  0.03630  Biso   1.000  C
  C10      1.0000 0.80190  0.69527  0.53630  Biso   1.000  C
  C11      1.0000 0.19810  0.19527  0.46370  Biso   1.000  C
  C12      1.0000 0.30190  0.80473  0.96370  Biso   1.000  C
  H5       1.0000 0.27480  0.69790  0.08860  Biso   1.000  H
  H6       1.0000 0.22520  0.30210  0.58860  Biso   1.000  H
  H7       1.0000 0.77480  0.80210  0.41140  Biso   1.000  H
  H8       1.0000 0.72520  0.19790  0.91140  Biso   1.000  H
  H9       1.0000 0.72520  0.30210  0.91140  Biso   1.000  H
  H10      1.0000 0.77480  0.69790  0.41140  Biso   1.000  H
  H11      1.0000 0.22520  0.19790  0.58860  Biso   1.000  H
  H12      1.0000 0.27480  0.80210  0.08860  Biso   1.000  H
  H13      1.0000 0.25980  0.66210  0.90930  Biso   1.000  H
  H14      1.0000 0.24020  0.33790  0.40930  Biso   1.000  H
  H15      1.0000 0.75980  0.83790  0.59070  Biso   1.000  H
  H16      1.0000 0.74020  0.16210  0.09070  Biso   1.000  H
  H17      1.0000 0.74020  0.33790  0.09070  Biso   1.000  H
  H18      1.0000 0.75980  0.66210  0.59070  Biso   1.000  H
  H19      1.0000 0.24020  0.16210  0.40930  Biso   1.000  H
  H20      1.0000 0.25980  0.83790  0.90930  Biso   1.000  H
  C13      1.0000 0.47310  0.63376  0.91790  Biso   1.000  C
  C14      1.0000 0.02690  0.36624  0.41790  Biso   1.000  C
  C15      1.0000 0.97310  0.86624  0.58210  Biso   1.000  C
  C16      1.0000 0.52690  0.13376  0.08210  Biso   1.000  C
  C17      1.0000 0.52690  0.36624  0.08210  Biso   1.000  C
  C18      1.0000 0.97310  0.63376  0.58210  Biso   1.000  C
  C19      1.0000 0.02690  0.13376  0.41790  Biso   1.000  C
  C20      1.0000 0.47310  0.86624  0.91790  Biso   1.000  C
  C21      1.0000 0.59570  0.60846  0.92560  Biso   1.000  C
  C22      1.0000 0.90430  0.39154  0.42560  Biso   1.000  C
  C23      1.0000 0.09570  0.89154  0.57440  Biso   1.000  C
  C24      1.0000 0.40430  0.10846  0.07440  Biso   1.000  C
  C25      1.0000 0.40430  0.39154  0.07440  Biso   1.000  C
  C26      1.0000 0.09570  0.60846  0.57440  Biso   1.000  C
  C27      1.0000 0.90430  0.10846  0.42560  Biso   1.000  C
  C28      1.0000 0.59570  0.89154  0.92560  Biso   1.000  C
  C29      1.0000 0.60730  0.54944  0.87350  Biso   1.000  C
  C30      1.0000 0.89270  0.45056  0.37350  Biso   1.000  C
  C31      1.0000 0.10730  0.95056  0.62650  Biso   1.000  C
  C32      1.0000 0.39270  0.04944  0.12650  Biso   1.000  C
  C33      1.0000 0.39270  0.45056  0.12650  Biso   1.000  C
  C34      1.0000 0.10730  0.54944  0.62650  Biso   1.000  C
  C35      1.0000 0.89270  0.04944  0.37350  Biso   1.000  C
  C36      1.0000 0.60730  0.95056  0.87350  Biso   1.000  C
  H21      1.0000 0.53730  0.53020  0.82700  Biso   1.000  H
  H22      1.0000 0.96270  0.46980  0.32700  Biso   1.000  H
  H23      1.0000 0.03730  0.96980  0.67300  Biso   1.000  H
  H24      1.0000 0.46270  0.03020  0.17300  Biso   1.000  H
  H25      1.0000 0.46270  0.46980  0.17300  Biso   1.000  H
  H26      1.0000 0.03730  0.53020  0.67300  Biso   1.000  H
  H27      1.0000 0.96270  0.03020  0.32700  Biso   1.000  H
  H28      1.0000 0.53730  0.96980  0.82700  Biso   1.000  H
  C37      1.0000 0.71790  0.52005  0.88970  Biso   1.000  C
  C38      1.0000 0.78210  0.47995  0.38970  Biso   1.000  C
  C39      1.0000 0.21790  0.97995  0.61030  Biso   1.000  C
  C40      1.0000 0.28210  0.02005  0.11030  Biso   1.000  C
  C41      1.0000 0.28210  0.47995  0.11030  Biso   1.000  C
  C42      1.0000 0.21790  0.52005  0.61030  Biso   1.000  C
  C43      1.0000 0.78210  0.02005  0.38970  Biso   1.000  C
  C44      1.0000 0.71790  0.97995  0.88970  Biso   1.000  C
  H29      1.0000 0.72400  0.48150  0.85190  Biso   1.000  H
  H30      1.0000 0.77600  0.51850  0.35190  Biso   1.000  H
  H31      1.0000 0.22400  0.01850  0.64810  Biso   1.000  H
  H32      1.0000 0.27600  0.98150  0.14810  Biso   1.000  H
  H33      1.0000 0.27600  0.51850  0.14810  Biso   1.000  H
  H34      1.0000 0.22400  0.48150  0.64810  Biso   1.000  H
  H35      1.0000 0.77600  0.98150  0.35190  Biso   1.000  H
  H36      1.0000 0.72400  0.01850  0.85190  Biso   1.000  H
  C45      1.0000 0.82210  0.54848  0.96370  Biso   1.000  C
  C46      1.0000 0.67790  0.45152  0.46370  Biso   1.000  C
  C47      1.0000 0.32210  0.95152  0.53630  Biso   1.000  C
  C48      1.0000 0.17790  0.04848  0.03630  Biso   1.000  C
  C49      1.0000 0.17790  0.45152  0.03630  Biso   1.000  C
  C50      1.0000 0.32210  0.54848  0.53630  Biso   1.000  C
  C51      1.0000 0.67790  0.04848  0.46370  Biso   1.000  C
  C52      1.0000 0.82210  0.95152  0.96370  Biso   1.000  C
  H37      1.0000 0.89790  0.52850  0.97660  Biso   1.000  H
  H38      1.0000 0.60210  0.47150  0.47660  Biso   1.000  H
  H39      1.0000 0.39790  0.97150  0.52340  Biso   1.000  H
  H40      1.0000 0.10210  0.02850  0.02340  Biso   1.000  H
  H41      1.0000 0.10210  0.47150  0.02340  Biso   1.000  H
  H42      1.0000 0.39790  0.52850  0.52340  Biso   1.000  H
  H43      1.0000 0.60210  0.02850  0.47660  Biso   1.000  H
  H44      1.0000 0.89790  0.97150  0.97660  Biso   1.000  H
  C53      1.0000 0.81400  0.60587  0.01790  Biso   1.000  C
  C54      1.0000 0.68600  0.39413  0.51790  Biso   1.000  C
  C55      1.0000 0.31400  0.89413  0.48210  Biso   1.000  C
  C56      1.0000 0.18600  0.10587  0.98210  Biso   1.000  C
  C57      1.0000 0.18600  0.39413  0.98210  Biso   1.000  C
  C58      1.0000 0.31400  0.60587  0.48210  Biso   1.000  C
  C59      1.0000 0.68600  0.10587  0.51790  Biso   1.000  C
  C60      1.0000 0.81400  0.89413  0.01790  Biso   1.000  C
  C61      1.0000 0.70000  0.63865  0.99860  Biso   1.000  C
  C62      1.0000 0.80000  0.36135  0.49860  Biso   1.000  C
  C63      1.0000 0.20000  0.86135  0.50140  Biso   1.000  C
  C64      1.0000 0.30000  0.13865  0.00140  Biso   1.000  C
  C65      1.0000 0.30000  0.36135  0.00140  Biso   1.000  C
  C66      1.0000 0.20000  0.63865  0.50140  Biso   1.000  C
  C67      1.0000 0.80000  0.13865  0.49860  Biso   1.000  C
  C68      1.0000 0.70000  0.86135  0.99860  Biso   1.000  C
  C69      1.0000 0.02910  0.60840  0.11240  Biso   1.000  C
  C70      1.0000 0.47090  0.39160  0.61240  Biso   1.000  C
  C71      1.0000 0.52910  0.89160  0.38760  Biso   1.000  C
  C72      1.0000 0.97090  0.10840  0.88760  Biso   1.000  C
  C73      1.0000 0.97090  0.39160  0.88760  Biso   1.000  C
  C74      1.0000 0.52910  0.60840  0.38760  Biso   1.000  C
  C75      1.0000 0.47090  0.10840  0.61240  Biso   1.000  C
  C76      1.0000 0.02910  0.89160  0.11240  Biso   1.000  C
  H45      1.0000 0.02040  0.57330  0.18180  Biso   1.000  H
  H46      1.0000 0.47960  0.42670  0.68180  Biso   1.000  H
  H47      1.0000 0.52040  0.92670  0.31820  Biso   1.000  H
  H48      1.0000 0.97960  0.07330  0.81820  Biso   1.000  H
  H49      1.0000 0.97960  0.42670  0.81820  Biso   1.000  H
  H50      1.0000 0.52040  0.57330  0.31820  Biso   1.000  H
  H51      1.0000 0.47960  0.07330  0.68180  Biso   1.000  H
  H52      1.0000 0.02040  0.92670  0.18180  Biso   1.000  H
  H53      1.0000 0.08680  0.63420  0.17220  Biso   1.000  H
  H54      1.0000 0.41320  0.36580  0.67220  Biso   1.000  H
  H55      1.0000 0.58680  0.86580  0.32780  Biso   1.000  H
  H56      1.0000 0.91320  0.13420  0.82780  Biso   1.000  H
  H57      1.0000 0.91320  0.36580  0.82780  Biso   1.000  H
  H58      1.0000 0.58680  0.63420  0.32780  Biso   1.000  H
  H59      1.0000 0.41320  0.13420  0.67220  Biso   1.000  H
  H60      1.0000 0.08680  0.86580  0.17220  Biso   1.000  H
  H61      1.0000 0.06080  0.59910  0.99450  Biso   1.000  H
  H62      1.0000 0.43920  0.40090  0.49450  Biso   1.000  H
  H63      1.0000 0.56080  0.90090  0.50550  Biso   1.000  H
  H64      1.0000 0.93920  0.09910  0.00550  Biso   1.000  H
  H65      1.0000 0.93920  0.40090  0.00550  Biso   1.000  H
  H66      1.0000 0.56080  0.59910  0.50550  Biso   1.000  H
  H67      1.0000 0.43920  0.09910  0.49450  Biso   1.000  H
  H68      1.0000 0.06080  0.90090  0.99450  Biso   1.000  H
  H69      1.0000 0.10800  0.75000  0.94500  Biso   1.000  H
  H70      1.0000 0.39200  0.25000  0.44500  Biso   1.000  H
  H71      1.0000 0.60800  0.75000  0.55500  Biso   1.000  H
  H72      1.0000 0.89200  0.25000  0.05500  Biso   1.000  H
  H73      1.0000 0.40500  0.60800  0.88700  Biso   1.000  H
  H74      1.0000 0.09500  0.39200  0.38700  Biso   1.000  H
  H75      1.0000 0.90500  0.89200  0.61300  Biso   1.000  H
  H76      1.0000 0.59500  0.10800  0.11300  Biso   1.000  H
  H77      1.0000 0.59500  0.39200  0.11300  Biso   1.000  H
  H78      1.0000 0.90500  0.60800  0.61300  Biso   1.000  H
  H79      1.0000 0.09500  0.10800  0.38700  Biso   1.000  H
  H80      1.0000 0.40500  0.89200  0.88700  Biso   1.000  H
  O21      1.0000 0.96920  0.75000  0.14270  Biso   1.000  O
  O22      1.0000 0.53080  0.25000  0.64270  Biso   1.000  O
  O23      1.0000 0.46920  0.75000  0.35730  Biso   1.000  O
  O24      1.0000 0.03080  0.25000  0.85730  Biso   1.000  O
  H81      1.0000 0.92500  0.71710  0.12500  Biso   1.000  H
  H82      1.0000 0.57500  0.28290  0.62500  Biso   1.000  H
  H83      1.0000 0.42500  0.78290  0.37500  Biso   1.000  H
  H84      1.0000 0.07500  0.21710  0.87500  Biso   1.000  H
  H85      1.0000 0.07500  0.28290  0.87500  Biso   1.000  H
  H86      1.0000 0.42500  0.71710  0.37500  Biso   1.000  H
  H87      1.0000 0.57500  0.21710  0.62500  Biso   1.000  H
  H88      1.0000 0.92500  0.78290  0.12500  Biso   1.000  H
