data_image0
_cell_length_a       20.2564
_cell_length_b       7.5598
_cell_length_c       15.0873
_cell_angle_alpha    90
_cell_angle_beta     90
_cell_angle_gamma    90

_symmetry_space_group_name_H-M    "P 1"
_symmetry_int_tables_number       1

loop_
  _symmetry_equiv_pos_as_xyz
  'x, y, z'

loop_
  _atom_site_label
  _atom_site_occupancy
  _atom_site_fract_x
  _atom_site_fract_y
  _atom_site_fract_z
  _atom_site_thermal_displace_type
  _atom_site_B_iso_or_equiv
  _atom_site_type_symbol
  Cu1      1.0000 0.79274  0.90255  0.39978  Biso   1.000  Cu
  Cu2      1.0000 0.70726  0.59745  0.89978  Biso   1.000  Cu
  Cu3      1.0000 0.29274  0.59745  0.60022  Biso   1.000  Cu
  Cu4      1.0000 0.20726  0.90255  0.10022  Biso   1.000  Cu
  Cu5      1.0000 0.20726  0.09745  0.60022  Biso   1.000  Cu
  Cu6      1.0000 0.29274  0.40255  0.10022  Biso   1.000  Cu
  Cu7      1.0000 0.70726  0.40255  0.39978  Biso   1.000  Cu
  Cu8      1.0000 0.79274  0.09745  0.89978  Biso   1.000  Cu
  Cl1      1.0000 0.73322  0.06850  0.49400  Biso   1.000  Cl
  Cl2      1.0000 0.76678  0.43150  0.99400  Biso   1.000  Cl
  Cl3      1.0000 0.23322  0.43150  0.50600  Biso   1.000  Cl
  Cl4      1.0000 0.26678  0.06850  0.00600  Biso   1.000  Cl
  Cl5      1.0000 0.26678  0.93150  0.50600  Biso   1.000  Cl
  Cl6      1.0000 0.23322  0.56850  0.00600  Biso   1.000  Cl
  Cl7      1.0000 0.76678  0.56850  0.49400  Biso   1.000  Cl
  Cl8      1.0000 0.73322  0.93150  0.99400  Biso   1.000  Cl
  S1       1.0000 0.89370  0.96280  0.45682  Biso   1.000  S
  S2       1.0000 0.60630  0.53720  0.95682  Biso   1.000  S
  S3       1.0000 0.39370  0.53720  0.54318  Biso   1.000  S
  S4       1.0000 0.10630  0.96280  0.04318  Biso   1.000  S
  S5       1.0000 0.10630  0.03720  0.54318  Biso   1.000  S
  S6       1.0000 0.39370  0.46280  0.04318  Biso   1.000  S
  S7       1.0000 0.60630  0.46280  0.45682  Biso   1.000  S
  S8       1.0000 0.89370  0.03720  0.95682  Biso   1.000  S
  N1       1.0000 0.71720  0.83520  0.31760  Biso   1.000  N
  N2       1.0000 0.78280  0.66480  0.81760  Biso   1.000  N
  N3       1.0000 0.21720  0.66480  0.68240  Biso   1.000  N
  N4       1.0000 0.28280  0.83520  0.18240  Biso   1.000  N
  N5       1.0000 0.28280  0.16480  0.68240  Biso   1.000  N
  N6       1.0000 0.21720  0.33520  0.18240  Biso   1.000  N
  N7       1.0000 0.78280  0.33520  0.31760  Biso   1.000  N
  N8       1.0000 0.71720  0.16480  0.81760  Biso   1.000  N
  N9       1.0000 0.84210  0.80870  0.30060  Biso   1.000  N
  N10      1.0000 0.65790  0.69130  0.80060  Biso   1.000  N
  N11      1.0000 0.34210  0.69130  0.69940  Biso   1.000  N
  N12      1.0000 0.15790  0.80870  0.19940  Biso   1.000  N
  N13      1.0000 0.15790  0.19130  0.69940  Biso   1.000  N
  N14      1.0000 0.34210  0.30870  0.19940  Biso   1.000  N
  N15      1.0000 0.65790  0.30870  0.30060  Biso   1.000  N
  N16      1.0000 0.84210  0.19130  0.80060  Biso   1.000  N
  N17      1.0000 0.91090  0.81050  0.29580  Biso   1.000  N
  N18      1.0000 0.58910  0.68950  0.79580  Biso   1.000  N
  N19      1.0000 0.41090  0.68950  0.70420  Biso   1.000  N
  N20      1.0000 0.08910  0.81050  0.20420  Biso   1.000  N
  N21      1.0000 0.08910  0.18950  0.70420  Biso   1.000  N
  N22      1.0000 0.41090  0.31050  0.20420  Biso   1.000  N
  N23      1.0000 0.58910  0.31050  0.29580  Biso   1.000  N
  N24      1.0000 0.91090  0.18950  0.79580  Biso   1.000  N
  N25      1.0000 0.00410  0.90130  0.36810  Biso   1.000  N
  N26      1.0000 0.49590  0.59870  0.86810  Biso   1.000  N
  N27      1.0000 0.50410  0.59870  0.63190  Biso   1.000  N
  N28      1.0000 0.99590  0.90130  0.13190  Biso   1.000  N
  N29      1.0000 0.99590  0.09870  0.63190  Biso   1.000  N
  N30      1.0000 0.50410  0.40130  0.13190  Biso   1.000  N
  N31      1.0000 0.49590  0.40130  0.36810  Biso   1.000  N
  N32      1.0000 0.00410  0.09870  0.86810  Biso   1.000  N
  H1       1.0000 0.03060  0.89430  0.31500  Biso   1.000  H
  H2       1.0000 0.46940  0.60570  0.81500  Biso   1.000  H
  H3       1.0000 0.53060  0.60570  0.68500  Biso   1.000  H
  H4       1.0000 0.96940  0.89430  0.18500  Biso   1.000  H
  H5       1.0000 0.96940  0.10570  0.68500  Biso   1.000  H
  H6       1.0000 0.53060  0.39430  0.18500  Biso   1.000  H
  H7       1.0000 0.46940  0.39430  0.31500  Biso   1.000  H
  H8       1.0000 0.03060  0.10570  0.81500  Biso   1.000  H
  H9       1.0000 0.02930  0.92400  0.42190  Biso   1.000  H
  H10      1.0000 0.47070  0.57600  0.92190  Biso   1.000  H
  H11      1.0000 0.52930  0.57600  0.57810  Biso   1.000  H
  H12      1.0000 0.97070  0.92400  0.07810  Biso   1.000  H
  H13      1.0000 0.97070  0.07600  0.57810  Biso   1.000  H
  H14      1.0000 0.52930  0.42400  0.07810  Biso   1.000  H
  H15      1.0000 0.47070  0.42400  0.42190  Biso   1.000  H
  H16      1.0000 0.02930  0.07600  0.92190  Biso   1.000  H
  N33      1.0000 0.83730  0.68100  0.15990  Biso   1.000  N
  N34      1.0000 0.66270  0.81900  0.65990  Biso   1.000  N
  N35      1.0000 0.33730  0.81900  0.84010  Biso   1.000  N
  N36      1.0000 0.16270  0.68100  0.34010  Biso   1.000  N
  N37      1.0000 0.16270  0.31900  0.84010  Biso   1.000  N
  N38      1.0000 0.33730  0.18100  0.34010  Biso   1.000  N
  N39      1.0000 0.66270  0.18100  0.15990  Biso   1.000  N
  N40      1.0000 0.83730  0.31900  0.65990  Biso   1.000  N
  H17      1.0000 0.87950  0.67570  0.15480  Biso   1.000  H
  H18      1.0000 0.62050  0.82430  0.65480  Biso   1.000  H
  H19      1.0000 0.37950  0.82430  0.84520  Biso   1.000  H
  H20      1.0000 0.12050  0.67570  0.34520  Biso   1.000  H
  H21      1.0000 0.12050  0.32430  0.84520  Biso   1.000  H
  H22      1.0000 0.37950  0.17570  0.34520  Biso   1.000  H
  H23      1.0000 0.62050  0.17570  0.15480  Biso   1.000  H
  H24      1.0000 0.87950  0.32430  0.65480  Biso   1.000  H
  H25      1.0000 0.81250  0.64310  0.11780  Biso   1.000  H
  H26      1.0000 0.68750  0.85690  0.61780  Biso   1.000  H
  H27      1.0000 0.31250  0.85690  0.88220  Biso   1.000  H
  H28      1.0000 0.18750  0.64310  0.38220  Biso   1.000  H
  H29      1.0000 0.18750  0.35690  0.88220  Biso   1.000  H
  H30      1.0000 0.31250  0.14310  0.38220  Biso   1.000  H
  H31      1.0000 0.68750  0.14310  0.11780  Biso   1.000  H
  H32      1.0000 0.81250  0.35690  0.61780  Biso   1.000  H
  C1       1.0000 0.65240  0.85190  0.33420  Biso   1.000  C
  C2       1.0000 0.84760  0.64810  0.83420  Biso   1.000  C
  C3       1.0000 0.15240  0.64810  0.66580  Biso   1.000  C
  C4       1.0000 0.34760  0.85190  0.16580  Biso   1.000  C
  C5       1.0000 0.34760  0.14810  0.66580  Biso   1.000  C
  C6       1.0000 0.15240  0.35190  0.16580  Biso   1.000  C
  C7       1.0000 0.84760  0.35190  0.33420  Biso   1.000  C
  C8       1.0000 0.65240  0.14810  0.83420  Biso   1.000  C
  H33      1.0000 0.63850  0.90370  0.38690  Biso   1.000  H
  H34      1.0000 0.86150  0.59630  0.88690  Biso   1.000  H
  H35      1.0000 0.13850  0.59630  0.61310  Biso   1.000  H
  H36      1.0000 0.36150  0.90370  0.11310  Biso   1.000  H
  H37      1.0000 0.36150  0.09630  0.61310  Biso   1.000  H
  H38      1.0000 0.13850  0.40370  0.11310  Biso   1.000  H
  H39      1.0000 0.86150  0.40370  0.38690  Biso   1.000  H
  H40      1.0000 0.63850  0.09630  0.88690  Biso   1.000  H
  C9       1.0000 0.60590  0.79350  0.27330  Biso   1.000  C
  C10      1.0000 0.89410  0.70650  0.77330  Biso   1.000  C
  C11      1.0000 0.10590  0.70650  0.72670  Biso   1.000  C
  C12      1.0000 0.39410  0.79350  0.22670  Biso   1.000  C
  C13      1.0000 0.39410  0.20650  0.72670  Biso   1.000  C
  C14      1.0000 0.10590  0.29350  0.22670  Biso   1.000  C
  C15      1.0000 0.89410  0.29350  0.27330  Biso   1.000  C
  C16      1.0000 0.60590  0.20650  0.77330  Biso   1.000  C
  H41      1.0000 0.56110  0.80930  0.28440  Biso   1.000  H
  H42      1.0000 0.93890  0.69070  0.78440  Biso   1.000  H
  H43      1.0000 0.06110  0.69070  0.71560  Biso   1.000  H
  H44      1.0000 0.43890  0.80930  0.21560  Biso   1.000  H
  H45      1.0000 0.43890  0.19070  0.71560  Biso   1.000  H
  H46      1.0000 0.06110  0.30930  0.21560  Biso   1.000  H
  H47      1.0000 0.93890  0.30930  0.28440  Biso   1.000  H
  H48      1.0000 0.56110  0.19070  0.78440  Biso   1.000  H
  C17      1.0000 0.62630  0.71150  0.19660  Biso   1.000  C
  C18      1.0000 0.87370  0.78850  0.69660  Biso   1.000  C
  C19      1.0000 0.12630  0.78850  0.80340  Biso   1.000  C
  C20      1.0000 0.37370  0.71150  0.30340  Biso   1.000  C
  C21      1.0000 0.37370  0.28850  0.80340  Biso   1.000  C
  C22      1.0000 0.12630  0.21150  0.30340  Biso   1.000  C
  C23      1.0000 0.87370  0.21150  0.19660  Biso   1.000  C
  C24      1.0000 0.62630  0.28850  0.69660  Biso   1.000  C
  H49      1.0000 0.59560  0.66970  0.15570  Biso   1.000  H
  H50      1.0000 0.90440  0.83030  0.65570  Biso   1.000  H
  H51      1.0000 0.09560  0.83030  0.84430  Biso   1.000  H
  H52      1.0000 0.40440  0.66970  0.34430  Biso   1.000  H
  H53      1.0000 0.40440  0.33030  0.84430  Biso   1.000  H
  H54      1.0000 0.09560  0.16970  0.34430  Biso   1.000  H
  H55      1.0000 0.90440  0.16970  0.15570  Biso   1.000  H
  H56      1.0000 0.59560  0.33030  0.65570  Biso   1.000  H
  C25      1.0000 0.69300  0.69220  0.18110  Biso   1.000  C
  C26      1.0000 0.80700  0.80780  0.68110  Biso   1.000  C
  C27      1.0000 0.19300  0.80780  0.81890  Biso   1.000  C
  C28      1.0000 0.30700  0.69220  0.31890  Biso   1.000  C
  C29      1.0000 0.30700  0.30780  0.81890  Biso   1.000  C
  C30      1.0000 0.19300  0.19220  0.31890  Biso   1.000  C
  C31      1.0000 0.80700  0.19220  0.18110  Biso   1.000  C
  C32      1.0000 0.69300  0.30780  0.68110  Biso   1.000  C
  H57      1.0000 0.70790  0.63690  0.12980  Biso   1.000  H
  H58      1.0000 0.79210  0.86310  0.62980  Biso   1.000  H
  H59      1.0000 0.20790  0.86310  0.87020  Biso   1.000  H
  H60      1.0000 0.29210  0.63690  0.37020  Biso   1.000  H
  H61      1.0000 0.29210  0.36310  0.87020  Biso   1.000  H
  H62      1.0000 0.20790  0.13690  0.37020  Biso   1.000  H
  H63      1.0000 0.79210  0.13690  0.12980  Biso   1.000  H
  H64      1.0000 0.70790  0.36310  0.62980  Biso   1.000  H
  C33      1.0000 0.73700  0.75550  0.24200  Biso   1.000  C
  C34      1.0000 0.76300  0.74450  0.74200  Biso   1.000  C
  C35      1.0000 0.23700  0.74450  0.75800  Biso   1.000  C
  C36      1.0000 0.26300  0.75550  0.25800  Biso   1.000  C
  C37      1.0000 0.26300  0.24450  0.75800  Biso   1.000  C
  C38      1.0000 0.23700  0.25550  0.25800  Biso   1.000  C
  C39      1.0000 0.76300  0.25550  0.24200  Biso   1.000  C
  C40      1.0000 0.73700  0.24450  0.74200  Biso   1.000  C
  C41      1.0000 0.81050  0.74740  0.23280  Biso   1.000  C
  C42      1.0000 0.68950  0.75260  0.73280  Biso   1.000  C
  C43      1.0000 0.31050  0.75260  0.76720  Biso   1.000  C
  C44      1.0000 0.18950  0.74740  0.26720  Biso   1.000  C
  C45      1.0000 0.18950  0.25260  0.76720  Biso   1.000  C
  C46      1.0000 0.31050  0.24740  0.26720  Biso   1.000  C
  C47      1.0000 0.68950  0.24740  0.23280  Biso   1.000  C
  C48      1.0000 0.81050  0.25260  0.73280  Biso   1.000  C
  C49      1.0000 0.93710  0.88240  0.36600  Biso   1.000  C
  C50      1.0000 0.56290  0.61760  0.86600  Biso   1.000  C
  C51      1.0000 0.43710  0.61760  0.63400  Biso   1.000  C
  C52      1.0000 0.06290  0.88240  0.13400  Biso   1.000  C
  C53      1.0000 0.06290  0.11760  0.63400  Biso   1.000  C
  C54      1.0000 0.43710  0.38240  0.13400  Biso   1.000  C
  C55      1.0000 0.56290  0.38240  0.36600  Biso   1.000  C
  C56      1.0000 0.93710  0.11760  0.86600  Biso   1.000  C
