data_image0
_cell_length_a       16.031
_cell_length_b       16.249
_cell_length_c       7.829
_cell_angle_alpha    90
_cell_angle_beta     99.777
_cell_angle_gamma    90

_symmetry_space_group_name_H-M    "P 1"
_symmetry_int_tables_number       1

loop_
  _symmetry_equiv_pos_as_xyz
  'x, y, z'

loop_
  _atom_site_label
  _atom_site_occupancy
  _atom_site_fract_x
  _atom_site_fract_y
  _atom_site_fract_z
  _atom_site_thermal_displace_type
  _atom_site_B_iso_or_equiv
  _atom_site_type_symbol
  Cu1      1.0000 0.75000  0.25000  0.00000  Biso   1.000  Cu
  Cu2      1.0000 0.25000  0.75000  0.00000  Biso   1.000  Cu
  Cu3      1.0000 0.25000  0.25000  0.50000  Biso   1.000  Cu
  Cu4      1.0000 0.75000  0.75000  0.50000  Biso   1.000  Cu
  O1       1.0000 0.50000  0.03050  0.75000  Biso   1.000  O
  O2       1.0000 0.00000  0.53050  0.75000  Biso   1.000  O
  O3       1.0000 0.50000  0.96950  0.25000  Biso   1.000  O
  O4       1.0000 0.00000  0.46950  0.25000  Biso   1.000  O
  O5       1.0000 0.63320  0.26587  0.03150  Biso   1.000  O
  O6       1.0000 0.13320  0.76587  0.03150  Biso   1.000  O
  O7       1.0000 0.36680  0.26587  0.46850  Biso   1.000  O
  O8       1.0000 0.86680  0.76587  0.46850  Biso   1.000  O
  O9       1.0000 0.36680  0.73413  0.96850  Biso   1.000  O
  O10      1.0000 0.86680  0.23413  0.96850  Biso   1.000  O
  O11      1.0000 0.63320  0.73413  0.53150  Biso   1.000  O
  O12      1.0000 0.13320  0.23413  0.53150  Biso   1.000  O
  O13      1.0000 0.65762  0.29792  0.31060  Biso   1.000  O
  O14      1.0000 0.15762  0.79792  0.31060  Biso   1.000  O
  O15      1.0000 0.34238  0.29792  0.18940  Biso   1.000  O
  O16      1.0000 0.84238  0.79792  0.18940  Biso   1.000  O
  O17      1.0000 0.34238  0.70208  0.68940  Biso   1.000  O
  O18      1.0000 0.84238  0.20208  0.68940  Biso   1.000  O
  O19      1.0000 0.65762  0.70208  0.81060  Biso   1.000  O
  O20      1.0000 0.15762  0.20208  0.81060  Biso   1.000  O
  N1       1.0000 0.73150  0.12641  0.99980  Biso   1.000  N
  N2       1.0000 0.23150  0.62641  0.99980  Biso   1.000  N
  N3       1.0000 0.26850  0.12641  0.50020  Biso   1.000  N
  N4       1.0000 0.76850  0.62641  0.50020  Biso   1.000  N
  N5       1.0000 0.26850  0.87359  0.00020  Biso   1.000  N
  N6       1.0000 0.76850  0.37359  0.00020  Biso   1.000  N
  N7       1.0000 0.73150  0.87359  0.49980  Biso   1.000  N
  N8       1.0000 0.23150  0.37359  0.49980  Biso   1.000  N
  N9       1.0000 0.54190  0.90300  0.79740  Biso   1.000  N
  N10      1.0000 0.04190  0.40300  0.79740  Biso   1.000  N
  N11      1.0000 0.45810  0.90300  0.70260  Biso   1.000  N
  N12      1.0000 0.95810  0.40300  0.70260  Biso   1.000  N
  N13      1.0000 0.45810  0.09700  0.20260  Biso   1.000  N
  N14      1.0000 0.95810  0.59700  0.20260  Biso   1.000  N
  N15      1.0000 0.54190  0.09700  0.29740  Biso   1.000  N
  N16      1.0000 0.04190  0.59700  0.29740  Biso   1.000  N
  C1       1.0000 0.79170  0.07460  0.07310  Biso   1.000  C
  C2       1.0000 0.29170  0.57460  0.07310  Biso   1.000  C
  C3       1.0000 0.20830  0.07460  0.42690  Biso   1.000  C
  C4       1.0000 0.70830  0.57460  0.42690  Biso   1.000  C
  C5       1.0000 0.20830  0.92540  0.92690  Biso   1.000  C
  C6       1.0000 0.70830  0.42540  0.92690  Biso   1.000  C
  C7       1.0000 0.79170  0.92540  0.57310  Biso   1.000  C
  C8       1.0000 0.29170  0.42540  0.57310  Biso   1.000  C
  H1       1.0000 0.84280  0.09630  0.12920  Biso   1.000  H
  H2       1.0000 0.34280  0.59630  0.12920  Biso   1.000  H
  H3       1.0000 0.15720  0.09630  0.37080  Biso   1.000  H
  H4       1.0000 0.65720  0.59630  0.37080  Biso   1.000  H
  H5       1.0000 0.15720  0.90370  0.87080  Biso   1.000  H
  H6       1.0000 0.65720  0.40370  0.87080  Biso   1.000  H
  H7       1.0000 0.84280  0.90370  0.62920  Biso   1.000  H
  H8       1.0000 0.34280  0.40370  0.62920  Biso   1.000  H
  C9       1.0000 0.78150  0.99020  0.06910  Biso   1.000  C
  C10      1.0000 0.28150  0.49020  0.06910  Biso   1.000  C
  C11      1.0000 0.21850  0.99020  0.43090  Biso   1.000  C
  C12      1.0000 0.71850  0.49020  0.43090  Biso   1.000  C
  C13      1.0000 0.21850  0.00980  0.93090  Biso   1.000  C
  C14      1.0000 0.71850  0.50980  0.93090  Biso   1.000  C
  C15      1.0000 0.78150  0.00980  0.56910  Biso   1.000  C
  C16      1.0000 0.28150  0.50980  0.56910  Biso   1.000  C
  H9       1.0000 0.82490  0.95580  0.12130  Biso   1.000  H
  H10      1.0000 0.32490  0.45580  0.12130  Biso   1.000  H
  H11      1.0000 0.17510  0.95580  0.37870  Biso   1.000  H
  H12      1.0000 0.67510  0.45580  0.37870  Biso   1.000  H
  H13      1.0000 0.17510  0.04420  0.87870  Biso   1.000  H
  H14      1.0000 0.67510  0.54420  0.87870  Biso   1.000  H
  H15      1.0000 0.82490  0.04420  0.62130  Biso   1.000  H
  H16      1.0000 0.32490  0.54420  0.62130  Biso   1.000  H
  C17      1.0000 0.70650  0.95790  0.98710  Biso   1.000  C
  C18      1.0000 0.20650  0.45790  0.98710  Biso   1.000  C
  C19      1.0000 0.29350  0.95790  0.51290  Biso   1.000  C
  C20      1.0000 0.79350  0.45790  0.51290  Biso   1.000  C
  C21      1.0000 0.29350  0.04210  0.01290  Biso   1.000  C
  C22      1.0000 0.79350  0.54210  0.01290  Biso   1.000  C
  C23      1.0000 0.70650  0.04210  0.48710  Biso   1.000  C
  C24      1.0000 0.20650  0.54210  0.48710  Biso   1.000  C
  H17      1.0000 0.69790  0.90130  0.98290  Biso   1.000  H
  H18      1.0000 0.19790  0.40130  0.98290  Biso   1.000  H
  H19      1.0000 0.30210  0.90130  0.51710  Biso   1.000  H
  H20      1.0000 0.80210  0.40130  0.51710  Biso   1.000  H
  H21      1.0000 0.30210  0.09870  0.01710  Biso   1.000  H
  H22      1.0000 0.80210  0.59870  0.01710  Biso   1.000  H
  H23      1.0000 0.69790  0.09870  0.48290  Biso   1.000  H
  H24      1.0000 0.19790  0.59870  0.48290  Biso   1.000  H
  C25      1.0000 0.64320  0.01110  0.91030  Biso   1.000  C
  C26      1.0000 0.14320  0.51110  0.91030  Biso   1.000  C
  C27      1.0000 0.35680  0.01110  0.58970  Biso   1.000  C
  C28      1.0000 0.85680  0.51110  0.58970  Biso   1.000  C
  C29      1.0000 0.35680  0.98890  0.08970  Biso   1.000  C
  C30      1.0000 0.85680  0.48890  0.08970  Biso   1.000  C
  C31      1.0000 0.64320  0.98890  0.41030  Biso   1.000  C
  C32      1.0000 0.14320  0.48890  0.41030  Biso   1.000  C
  C33      1.0000 0.65810  0.09440  0.92010  Biso   1.000  C
  C34      1.0000 0.15810  0.59440  0.92010  Biso   1.000  C
  C35      1.0000 0.34190  0.09440  0.57990  Biso   1.000  C
  C36      1.0000 0.84190  0.59440  0.57990  Biso   1.000  C
  C37      1.0000 0.34190  0.90560  0.07990  Biso   1.000  C
  C38      1.0000 0.84190  0.40560  0.07990  Biso   1.000  C
  C39      1.0000 0.65810  0.90560  0.42010  Biso   1.000  C
  C40      1.0000 0.15810  0.40560  0.42010  Biso   1.000  C
  H25      1.0000 0.61560  0.13000  0.86950  Biso   1.000  H
  H26      1.0000 0.11560  0.63000  0.86950  Biso   1.000  H
  H27      1.0000 0.38440  0.13000  0.63050  Biso   1.000  H
  H28      1.0000 0.88440  0.63000  0.63050  Biso   1.000  H
  H29      1.0000 0.38440  0.87000  0.13050  Biso   1.000  H
  H30      1.0000 0.88440  0.37000  0.13050  Biso   1.000  H
  H31      1.0000 0.61560  0.87000  0.36950  Biso   1.000  H
  H32      1.0000 0.11560  0.37000  0.36950  Biso   1.000  H
  C41      1.0000 0.56340  0.97810  0.82140  Biso   1.000  C
  C42      1.0000 0.06340  0.47810  0.82140  Biso   1.000  C
  C43      1.0000 0.43660  0.97810  0.67860  Biso   1.000  C
  C44      1.0000 0.93660  0.47810  0.67860  Biso   1.000  C
  C45      1.0000 0.43660  0.02190  0.17860  Biso   1.000  C
  C46      1.0000 0.93660  0.52190  0.17860  Biso   1.000  C
  C47      1.0000 0.56340  0.02190  0.32140  Biso   1.000  C
  C48      1.0000 0.06340  0.52190  0.32140  Biso   1.000  C
  C49      1.0000 0.60910  0.28440  0.17390  Biso   1.000  C
  C50      1.0000 0.10910  0.78440  0.17390  Biso   1.000  C
  C51      1.0000 0.39090  0.28440  0.32610  Biso   1.000  C
  C52      1.0000 0.89090  0.78440  0.32610  Biso   1.000  C
  C53      1.0000 0.39090  0.71560  0.82610  Biso   1.000  C
  C54      1.0000 0.89090  0.21560  0.82610  Biso   1.000  C
  C55      1.0000 0.60910  0.71560  0.67390  Biso   1.000  C
  C56      1.0000 0.10910  0.21560  0.67390  Biso   1.000  C
  C57      1.0000 0.51460  0.29120  0.16350  Biso   1.000  C
  C58      1.0000 0.01460  0.79120  0.16350  Biso   1.000  C
  C59      1.0000 0.48540  0.29120  0.33650  Biso   1.000  C
  C60      1.0000 0.98540  0.79120  0.33650  Biso   1.000  C
  C61      1.0000 0.48540  0.70880  0.83650  Biso   1.000  C
  C62      1.0000 0.98540  0.20880  0.83650  Biso   1.000  C
  C63      1.0000 0.51460  0.70880  0.66350  Biso   1.000  C
  C64      1.0000 0.01460  0.20880  0.66350  Biso   1.000  C
  H33      1.0000 0.49550  0.34170  0.10280  Biso   1.000  H
  H34      1.0000 0.99550  0.84170  0.10280  Biso   1.000  H
  H35      1.0000 0.50450  0.34170  0.39720  Biso   1.000  H
  H36      1.0000 0.00450  0.84170  0.39720  Biso   1.000  H
  H37      1.0000 0.50450  0.65830  0.89720  Biso   1.000  H
  H38      1.0000 0.00450  0.15830  0.89720  Biso   1.000  H
  H39      1.0000 0.49550  0.65830  0.60280  Biso   1.000  H
  H40      1.0000 0.99550  0.15830  0.60280  Biso   1.000  H
  H41      1.0000 0.48790  0.24560  0.09520  Biso   1.000  H
  H42      1.0000 0.98790  0.74560  0.09520  Biso   1.000  H
  H43      1.0000 0.51210  0.24560  0.40480  Biso   1.000  H
  H44      1.0000 0.01210  0.74560  0.40480  Biso   1.000  H
  H45      1.0000 0.51210  0.75440  0.90480  Biso   1.000  H
  H46      1.0000 0.01210  0.25440  0.90480  Biso   1.000  H
  H47      1.0000 0.48790  0.75440  0.59520  Biso   1.000  H
  H48      1.0000 0.98790  0.25440  0.59520  Biso   1.000  H
  O21      1.0000 0.82154  0.24943  0.32690  Biso   1.000  O
  O22      1.0000 0.32154  0.74943  0.32690  Biso   1.000  O
  O23      1.0000 0.17846  0.24943  0.17310  Biso   1.000  O
  O24      1.0000 0.67846  0.74943  0.17310  Biso   1.000  O
  O25      1.0000 0.17846  0.75057  0.67310  Biso   1.000  O
  O26      1.0000 0.67846  0.25057  0.67310  Biso   1.000  O
  O27      1.0000 0.82154  0.75057  0.82690  Biso   1.000  O
  O28      1.0000 0.32154  0.25057  0.82690  Biso   1.000  O
  H49      1.0000 0.76770  0.25670  0.33330  Biso   1.000  H
  H50      1.0000 0.26770  0.75670  0.33330  Biso   1.000  H
  H51      1.0000 0.23230  0.25670  0.16670  Biso   1.000  H
  H52      1.0000 0.73230  0.75670  0.16670  Biso   1.000  H
  H53      1.0000 0.23230  0.74330  0.66670  Biso   1.000  H
  H54      1.0000 0.73230  0.24330  0.66670  Biso   1.000  H
  H55      1.0000 0.76770  0.74330  0.83330  Biso   1.000  H
  H56      1.0000 0.26770  0.24330  0.83330  Biso   1.000  H
  H57      1.0000 0.84220  0.23820  0.43720  Biso   1.000  H
  H58      1.0000 0.34220  0.73820  0.43720  Biso   1.000  H
  H59      1.0000 0.15780  0.23820  0.06280  Biso   1.000  H
  H60      1.0000 0.65780  0.73820  0.06280  Biso   1.000  H
  H61      1.0000 0.15780  0.76180  0.56280  Biso   1.000  H
  H62      1.0000 0.65780  0.26180  0.56280  Biso   1.000  H
  H63      1.0000 0.84220  0.76180  0.93720  Biso   1.000  H
  H64      1.0000 0.34220  0.26180  0.93720  Biso   1.000  H
  O29      1.0000 0.50000  0.32430  0.75000  Biso   1.000  O
  O30      1.0000 0.00000  0.82430  0.75000  Biso   1.000  O
  O31      1.0000 0.50000  0.67570  0.25000  Biso   1.000  O
  O32      1.0000 0.00000  0.17570  0.25000  Biso   1.000  O
  O33      1.0000 0.50000  0.48380  0.75000  Biso   1.000  O
  O34      1.0000 0.00000  0.98380  0.75000  Biso   1.000  O
  O35      1.0000 0.50000  0.51620  0.25000  Biso   1.000  O
  O36      1.0000 0.00000  0.01620  0.25000  Biso   1.000  O
  O37      1.0000 0.48290  0.48850  0.87600  Biso   1.000  O
  O38      1.0000 0.98290  0.98850  0.87600  Biso   1.000  O
  O39      1.0000 0.51710  0.48850  0.62400  Biso   1.000  O
  O40      1.0000 0.01710  0.98850  0.62400  Biso   1.000  O
  O41      1.0000 0.51710  0.51150  0.12400  Biso   1.000  O
  O42      1.0000 0.01710  0.01150  0.12400  Biso   1.000  O
  O43      1.0000 0.48290  0.51150  0.37600  Biso   1.000  O
  O44      1.0000 0.98290  0.01150  0.37600  Biso   1.000  O
