data_image0
_cell_length_a       12.576
_cell_length_b       32.497
_cell_length_c       9.226
_cell_angle_alpha    90
_cell_angle_beta     107.843
_cell_angle_gamma    90

_symmetry_space_group_name_H-M    "P 1"
_symmetry_int_tables_number       1

loop_
  _symmetry_equiv_pos_as_xyz
  'x, y, z'

loop_
  _atom_site_label
  _atom_site_occupancy
  _atom_site_fract_x
  _atom_site_fract_y
  _atom_site_fract_z
  _atom_site_thermal_displace_type
  _atom_site_B_iso_or_equiv
  _atom_site_type_symbol
  Cu1      1.0000 0.97456  0.62853  0.51075  Biso   1.000  Cu
  Cu2      1.0000 0.02544  0.12853  0.98925  Biso   1.000  Cu
  Cu3      1.0000 0.02544  0.37147  0.48925  Biso   1.000  Cu
  Cu4      1.0000 0.97456  0.87147  0.01075  Biso   1.000  Cu
  N1       1.0000 0.05400  0.62008  0.73770  Biso   1.000  N
  N2       1.0000 0.94600  0.12008  0.76230  Biso   1.000  N
  N3       1.0000 0.94600  0.37992  0.26230  Biso   1.000  N
  N4       1.0000 0.05400  0.87992  0.23770  Biso   1.000  N
  N5       1.0000 0.16810  0.51867  0.13890  Biso   1.000  N
  N6       1.0000 0.83190  0.01867  0.36110  Biso   1.000  N
  N7       1.0000 0.83190  0.48133  0.86110  Biso   1.000  N
  N8       1.0000 0.16810  0.98133  0.63890  Biso   1.000  N
  N9       1.0000 0.16920  0.47568  0.13440  Biso   1.000  N
  N10      1.0000 0.83080  0.97568  0.36560  Biso   1.000  N
  N11      1.0000 0.83080  0.52432  0.86560  Biso   1.000  N
  N12      1.0000 0.16920  0.02432  0.63440  Biso   1.000  N
  N13      1.0000 0.07310  0.37879  0.71920  Biso   1.000  N
  N14      1.0000 0.92690  0.87879  0.78080  Biso   1.000  N
  N15      1.0000 0.92690  0.62121  0.28080  Biso   1.000  N
  N16      1.0000 0.07310  0.12121  0.21920  Biso   1.000  N
  N17      1.0000 0.41390  0.85223  0.32670  Biso   1.000  N
  N18      1.0000 0.58610  0.35223  0.17330  Biso   1.000  N
  N19      1.0000 0.58610  0.14777  0.67330  Biso   1.000  N
  N20      1.0000 0.41390  0.64777  0.82670  Biso   1.000  N
  N21      1.0000 0.34370  0.97754  0.38970  Biso   1.000  N
  N22      1.0000 0.65630  0.47754  0.11030  Biso   1.000  N
  N23      1.0000 0.65630  0.02246  0.61030  Biso   1.000  N
  N24      1.0000 0.34370  0.52246  0.88970  Biso   1.000  N
  N25      1.0000 0.34410  0.02071  0.38650  Biso   1.000  N
  N26      1.0000 0.65590  0.52071  0.11350  Biso   1.000  N
  N27      1.0000 0.65590  0.97929  0.61350  Biso   1.000  N
  N28      1.0000 0.34410  0.47929  0.88650  Biso   1.000  N
  N29      1.0000 0.41690  0.14459  0.29450  Biso   1.000  N
  N30      1.0000 0.58310  0.64459  0.20550  Biso   1.000  N
  N31      1.0000 0.58310  0.85541  0.70550  Biso   1.000  N
  N32      1.0000 0.41690  0.35541  0.79450  Biso   1.000  N
  O1       1.0000 0.10800  0.49905  0.90140  Biso   1.000  O
  O2       1.0000 0.89200  0.99905  0.59860  Biso   1.000  O
  O3       1.0000 0.89200  0.50095  0.09860  Biso   1.000  O
  O4       1.0000 0.10800  0.00095  0.40140  Biso   1.000  O
  O5       1.0000 0.46630  0.99756  0.27840  Biso   1.000  O
  O6       1.0000 0.53370  0.49756  0.22160  Biso   1.000  O
  O7       1.0000 0.53370  0.00244  0.72160  Biso   1.000  O
  O8       1.0000 0.46630  0.50244  0.77840  Biso   1.000  O
  O9       1.0000 0.89090  0.57872  0.51370  Biso   1.000  O
  O10      1.0000 0.10910  0.07872  0.98630  Biso   1.000  O
  O11      1.0000 0.10910  0.42128  0.48630  Biso   1.000  O
  O12      1.0000 0.89090  0.92128  0.01370  Biso   1.000  O
  O13      1.0000 0.73990  0.60150  0.56620  Biso   1.000  O
  O14      1.0000 0.26010  0.10150  0.93380  Biso   1.000  O
  O15      1.0000 0.26010  0.39850  0.43380  Biso   1.000  O
  O16      1.0000 0.73990  0.89850  0.06620  Biso   1.000  O
  O17      1.0000 0.85040  0.42936  0.50620  Biso   1.000  O
  O18      1.0000 0.14960  0.92936  0.99380  Biso   1.000  O
  O19      1.0000 0.14960  0.57064  0.49380  Biso   1.000  O
  O20      1.0000 0.85040  0.07064  0.00620  Biso   1.000  O
  H1       1.0000 0.83070  0.40630  0.52320  Biso   1.000  H
  H2       1.0000 0.16930  0.90630  0.97680  Biso   1.000  H
  H3       1.0000 0.16930  0.59370  0.47680  Biso   1.000  H
  H4       1.0000 0.83070  0.09370  0.02320  Biso   1.000  H
  O21      1.0000 0.68350  0.44729  0.52140  Biso   1.000  O
  O22      1.0000 0.31650  0.94729  0.97860  Biso   1.000  O
  O23      1.0000 0.31650  0.55271  0.47860  Biso   1.000  O
  O24      1.0000 0.68350  0.05271  0.02140  Biso   1.000  O
  O25      1.0000 0.06560  0.67702  0.50090  Biso   1.000  O
  O26      1.0000 0.93440  0.17702  0.99910  Biso   1.000  O
  O27      1.0000 0.93440  0.32298  0.49910  Biso   1.000  O
  O28      1.0000 0.06560  0.82298  0.00090  Biso   1.000  O
  O29      1.0000 0.20200  0.64403  0.44340  Biso   1.000  O
  O30      1.0000 0.79800  0.14403  0.05660  Biso   1.000  O
  O31      1.0000 0.79800  0.35597  0.55660  Biso   1.000  O
  O32      1.0000 0.20200  0.85597  0.94340  Biso   1.000  O
  O33      1.0000 0.30610  0.78964  0.39540  Biso   1.000  O
  O34      1.0000 0.69390  0.28964  0.10460  Biso   1.000  O
  O35      1.0000 0.69390  0.21036  0.60460  Biso   1.000  O
  O36      1.0000 0.30610  0.71036  0.89540  Biso   1.000  O
  H5       1.0000 0.34400  0.80910  0.38320  Biso   1.000  H
  H6       1.0000 0.65600  0.30910  0.11680  Biso   1.000  H
  H7       1.0000 0.65600  0.19090  0.61680  Biso   1.000  H
  H8       1.0000 0.34400  0.69090  0.88320  Biso   1.000  H
  O37      1.0000 0.45330  0.75385  0.38520  Biso   1.000  O
  O38      1.0000 0.54670  0.25385  0.11480  Biso   1.000  O
  O39      1.0000 0.54670  0.24615  0.61480  Biso   1.000  O
  O40      1.0000 0.45330  0.74615  0.88520  Biso   1.000  O
  C1       1.0000 0.07080  0.58162  0.79330  Biso   1.000  C
  C2       1.0000 0.92920  0.08162  0.70670  Biso   1.000  C
  C3       1.0000 0.92920  0.41838  0.20670  Biso   1.000  C
  C4       1.0000 0.07080  0.91838  0.29330  Biso   1.000  C
  H9       1.0000 0.05070  0.55970  0.72530  Biso   1.000  H
  H10      1.0000 0.94930  0.05970  0.77470  Biso   1.000  H
  H11      1.0000 0.94930  0.44030  0.27470  Biso   1.000  H
  H12      1.0000 0.05070  0.94030  0.22530  Biso   1.000  H
  C5       1.0000 0.11670  0.57295  0.94670  Biso   1.000  C
  C6       1.0000 0.88330  0.07295  0.55330  Biso   1.000  C
  C7       1.0000 0.88330  0.42705  0.05330  Biso   1.000  C
  C8       1.0000 0.11670  0.92705  0.44670  Biso   1.000  C
  C9       1.0000 0.14690  0.60595  0.04730  Biso   1.000  C
  C10      1.0000 0.85310  0.10595  0.45270  Biso   1.000  C
  C11      1.0000 0.85310  0.39405  0.95270  Biso   1.000  C
  C12      1.0000 0.14690  0.89405  0.54730  Biso   1.000  C
  H13      1.0000 0.17800  0.60140  0.15120  Biso   1.000  H
  H14      1.0000 0.82200  0.10140  0.34880  Biso   1.000  H
  H15      1.0000 0.82200  0.39860  0.84880  Biso   1.000  H
  H16      1.0000 0.17800  0.89860  0.65120  Biso   1.000  H
  C13      1.0000 0.13030  0.64535  0.99120  Biso   1.000  C
  C14      1.0000 0.86970  0.14535  0.50880  Biso   1.000  C
  C15      1.0000 0.86970  0.35465  0.00880  Biso   1.000  C
  C16      1.0000 0.13030  0.85465  0.49120  Biso   1.000  C
  H17      1.0000 0.15000  0.66780  0.05660  Biso   1.000  H
  H18      1.0000 0.85000  0.16780  0.44340  Biso   1.000  H
  H19      1.0000 0.85000  0.33220  0.94340  Biso   1.000  H
  H20      1.0000 0.15000  0.83220  0.55660  Biso   1.000  H
  C17      1.0000 0.08430  0.65128  0.83720  Biso   1.000  C
  C18      1.0000 0.91570  0.15128  0.66280  Biso   1.000  C
  C19      1.0000 0.91570  0.34872  0.16280  Biso   1.000  C
  C20      1.0000 0.08430  0.84872  0.33720  Biso   1.000  C
  H21      1.0000 0.07360  0.67810  0.80030  Biso   1.000  H
  H22      1.0000 0.92640  0.17810  0.69970  Biso   1.000  H
  H23      1.0000 0.92640  0.32190  0.19970  Biso   1.000  H
  H24      1.0000 0.07360  0.82190  0.30030  Biso   1.000  H
  C21      1.0000 0.13320  0.53095  0.00160  Biso   1.000  C
  C22      1.0000 0.86680  0.03095  0.49840  Biso   1.000  C
  C23      1.0000 0.86680  0.46905  0.99840  Biso   1.000  C
  C24      1.0000 0.13320  0.96905  0.50160  Biso   1.000  C
  C25      1.0000 0.13450  0.46559  0.99380  Biso   1.000  C
  C26      1.0000 0.86550  0.96559  0.50620  Biso   1.000  C
  C27      1.0000 0.86550  0.53441  0.00620  Biso   1.000  C
  C28      1.0000 0.13450  0.03441  0.49380  Biso   1.000  C
  C29      1.0000 0.08120  0.41670  0.77880  Biso   1.000  C
  C30      1.0000 0.91880  0.91670  0.72120  Biso   1.000  C
  C31      1.0000 0.91880  0.58330  0.22120  Biso   1.000  C
  C32      1.0000 0.08120  0.08330  0.27880  Biso   1.000  C
  H25      1.0000 0.05760  0.43900  0.71350  Biso   1.000  H
  H26      1.0000 0.94240  0.93900  0.78650  Biso   1.000  H
  H27      1.0000 0.94240  0.56100  0.28650  Biso   1.000  H
  H28      1.0000 0.05760  0.06100  0.21350  Biso   1.000  H
  C33      1.0000 0.12300  0.42400  0.93230  Biso   1.000  C
  C34      1.0000 0.87700  0.92400  0.56770  Biso   1.000  C
  C35      1.0000 0.87700  0.57600  0.06770  Biso   1.000  C
  C36      1.0000 0.12300  0.07600  0.43230  Biso   1.000  C
  C37      1.0000 0.15770  0.39091  0.03220  Biso   1.000  C
  C38      1.0000 0.84230  0.89091  0.46780  Biso   1.000  C
  C39      1.0000 0.84230  0.60909  0.96780  Biso   1.000  C
  C40      1.0000 0.15770  0.10909  0.53220  Biso   1.000  C
  H29      1.0000 0.18630  0.39500  0.13670  Biso   1.000  H
  H30      1.0000 0.81370  0.89500  0.36330  Biso   1.000  H
  H31      1.0000 0.81370  0.60500  0.86330  Biso   1.000  H
  H32      1.0000 0.18630  0.10500  0.63670  Biso   1.000  H
  C41      1.0000 0.14810  0.35200  0.97020  Biso   1.000  C
  C42      1.0000 0.85190  0.85200  0.52980  Biso   1.000  C
  C43      1.0000 0.85190  0.64800  0.02980  Biso   1.000  C
  C44      1.0000 0.14810  0.14800  0.47020  Biso   1.000  C
  H33      1.0000 0.16960  0.32910  0.03270  Biso   1.000  H
  H34      1.0000 0.83040  0.82910  0.46730  Biso   1.000  H
  H35      1.0000 0.83040  0.67090  0.96730  Biso   1.000  H
  H36      1.0000 0.16960  0.17090  0.53270  Biso   1.000  H
  C45      1.0000 0.10630  0.34742  0.81450  Biso   1.000  C
  C46      1.0000 0.89370  0.84742  0.68550  Biso   1.000  C
  C47      1.0000 0.89370  0.65258  0.18550  Biso   1.000  C
  C48      1.0000 0.10630  0.15258  0.31450  Biso   1.000  C
  H37      1.0000 0.10100  0.32100  0.77420  Biso   1.000  H
  H38      1.0000 0.89900  0.82100  0.72580  Biso   1.000  H
  H39      1.0000 0.89900  0.67900  0.22580  Biso   1.000  H
  H40      1.0000 0.10100  0.17900  0.27420  Biso   1.000  H
  C49      1.0000 0.39100  0.89128  0.34320  Biso   1.000  C
  C50      1.0000 0.60900  0.39128  0.15680  Biso   1.000  C
  C51      1.0000 0.60900  0.10872  0.65680  Biso   1.000  C
  C52      1.0000 0.39100  0.60872  0.84320  Biso   1.000  C
  H41      1.0000 0.33340  0.89740  0.38330  Biso   1.000  H
  H42      1.0000 0.66660  0.39740  0.11670  Biso   1.000  H
  H43      1.0000 0.66660  0.10260  0.61670  Biso   1.000  H
  H44      1.0000 0.33340  0.60260  0.88330  Biso   1.000  H
  C53      1.0000 0.44820  0.92339  0.30390  Biso   1.000  C
  C54      1.0000 0.55180  0.42339  0.19610  Biso   1.000  C
  C55      1.0000 0.55180  0.07661  0.69610  Biso   1.000  C
  C56      1.0000 0.44820  0.57661  0.80390  Biso   1.000  C
  C57      1.0000 0.53170  0.91408  0.24130  Biso   1.000  C
  C58      1.0000 0.46830  0.41408  0.25870  Biso   1.000  C
  C59      1.0000 0.46830  0.08592  0.75870  Biso   1.000  C
  C60      1.0000 0.53170  0.58592  0.74130  Biso   1.000  C
  H45      1.0000 0.57080  0.93490  0.21080  Biso   1.000  H
  H46      1.0000 0.42920  0.43490  0.28920  Biso   1.000  H
  H47      1.0000 0.42920  0.06510  0.78920  Biso   1.000  H
  H48      1.0000 0.57080  0.56510  0.71080  Biso   1.000  H
  C61      1.0000 0.55620  0.87363  0.22460  Biso   1.000  C
  C62      1.0000 0.44380  0.37363  0.27540  Biso   1.000  C
  C63      1.0000 0.44380  0.12637  0.77540  Biso   1.000  C
  C64      1.0000 0.55620  0.62637  0.72460  Biso   1.000  C
  H49      1.0000 0.61300  0.86670  0.18390  Biso   1.000  H
  H50      1.0000 0.38700  0.36670  0.31610  Biso   1.000  H
  H51      1.0000 0.38700  0.13330  0.81610  Biso   1.000  H
  H52      1.0000 0.61300  0.63330  0.68390  Biso   1.000  H
  C65      1.0000 0.49690  0.84373  0.26810  Biso   1.000  C
  C66      1.0000 0.50310  0.34373  0.23190  Biso   1.000  C
  C67      1.0000 0.50310  0.15627  0.73190  Biso   1.000  C
  C68      1.0000 0.49690  0.65627  0.76810  Biso   1.000  C
  H53      1.0000 0.51440  0.81640  0.25680  Biso   1.000  H
  H54      1.0000 0.48560  0.31640  0.24320  Biso   1.000  H
  H55      1.0000 0.48560  0.18360  0.74320  Biso   1.000  H
  H56      1.0000 0.51440  0.68360  0.75680  Biso   1.000  H
  C69      1.0000 0.41630  0.96560  0.32630  Biso   1.000  C
  C70      1.0000 0.58370  0.46560  0.17370  Biso   1.000  C
  C71      1.0000 0.58370  0.03440  0.67370  Biso   1.000  C
  C72      1.0000 0.41630  0.53440  0.82630  Biso   1.000  C
  C73      1.0000 0.41710  0.03121  0.31990  Biso   1.000  C
  C74      1.0000 0.58290  0.53121  0.18010  Biso   1.000  C
  C75      1.0000 0.58290  0.96879  0.68010  Biso   1.000  C
  C76      1.0000 0.41710  0.46879  0.81990  Biso   1.000  C
  C77      1.0000 0.39420  0.10613  0.32080  Biso   1.000  C
  C78      1.0000 0.60580  0.60613  0.17920  Biso   1.000  C
  C79      1.0000 0.60580  0.89387  0.67920  Biso   1.000  C
  C80      1.0000 0.39420  0.39387  0.82080  Biso   1.000  C
  H57      1.0000 0.33790  0.10160  0.36480  Biso   1.000  H
  H58      1.0000 0.66210  0.60160  0.13520  Biso   1.000  H
  H59      1.0000 0.66210  0.89840  0.63520  Biso   1.000  H
  H60      1.0000 0.33790  0.39840  0.86480  Biso   1.000  H
  C81      1.0000 0.44910  0.07195  0.28690  Biso   1.000  C
  C82      1.0000 0.55090  0.57195  0.21310  Biso   1.000  C
  C83      1.0000 0.55090  0.92805  0.71310  Biso   1.000  C
  C84      1.0000 0.44910  0.42805  0.78690  Biso   1.000  C
  C85      1.0000 0.53260  0.07870  0.22110  Biso   1.000  C
  C86      1.0000 0.46740  0.57870  0.27890  Biso   1.000  C
  C87      1.0000 0.46740  0.92130  0.77890  Biso   1.000  C
  C88      1.0000 0.53260  0.42130  0.72110  Biso   1.000  C
  H61      1.0000 0.57210  0.05680  0.19770  Biso   1.000  H
  H62      1.0000 0.42790  0.55680  0.30230  Biso   1.000  H
  H63      1.0000 0.42790  0.94320  0.80230  Biso   1.000  H
  H64      1.0000 0.57210  0.44320  0.69770  Biso   1.000  H
  C89      1.0000 0.55590  0.11852  0.19090  Biso   1.000  C
  C90      1.0000 0.44410  0.61852  0.30910  Biso   1.000  C
  C91      1.0000 0.44410  0.88148  0.80910  Biso   1.000  C
  C92      1.0000 0.55590  0.38148  0.69090  Biso   1.000  C
  H65      1.0000 0.61100  0.12400  0.14560  Biso   1.000  H
  H66      1.0000 0.38900  0.62400  0.35440  Biso   1.000  H
  H67      1.0000 0.38900  0.87600  0.85440  Biso   1.000  H
  H68      1.0000 0.61100  0.37600  0.64560  Biso   1.000  H
  C93      1.0000 0.49700  0.14994  0.22860  Biso   1.000  C
  C94      1.0000 0.50300  0.64994  0.27140  Biso   1.000  C
  C95      1.0000 0.50300  0.85006  0.77140  Biso   1.000  C
  C96      1.0000 0.49700  0.35006  0.72860  Biso   1.000  C
  H69      1.0000 0.51360  0.17670  0.20700  Biso   1.000  H
  H70      1.0000 0.48640  0.67670  0.29300  Biso   1.000  H
  H71      1.0000 0.48640  0.82330  0.79300  Biso   1.000  H
  H72      1.0000 0.51360  0.32330  0.70700  Biso   1.000  H
  C97      1.0000 0.79770  0.57408  0.53670  Biso   1.000  C
  C98      1.0000 0.20230  0.07408  0.96330  Biso   1.000  C
  C99      1.0000 0.20230  0.42592  0.46330  Biso   1.000  C
  C100     1.0000 0.79770  0.92592  0.03670  Biso   1.000  C
  C101     1.0000 0.75700  0.53082  0.52820  Biso   1.000  C
  C102     1.0000 0.24300  0.03082  0.97180  Biso   1.000  C
  C103     1.0000 0.24300  0.46918  0.47180  Biso   1.000  C
  C104     1.0000 0.75700  0.96918  0.02820  Biso   1.000  C
  H73      1.0000 0.68740  0.52620  0.54100  Biso   1.000  H
  H74      1.0000 0.31260  0.02620  0.95900  Biso   1.000  H
  H75      1.0000 0.31260  0.47380  0.45900  Biso   1.000  H
  H76      1.0000 0.68740  0.97380  0.04100  Biso   1.000  H
  C105     1.0000 0.81260  0.49880  0.50400  Biso   1.000  C
  C106     1.0000 0.18740  0.99880  0.99600  Biso   1.000  C
  C107     1.0000 0.18740  0.50120  0.49600  Biso   1.000  C
  C108     1.0000 0.81260  0.00120  0.00400  Biso   1.000  C
  H77      1.0000 0.87910  0.50300  0.48190  Biso   1.000  H
  H78      1.0000 0.12090  0.00300  0.01810  Biso   1.000  H
  H79      1.0000 0.12090  0.49700  0.51810  Biso   1.000  H
  H80      1.0000 0.87910  0.99700  0.98190  Biso   1.000  H
  C109     1.0000 0.77320  0.45623  0.51050  Biso   1.000  C
  C110     1.0000 0.22680  0.95623  0.98950  Biso   1.000  C
  C111     1.0000 0.22680  0.54377  0.48950  Biso   1.000  C
  C112     1.0000 0.77320  0.04377  0.01050  Biso   1.000  C
  C113     1.0000 0.15510  0.67560  0.46600  Biso   1.000  C
  C114     1.0000 0.84490  0.17560  0.03400  Biso   1.000  C
  C115     1.0000 0.84490  0.32440  0.53400  Biso   1.000  C
  C116     1.0000 0.15510  0.82440  0.96600  Biso   1.000  C
  C117     1.0000 0.20600  0.71583  0.44510  Biso   1.000  C
  C118     1.0000 0.79400  0.21583  0.05490  Biso   1.000  C
  C119     1.0000 0.79400  0.28417  0.55490  Biso   1.000  C
  C120     1.0000 0.20600  0.78417  0.94510  Biso   1.000  C
  H81      1.0000 0.16640  0.73990  0.44580  Biso   1.000  H
  H82      1.0000 0.83360  0.23990  0.05420  Biso   1.000  H
  H83      1.0000 0.83360  0.26010  0.55420  Biso   1.000  H
  H84      1.0000 0.16640  0.76010  0.94580  Biso   1.000  H
  C121     1.0000 0.30390  0.71812  0.42600  Biso   1.000  C
  C122     1.0000 0.69610  0.21812  0.07400  Biso   1.000  C
  C123     1.0000 0.69610  0.28188  0.57400  Biso   1.000  C
  C124     1.0000 0.30390  0.78188  0.92600  Biso   1.000  C
  H85      1.0000 0.34140  0.69340  0.42790  Biso   1.000  H
  H86      1.0000 0.65860  0.19340  0.07210  Biso   1.000  H
  H87      1.0000 0.65860  0.30660  0.57210  Biso   1.000  H
  H88      1.0000 0.34140  0.80660  0.92790  Biso   1.000  H
  C125     1.0000 0.36210  0.75565  0.40180  Biso   1.000  C
  C126     1.0000 0.63790  0.25565  0.09820  Biso   1.000  C
  C127     1.0000 0.63790  0.24435  0.59820  Biso   1.000  C
  C128     1.0000 0.36210  0.74435  0.90180  Biso   1.000  C
  O41      1.0000 0.83930  0.67116  0.52110  Biso   1.000  O
  O42      1.0000 0.16070  0.17116  0.97890  Biso   1.000  O
  O43      1.0000 0.16070  0.32884  0.47890  Biso   1.000  O
  O44      1.0000 0.83930  0.82884  0.02110  Biso   1.000  O
  H89      1.0000 0.79830  0.65250  0.54040  Biso   1.000  H
  H90      1.0000 0.20170  0.15250  0.95960  Biso   1.000  H
  H91      1.0000 0.20170  0.34750  0.45960  Biso   1.000  H
  H92      1.0000 0.79830  0.84750  0.04040  Biso   1.000  H
  H93      1.0000 0.83760  0.69270  0.57250  Biso   1.000  H
  H94      1.0000 0.16240  0.19270  0.92750  Biso   1.000  H
  H95      1.0000 0.16240  0.30730  0.42750  Biso   1.000  H
  H96      1.0000 0.83760  0.80730  0.07250  Biso   1.000  H
  O45      1.0000 0.66400  0.78054  0.61390  Biso   1.000  O
  O46      1.0000 0.33600  0.28054  0.88610  Biso   1.000  O
  O47      1.0000 0.33600  0.21946  0.38610  Biso   1.000  O
  O48      1.0000 0.66400  0.71946  0.11390  Biso   1.000  O
  H97      1.0000 0.64040  0.80370  0.63380  Biso   1.000  H
  H98      1.0000 0.35960  0.30370  0.86620  Biso   1.000  H
  H99      1.0000 0.35960  0.19630  0.36620  Biso   1.000  H
  H100     1.0000 0.64040  0.69630  0.13380  Biso   1.000  H
  H101     1.0000 0.61210  0.76710  0.55100  Biso   1.000  H
  H102     1.0000 0.38790  0.26710  0.94900  Biso   1.000  H
  H103     1.0000 0.38790  0.23290  0.44900  Biso   1.000  H
  H104     1.0000 0.61210  0.73290  0.05100  Biso   1.000  H
  O49      1.0000 0.85410  0.73675  0.72250  Biso   1.000  O
  O50      1.0000 0.14590  0.23675  0.77750  Biso   1.000  O
  O51      1.0000 0.14590  0.26325  0.27750  Biso   1.000  O
  O52      1.0000 0.85410  0.76325  0.22250  Biso   1.000  O
  H105     1.0000 0.78430  0.73990  0.70650  Biso   1.000  H
  H106     1.0000 0.21570  0.23990  0.79350  Biso   1.000  H
  H107     1.0000 0.21570  0.26010  0.29350  Biso   1.000  H
  H108     1.0000 0.78430  0.76010  0.20650  Biso   1.000  H
  H109     1.0000 0.88950  0.73940  0.81660  Biso   1.000  H
  H110     1.0000 0.11050  0.23940  0.68340  Biso   1.000  H
  H111     1.0000 0.11050  0.26060  0.18340  Biso   1.000  H
  H112     1.0000 0.88950  0.76060  0.31660  Biso   1.000  H
  O53      1.0000 0.98150  0.75748  0.52980  Biso   1.000  O
  O54      1.0000 0.01850  0.25748  0.97020  Biso   1.000  O
  O55      1.0000 0.01850  0.24252  0.47020  Biso   1.000  O
  O56      1.0000 0.98150  0.74252  0.02980  Biso   1.000  O
  H113     1.0000 0.99630  0.73350  0.50430  Biso   1.000  H
  H114     1.0000 0.00370  0.23350  0.99570  Biso   1.000  H
  H115     1.0000 0.00370  0.26650  0.49570  Biso   1.000  H
  H116     1.0000 0.99630  0.76650  0.00430  Biso   1.000  H
  H117     1.0000 0.92700  0.75670  0.56610  Biso   1.000  H
  H118     1.0000 0.07300  0.25670  0.93390  Biso   1.000  H
  H119     1.0000 0.07300  0.24330  0.43390  Biso   1.000  H
  H120     1.0000 0.92700  0.74330  0.06610  Biso   1.000  H
