data_image0
_cell_length_a       9.092
_cell_length_b       9.229
_cell_length_c       17.335
_cell_angle_alpha    93.786
_cell_angle_beta     91.981
_cell_angle_gamma    97.735

_symmetry_space_group_name_H-M    "P 1"
_symmetry_int_tables_number       1

loop_
  _symmetry_equiv_pos_as_xyz
  'x, y, z'

loop_
  _atom_site_label
  _atom_site_occupancy
  _atom_site_fract_x
  _atom_site_fract_y
  _atom_site_fract_z
  _atom_site_thermal_displace_type
  _atom_site_B_iso_or_equiv
  _atom_site_type_symbol
  Cu1      1.0000 0.93844  0.02102  0.06656  Biso   1.000  Cu
  Cu2      1.0000 0.06156  0.97898  0.93344  Biso   1.000  Cu
  Cu3      1.0000 0.61412  0.54594  0.45860  Biso   1.000  Cu
  Cu4      1.0000 0.38588  0.45406  0.54140  Biso   1.000  Cu
  N1       1.0000 0.82590  0.06500  0.17380  Biso   1.000  N
  N2       1.0000 0.17410  0.93500  0.82620  Biso   1.000  N
  N3       1.0000 0.79630  0.61190  0.38401  Biso   1.000  N
  N4       1.0000 0.20370  0.38810  0.61599  Biso   1.000  N
  N5       1.0000 0.85850  0.85230  0.22330  Biso   1.000  N
  N6       1.0000 0.14150  0.14770  0.77670  Biso   1.000  N
  H1       1.0000 0.87770  0.82560  0.17670  Biso   1.000  H
  H2       1.0000 0.12230  0.17440  0.82330  Biso   1.000  H
  C1       1.0000 0.81140  0.98290  0.23350  Biso   1.000  C
  C2       1.0000 0.18860  0.01710  0.76650  Biso   1.000  C
  C3       1.0000 0.77740  0.71150  0.33120  Biso   1.000  C
  C4       1.0000 0.22260  0.28850  0.66880  Biso   1.000  C
  H3       1.0000 0.69000  0.75340  0.33050  Biso   1.000  H
  H4       1.0000 0.31000  0.24660  0.66950  Biso   1.000  H
  C5       1.0000 0.72020  0.17580  0.30670  Biso   1.000  C
  C6       1.0000 0.27980  0.82420  0.69330  Biso   1.000  C
  H5       1.0000 0.68500  0.21490  0.35220  Biso   1.000  H
  H6       1.0000 0.31500  0.78510  0.64780  Biso   1.000  H
  C7       1.0000 0.92120  0.55220  0.38530  Biso   1.000  C
  C8       1.0000 0.07880  0.44780  0.61470  Biso   1.000  C
  H7       1.0000 0.93490  0.48420  0.42130  Biso   1.000  H
  H8       1.0000 0.06510  0.51580  0.57870  Biso   1.000  H
  C9       1.0000 0.78470  0.19750  0.18270  Biso   1.000  C
  C10      1.0000 0.21530  0.80250  0.81730  Biso   1.000  C
  H9       1.0000 0.79400  0.25440  0.14030  Biso   1.000  H
  H10      1.0000 0.20600  0.74560  0.85970  Biso   1.000  H
  C11      1.0000 0.75780  0.03840  0.30490  Biso   1.000  C
  C12      1.0000 0.24220  0.96160  0.69510  Biso   1.000  C
  H11      1.0000 0.74940  0.98300  0.34780  Biso   1.000  H
  H12      1.0000 0.25060  0.01700  0.65220  Biso   1.000  H
  C13      1.0000 0.88100  0.75160  0.28010  Biso   1.000  C
  C14      1.0000 0.11900  0.24840  0.71990  Biso   1.000  C
  C15      1.0000 0.00980  0.68920  0.28180  Biso   1.000  C
  C16      1.0000 0.99020  0.31080  0.71820  Biso   1.000  C
  H13      1.0000 0.08250  0.71560  0.24700  Biso   1.000  H
  H14      1.0000 0.91750  0.28440  0.75300  Biso   1.000  H
  C17      1.0000 0.73160  0.25710  0.24590  Biso   1.000  C
  C18      1.0000 0.26840  0.74290  0.75410  Biso   1.000  C
  H15      1.0000 0.70390  0.35060  0.24760  Biso   1.000  H
  H16      1.0000 0.29610  0.64940  0.75240  Biso   1.000  H
  C19      1.0000 0.03270  0.58960  0.33370  Biso   1.000  C
  C20      1.0000 0.96730  0.41040  0.66630  Biso   1.000  C
  H17      1.0000 0.12000  0.54740  0.33480  Biso   1.000  H
  H18      1.0000 0.88000  0.45260  0.66520  Biso   1.000  H
  C21      1.0000 0.77520  0.06720  0.92660  Biso   1.000  C
  C22      1.0000 0.22480  0.93280  0.07340  Biso   1.000  C
  C23      1.0000 0.63790  0.10280  0.88730  Biso   1.000  C
  C24      1.0000 0.36210  0.89720  0.11270  Biso   1.000  C
  C25      1.0000 0.63040  0.09270  0.80470  Biso   1.000  C
  C26      1.0000 0.36960  0.90730  0.19530  Biso   1.000  C
  H19      1.0000 0.52870  0.08690  0.78640  Biso   1.000  H
  H20      1.0000 0.47130  0.91310  0.21360  Biso   1.000  H
  H21      1.0000 0.67000  0.00650  0.78570  Biso   1.000  H
  H22      1.0000 0.33000  0.99350  0.21430  Biso   1.000  H
  H23      1.0000 0.68730  0.17790  0.78640  Biso   1.000  H
  H24      1.0000 0.31270  0.82210  0.21360  Biso   1.000  H
  C27      1.0000 0.52320  0.14320  0.93060  Biso   1.000  C
  C28      1.0000 0.47680  0.85680  0.06940  Biso   1.000  C
  H25      1.0000 0.43720  0.16490  0.90600  Biso   1.000  H
  H26      1.0000 0.56280  0.83510  0.09400  Biso   1.000  H
  H27      1.0000 0.53210  0.14860  0.98430  Biso   1.000  H
  H28      1.0000 0.46790  0.85140  0.01570  Biso   1.000  H
  C29      1.0000 0.72880  0.52460  0.04480  Biso   1.000  C
  C30      1.0000 0.27120  0.47540  0.95520  Biso   1.000  C
  H29      1.0000 0.68910  0.42350  0.03290  Biso   1.000  H
  H30      1.0000 0.31090  0.57650  0.96710  Biso   1.000  H
  H31      1.0000 0.64870  0.58150  0.05180  Biso   1.000  H
  H32      1.0000 0.35130  0.41850  0.94820  Biso   1.000  H
  H33      1.0000 0.79050  0.53370  0.09140  Biso   1.000  H
  H34      1.0000 0.20950  0.46630  0.90860  Biso   1.000  H
  C31      1.0000 0.81430  0.57610  0.98320  Biso   1.000  C
  C32      1.0000 0.18570  0.42390  0.01680  Biso   1.000  C
  C33      1.0000 0.84380  0.48860  0.91920  Biso   1.000  C
  C34      1.0000 0.15620  0.51140  0.08080  Biso   1.000  C
  H35      1.0000 0.80640  0.38930  0.91490  Biso   1.000  H
  H36      1.0000 0.19360  0.61070  0.08510  Biso   1.000  H
  H37      1.0000 0.90090  0.52900  0.88050  Biso   1.000  H
  H38      1.0000 0.09910  0.47100  0.11950  Biso   1.000  H
  C35      1.0000 0.61820  0.27500  0.52864  Biso   1.000  C
  C36      1.0000 0.38180  0.72500  0.47136  Biso   1.000  C
  C37      1.0000 0.68970  0.14200  0.54530  Biso   1.000  C
  C38      1.0000 0.31030  0.85800  0.45470  Biso   1.000  C
  C39      1.0000 0.36230  0.36830  0.38090  Biso   1.000  C
  C40      1.0000 0.63770  0.63170  0.61910  Biso   1.000  C
  O1       1.0000 0.85990  0.81140  0.04886  Biso   1.000  O
  O2       1.0000 0.14010  0.18860  0.95114  Biso   1.000  O
  O3       1.0000 0.68770  0.36460  0.48667  Biso   1.000  O
  O4       1.0000 0.31230  0.63540  0.51333  Biso   1.000  O
  O5       1.0000 0.77710  0.07170  0.99966  Biso   1.000  O
  O6       1.0000 0.22290  0.92830  0.00034  Biso   1.000  O
  O7       1.0000 0.49120  0.43410  0.37308  Biso   1.000  O
  O8       1.0000 0.50880  0.56590  0.62692  Biso   1.000  O
  O9       1.0000 0.88000  0.03700  0.88631  Biso   1.000  O
  O10      1.0000 0.12000  0.96300  0.11369  Biso   1.000  O
  O11      1.0000 0.29830  0.35720  0.44291  Biso   1.000  O
  O12      1.0000 0.70170  0.64280  0.55709  Biso   1.000  O
  O13      1.0000 0.49550  0.28780  0.55688  Biso   1.000  O
  O14      1.0000 0.50450  0.71220  0.44312  Biso   1.000  O
  C41      1.0000 0.27910  0.29650  0.30780  Biso   1.000  C
  C42      1.0000 0.72090  0.70350  0.69220  Biso   1.000  C
  C43      1.0000 0.82550  0.12290  0.51630  Biso   1.000  C
  C44      1.0000 0.17450  0.87710  0.48370  Biso   1.000  C
  H39      1.0000 0.86800  0.03940  0.52610  Biso   1.000  H
  H40      1.0000 0.13200  0.96060  0.47390  Biso   1.000  H
  H41      1.0000 0.87460  0.19350  0.48690  Biso   1.000  H
  H42      1.0000 0.12540  0.80650  0.51310  Biso   1.000  H
  C45      1.0000 0.60630  0.03720  0.59150  Biso   1.000  C
  C46      1.0000 0.39370  0.96280  0.40850  Biso   1.000  C
  H43      1.0000 0.51170  0.00220  0.56580  Biso   1.000  H
  H44      1.0000 0.48830  0.99780  0.43420  Biso   1.000  H
  H45      1.0000 0.59130  0.08370  0.64130  Biso   1.000  H
  H46      1.0000 0.40870  0.91630  0.35870  Biso   1.000  H
  H47      1.0000 0.66050  0.95610  0.59800  Biso   1.000  H
  H48      1.0000 0.33950  0.04390  0.40200  Biso   1.000  H
  C47      1.0000 0.14210  0.20820  0.31620  Biso   1.000  C
  C48      1.0000 0.85790  0.79180  0.68380  Biso   1.000  C
  H49      1.0000 0.11690  0.14490  0.27010  Biso   1.000  H
  H50      1.0000 0.88310  0.85510  0.72990  Biso   1.000  H
  H51      1.0000 0.06610  0.26960  0.32460  Biso   1.000  H
  H52      1.0000 0.93390  0.73040  0.67540  Biso   1.000  H
  H53      1.0000 0.15020  0.15000  0.35970  Biso   1.000  H
  H54      1.0000 0.84980  0.85000  0.64030  Biso   1.000  H
  C49      1.0000 0.33920  0.32480  0.23740  Biso   1.000  C
  C50      1.0000 0.66080  0.67520  0.76260  Biso   1.000  C
  H55      1.0000 0.28880  0.28470  0.19180  Biso   1.000  H
  H56      1.0000 0.71120  0.71530  0.80820  Biso   1.000  H
  H57      1.0000 0.43010  0.38400  0.23570  Biso   1.000  H
  H58      1.0000 0.56990  0.61600  0.76430  Biso   1.000  H
  C51      1.0000 0.88370  0.73390  0.98990  Biso   1.000  C
  C52      1.0000 0.11630  0.26610  0.01010  Biso   1.000  C
  O15      1.0000 0.95970  0.77810  0.93487  Biso   1.000  O
  O16      1.0000 0.04030  0.22190  0.06513  Biso   1.000  O
