data_image0
_cell_length_a       11.7843
_cell_length_b       18.9058
_cell_length_c       24.2187
_cell_angle_alpha    100.396
_cell_angle_beta     101.476
_cell_angle_gamma    97.089

_symmetry_space_group_name_H-M    "P 1"
_symmetry_int_tables_number       1

loop_
  _symmetry_equiv_pos_as_xyz
  'x, y, z'

loop_
  _atom_site_label
  _atom_site_occupancy
  _atom_site_fract_x
  _atom_site_fract_y
  _atom_site_fract_z
  _atom_site_thermal_displace_type
  _atom_site_B_iso_or_equiv
  _atom_site_type_symbol
  Cu1      1.0000 0.64421  0.51331  0.02335  Biso   1.000  Cu
  Cu2      1.0000 0.35579  0.48669  0.97665  Biso   1.000  Cu
  Cl1      1.0000 0.74464  0.47522  0.09693  Biso   1.000  Cl
  Cl2      1.0000 0.25536  0.52478  0.90307  Biso   1.000  Cl
  O1       1.0000 0.39080  0.45753  0.28238  Biso   1.000  O
  O2       1.0000 0.60920  0.54247  0.71762  Biso   1.000  O
  N1       1.0000 0.48920  0.38328  0.03641  Biso   1.000  N
  N2       1.0000 0.51080  0.61672  0.96359  Biso   1.000  N
  C1       1.0000 0.17630  0.43310  0.24540  Biso   1.000  C
  C2       1.0000 0.82370  0.56690  0.75460  Biso   1.000  C
  H1       1.0000 0.16330  0.44160  0.28330  Biso   1.000  H
  H2       1.0000 0.83670  0.55840  0.71670  Biso   1.000  H
  Cu3      1.0000 0.50000  0.00000  0.00000  Biso   1.000  Cu
  Cl3      1.0000 0.77272  0.60760  0.01987  Biso   1.000  Cl
  Cl4      1.0000 0.22728  0.39240  0.98013  Biso   1.000  Cl
  O3       1.0000 0.42650  0.43747  0.17898  Biso   1.000  O
  O4       1.0000 0.57350  0.56253  0.82102  Biso   1.000  O
  N3       1.0000 0.71200  0.95925  0.06195  Biso   1.000  N
  N4       1.0000 0.28800  0.04075  0.93805  Biso   1.000  N
  C3       1.0000 0.28980  0.43890  0.23835  Biso   1.000  C
  C4       1.0000 0.71020  0.56110  0.76165  Biso   1.000  C
  Cu4      1.0000 0.99273  0.54083  0.44487  Biso   1.000  Cu
  Cu5      1.0000 0.00727  0.45917  0.55513  Biso   1.000  Cu
  Cl5      1.0000 0.57116  0.08107  0.08405  Biso   1.000  Cl
  Cl6      1.0000 0.42884  0.91893  0.91595  Biso   1.000  Cl
  O5       1.0000 0.10130  0.15113  0.98780  Biso   1.000  O
  O6       1.0000 0.89870  0.84887  0.01220  Biso   1.000  O
  N5       1.0000 0.12680  0.41490  0.46067  Biso   1.000  N
  N6       1.0000 0.87320  0.58510  0.53933  Biso   1.000  N
  C5       1.0000 0.30870  0.42790  0.18177  Biso   1.000  C
  C6       1.0000 0.69130  0.57210  0.81823  Biso   1.000  C
  Cl7      1.0000 0.08625  0.52055  0.37412  Biso   1.000  Cl
  Cl8      1.0000 0.91375  0.47945  0.62588  Biso   1.000  Cl
  O7       1.0000 0.93650  0.06699  0.01303  Biso   1.000  O
  O8       1.0000 0.06350  0.93301  0.98697  Biso   1.000  O
  N7       1.0000 0.72830  0.39684  0.86234  Biso   1.000  N
  N8       1.0000 0.27170  0.60316  0.13766  Biso   1.000  N
  C7       1.0000 0.21510  0.40850  0.13555  Biso   1.000  C
  C8       1.0000 0.78490  0.59150  0.86445  Biso   1.000  C
  H3       1.0000 0.22870  0.39950  0.09770  Biso   1.000  H
  H4       1.0000 0.77130  0.60050  0.90230  Biso   1.000  H
  Cl9      1.0000 0.95043  0.65086  0.43913  Biso   1.000  Cl
  Cl10     1.0000 0.04957  0.34914  0.56087  Biso   1.000  Cl
  O9       1.0000 0.78570  0.15513  0.28464  Biso   1.000  O
  O10      1.0000 0.21430  0.84487  0.71536  Biso   1.000  O
  N9       1.0000 0.67430  0.39660  0.32817  Biso   1.000  N
  N10      1.0000 0.32570  0.60340  0.67183  Biso   1.000  N
  C9       1.0000 0.09800  0.40156  0.14279  Biso   1.000  C
  C10      1.0000 0.90200  0.59844  0.85721  Biso   1.000  C
  O11      1.0000 0.92110  0.26567  0.35950  Biso   1.000  O
  O12      1.0000 0.07890  0.73433  0.64050  Biso   1.000  O
  N11      1.0000 0.27590  0.89790  0.12280  Biso   1.000  N
  N12      1.0000 0.72410  0.10210  0.87720  Biso   1.000  N
  C11      1.0000 0.00040  0.37683  0.08926  Biso   1.000  C
  C12      1.0000 0.99960  0.62317  0.91074  Biso   1.000  C
  H5       1.0000 0.02340  0.39770  0.05760  Biso   1.000  H
  H6       1.0000 0.97660  0.60230  0.94240  Biso   1.000  H
  H7       1.0000 0.92890  0.39550  0.09680  Biso   1.000  H
  H8       1.0000 0.07110  0.60450  0.90320  Biso   1.000  H
  O13      1.0000 0.49401  0.45009  0.02212  Biso   1.000  O
  O14      1.0000 0.50599  0.54991  0.97788  Biso   1.000  O
  N13      1.0000 0.33380  0.20180  0.21280  Biso   1.000  N
  N14      1.0000 0.66620  0.79820  0.78720  Biso   1.000  N
  C13      1.0000 0.97310  0.29376  0.07049  Biso   1.000  C
  C14      1.0000 0.02690  0.70624  0.92951  Biso   1.000  C
  O15      1.0000 0.62850  0.94368  0.01224  Biso   1.000  O
  O16      1.0000 0.37150  0.05632  0.98776  Biso   1.000  O
  C15      1.0000 0.04500  0.26180  0.03825  Biso   1.000  C
  C16      1.0000 0.95500  0.73820  0.96175  Biso   1.000  C
  H9       1.0000 0.10420  0.29220  0.02790  Biso   1.000  H
  H10      1.0000 0.89580  0.70780  0.97210  Biso   1.000  H
  O17      1.0000 0.04510  0.45557  0.47787  Biso   1.000  O
  O18      1.0000 0.95490  0.54443  0.52213  Biso   1.000  O
  C17      1.0000 0.03320  0.18580  0.02025  Biso   1.000  C
  C18      1.0000 0.96680  0.81420  0.97975  Biso   1.000  C
  O19      1.0000 0.65280  0.42887  0.94159  Biso   1.000  O
  O20      1.0000 0.34720  0.57113  0.05841  Biso   1.000  O
  C19      1.0000 0.94300  0.14170  0.03411  Biso   1.000  C
  C20      1.0000 0.05700  0.85830  0.96589  Biso   1.000  C
  O21      1.0000 0.41970  0.86600  0.08060  Biso   1.000  O
  O22      1.0000 0.58030  0.13400  0.91940  Biso   1.000  O
  C21      1.0000 0.86980  0.17241  0.06583  Biso   1.000  C
  C22      1.0000 0.13020  0.82759  0.93417  Biso   1.000  C
  H11      1.0000 0.80850  0.14180  0.07460  Biso   1.000  H
  H12      1.0000 0.19150  0.85820  0.92540  Biso   1.000  H
  O23      1.0000 0.81060  0.46930  0.40649  Biso   1.000  O
  O24      1.0000 0.18940  0.53070  0.59351  Biso   1.000  O
  C23      1.0000 0.88450  0.24926  0.08567  Biso   1.000  C
  C24      1.0000 0.11550  0.75074  0.91433  Biso   1.000  C
  O25      1.0000 0.35870  0.24840  0.31040  Biso   1.000  O
  O26      1.0000 0.64130  0.75160  0.68960  Biso   1.000  O
  C25      1.0000 0.80170  0.27960  0.12227  Biso   1.000  C
  C26      1.0000 0.19830  0.72040  0.87773  Biso   1.000  C
  H13      1.0000 0.79590  0.33020  0.11780  Biso   1.000  H
  H14      1.0000 0.20410  0.66980  0.88220  Biso   1.000  H
  H15      1.0000 0.72240  0.25010  0.10720  Biso   1.000  H
  H16      1.0000 0.27760  0.74990  0.89280  Biso   1.000  H
  C27      1.0000 0.83960  0.27995  0.18550  Biso   1.000  C
  C28      1.0000 0.16040  0.72005  0.81450  Biso   1.000  C
  C29      1.0000 0.79990  0.21820  0.20444  Biso   1.000  C
  C30      1.0000 0.20010  0.78180  0.79556  Biso   1.000  C
  H17      1.0000 0.75260  0.17750  0.17710  Biso   1.000  H
  H18      1.0000 0.24740  0.82250  0.82290  Biso   1.000  H
  C31      1.0000 0.82790  0.21430  0.26258  Biso   1.000  C
  C32      1.0000 0.17210  0.78570  0.73742  Biso   1.000  C
  C33      1.0000 0.89600  0.27370  0.30237  Biso   1.000  C
  C34      1.0000 0.10400  0.72630  0.69763  Biso   1.000  C
  C35      1.0000 0.93710  0.33450  0.28430  Biso   1.000  C
  C36      1.0000 0.06290  0.66550  0.71570  Biso   1.000  C
  H19      1.0000 0.98550  0.37430  0.31200  Biso   1.000  H
  H20      1.0000 0.01450  0.62570  0.68800  Biso   1.000  H
  C37      1.0000 0.91020  0.33983  0.22651  Biso   1.000  C
  C38      1.0000 0.08980  0.66017  0.77349  Biso   1.000  C
  C39      1.0000 0.95710  0.41105  0.21131  Biso   1.000  C
  C40      1.0000 0.04290  0.58895  0.78869  Biso   1.000  C
  H21      1.0000 0.95890  0.45180  0.24370  Biso   1.000  H
  H22      1.0000 0.04110  0.54820  0.75630  Biso   1.000  H
  H23      1.0000 0.90150  0.41830  0.17710  Biso   1.000  H
  H24      1.0000 0.09850  0.58170  0.82290  Biso   1.000  H
  C41      1.0000 0.07950  0.41520  0.19861  Biso   1.000  C
  C42      1.0000 0.92050  0.58480  0.80139  Biso   1.000  C
  C43      1.0000 0.45280  0.44910  0.12584  Biso   1.000  C
  C44      1.0000 0.54720  0.55090  0.87416  Biso   1.000  C
  H25      1.0000 0.52670  0.48420  0.13400  Biso   1.000  H
  H26      1.0000 0.47330  0.51580  0.86600  Biso   1.000  H
  H27      1.0000 0.38920  0.47040  0.10490  Biso   1.000  H
  H28      1.0000 0.61080  0.52960  0.89510  Biso   1.000  H
  C45      1.0000 0.46530  0.37900  0.08869  Biso   1.000  C
  C46      1.0000 0.53470  0.62100  0.91131  Biso   1.000  C
  C47      1.0000 0.45990  0.31090  0.10358  Biso   1.000  C
  C48      1.0000 0.54010  0.68910  0.89642  Biso   1.000  C
  H29      1.0000 0.44400  0.30560  0.13970  Biso   1.000  H
  H30      1.0000 0.55600  0.69440  0.86030  Biso   1.000  H
  C49      1.0000 0.47750  0.25140  0.06620  Biso   1.000  C
  C50      1.0000 0.52250  0.74860  0.93380  Biso   1.000  C
  H31      1.0000 0.47170  0.20500  0.07630  Biso   1.000  H
  H32      1.0000 0.52830  0.79500  0.92370  Biso   1.000  H
  C51      1.0000 0.50330  0.25870  0.01430  Biso   1.000  C
  C52      1.0000 0.49670  0.74130  0.98570  Biso   1.000  C
  H33      1.0000 0.51760  0.21790  0.98890  Biso   1.000  H
  H34      1.0000 0.48240  0.78210  0.01110  Biso   1.000  H
  C53      1.0000 0.50830  0.32730  0.99934  Biso   1.000  C
  C54      1.0000 0.49170  0.67270  0.00066  Biso   1.000  C
  H35      1.0000 0.52490  0.33360  0.96360  Biso   1.000  H
  H36      1.0000 0.47510  0.66640  0.03640  Biso   1.000  H
  C55      1.0000 0.82780  0.02210  0.00686  Biso   1.000  C
  C56      1.0000 0.17220  0.97790  0.99314  Biso   1.000  C
  H37      1.0000 0.81920  0.97900  0.97530  Biso   1.000  H
  H38      1.0000 0.18080  0.02100  0.02470  Biso   1.000  H
  H39      1.0000 0.76330  0.04940  0.99600  Biso   1.000  H
  H40      1.0000 0.23670  0.95060  0.00400  Biso   1.000  H
  C57      1.0000 0.81740  0.99660  0.06197  Biso   1.000  C
  C58      1.0000 0.18260  0.00340  0.93803  Biso   1.000  C
  C59      1.0000 0.90590  0.00660  0.11060  Biso   1.000  C
  C60      1.0000 0.09410  0.99340  0.88940  Biso   1.000  C
  H41      1.0000 0.98100  0.03280  0.11200  Biso   1.000  H
  H42      1.0000 0.01900  0.96720  0.88800  Biso   1.000  H
  C61      1.0000 0.88570  0.97870  0.15730  Biso   1.000  C
  C62      1.0000 0.11430  0.02130  0.84270  Biso   1.000  C
  H43      1.0000 0.94770  0.98410  0.19030  Biso   1.000  H
  H44      1.0000 0.05230  0.01590  0.80970  Biso   1.000  H
  C63      1.0000 0.77760  0.94360  0.15610  Biso   1.000  C
  C64      1.0000 0.22240  0.05640  0.84390  Biso   1.000  C
  H45      1.0000 0.76340  0.92500  0.18840  Biso   1.000  H
  H46      1.0000 0.23660  0.07500  0.81160  Biso   1.000  H
  C65      1.0000 0.68880  0.93500  0.10830  Biso   1.000  C
  C66      1.0000 0.31120  0.06500  0.89170  Biso   1.000  C
  H47      1.0000 0.61200  0.91230  0.10770  Biso   1.000  H
  H48      1.0000 0.38800  0.08770  0.89230  Biso   1.000  H
  C67      1.0000 0.95450  0.33070  0.40349  Biso   1.000  C
  C68      1.0000 0.04550  0.66930  0.59651  Biso   1.000  C
  H49      1.0000 0.92340  0.32300  0.43740  Biso   1.000  H
  H50      1.0000 0.07660  0.67700  0.56260  Biso   1.000  H
  H51      1.0000 0.92030  0.37100  0.38910  Biso   1.000  H
  H52      1.0000 0.07970  0.62900  0.61090  Biso   1.000  H
  C69      1.0000 0.08610  0.35130  0.42111  Biso   1.000  C
  C70      1.0000 0.91390  0.64870  0.57889  Biso   1.000  C
  C71      1.0000 0.16710  0.31240  0.40260  Biso   1.000  C
  C72      1.0000 0.83290  0.68760  0.59740  Biso   1.000  C
  H53      1.0000 0.14180  0.26780  0.37500  Biso   1.000  H
  H54      1.0000 0.85820  0.73220  0.62500  Biso   1.000  H
  C73      1.0000 0.28600  0.33810  0.42420  Biso   1.000  C
  C74      1.0000 0.71400  0.66190  0.57580  Biso   1.000  C
  H55      1.0000 0.34220  0.31120  0.41120  Biso   1.000  H
  H56      1.0000 0.65780  0.68880  0.58880  Biso   1.000  H
  C75      1.0000 0.32260  0.40210  0.46420  Biso   1.000  C
  C76      1.0000 0.67740  0.59790  0.53580  Biso   1.000  C
  H57      1.0000 0.40390  0.41970  0.47950  Biso   1.000  H
  H58      1.0000 0.59610  0.58030  0.52050  Biso   1.000  H
  C77      1.0000 0.24080  0.44060  0.48190  Biso   1.000  C
  C78      1.0000 0.75920  0.55940  0.51810  Biso   1.000  C
  H59      1.0000 0.26500  0.48540  0.50930  Biso   1.000  H
  H60      1.0000 0.73500  0.51460  0.49070  Biso   1.000  H
  C79      1.0000 0.37530  0.45220  0.33840  Biso   1.000  C
  C80      1.0000 0.62470  0.54780  0.66160  Biso   1.000  C
  H61      1.0000 0.33200  0.49020  0.35230  Biso   1.000  H
  H62      1.0000 0.66800  0.50980  0.64770  Biso   1.000  H
  H63      1.0000 0.45230  0.45860  0.36490  Biso   1.000  H
  H64      1.0000 0.54770  0.54140  0.63510  Biso   1.000  H
  H65      1.0000 0.33100  0.40420  0.33670  Biso   1.000  H
  H66      1.0000 0.66900  0.59580  0.66330  Biso   1.000  H
  C81      1.0000 0.18750  0.19960  0.97010  Biso   1.000  C
  C82      1.0000 0.81250  0.80040  0.02990  Biso   1.000  C
  H67      1.0000 0.14740  0.23250  0.94900  Biso   1.000  H
  H68      1.0000 0.85260  0.76750  0.05100  Biso   1.000  H
  H69      1.0000 0.22820  0.17050  0.94510  Biso   1.000  H
  H70      1.0000 0.77180  0.82950  0.05490  Biso   1.000  H
  H71      1.0000 0.24470  0.22840  0.00430  Biso   1.000  H
  H72      1.0000 0.75530  0.77160  0.99570  Biso   1.000  H
  C83      1.0000 0.71530  0.09420  0.24560  Biso   1.000  C
  C84      1.0000 0.28470  0.90580  0.75440  Biso   1.000  C
  H73      1.0000 0.64250  0.10810  0.22670  Biso   1.000  H
  H74      1.0000 0.35750  0.89190  0.77330  Biso   1.000  H
  H75      1.0000 0.69660  0.05590  0.26640  Biso   1.000  H
  H76      1.0000 0.30340  0.94410  0.73360  Biso   1.000  H
  H77      1.0000 0.75770  0.07590  0.21650  Biso   1.000  H
  H78      1.0000 0.24230  0.92410  0.78350  Biso   1.000  H
  C85      1.0000 0.73810  0.42168  0.91872  Biso   1.000  C
  C86      1.0000 0.26190  0.57832  0.08128  Biso   1.000  C
  C87      1.0000 0.86370  0.43940  0.94903  Biso   1.000  C
  C88      1.0000 0.13630  0.56060  0.05097  Biso   1.000  C
  H79      1.0000 0.87930  0.41210  0.98030  Biso   1.000  H
  H80      1.0000 0.12070  0.58790  0.01970  Biso   1.000  H
  H81      1.0000 0.88600  0.49220  0.96600  Biso   1.000  H
  H82      1.0000 0.11400  0.50780  0.03400  Biso   1.000  H
  C89      1.0000 0.93340  0.41670  0.90330  Biso   1.000  C
  C90      1.0000 0.06660  0.58330  0.09670  Biso   1.000  C
  H83      1.0000 0.96900  0.37330  0.90970  Biso   1.000  H
  H84      1.0000 0.03100  0.62670  0.09030  Biso   1.000  H
  H85      1.0000 0.99630  0.45690  0.90390  Biso   1.000  H
  H86      1.0000 0.00370  0.54310  0.09610  Biso   1.000  H
  C91      1.0000 0.83760  0.39870  0.84380  Biso   1.000  C
  C92      1.0000 0.16240  0.60130  0.15620  Biso   1.000  C
  H87      1.0000 0.84770  0.43710  0.82150  Biso   1.000  H
  H88      1.0000 0.15230  0.56290  0.17850  Biso   1.000  H
  H89      1.0000 0.84180  0.35110  0.82000  Biso   1.000  H
  H90      1.0000 0.15820  0.64890  0.18000  Biso   1.000  H
  C93      1.0000 0.61550  0.37740  0.82079  Biso   1.000  C
  C94      1.0000 0.38450  0.62260  0.17921  Biso   1.000  C
  H91      1.0000 0.55460  0.36010  0.83970  Biso   1.000  H
  H92      1.0000 0.44540  0.63990  0.16030  Biso   1.000  H
  H93      1.0000 0.62040  0.33880  0.78880  Biso   1.000  H
  H94      1.0000 0.37960  0.66120  0.21120  Biso   1.000  H
  H95      1.0000 0.59590  0.42030  0.80590  Biso   1.000  H
  H96      1.0000 0.40410  0.57970  0.19410  Biso   1.000  H
  C95      1.0000 0.24150  0.17810  0.16370  Biso   1.000  C
  C96      1.0000 0.75850  0.82190  0.83630  Biso   1.000  C
  H97      1.0000 0.21910  0.12440  0.15460  Biso   1.000  H
  H98      1.0000 0.78090  0.87560  0.84540  Biso   1.000  H
  H99      1.0000 0.26250  0.19410  0.12970  Biso   1.000  H
  H100     1.0000 0.73750  0.80590  0.87030  Biso   1.000  H
  C97      1.0000 0.14480  0.21480  0.18180  Biso   1.000  C
  C98      1.0000 0.85520  0.78520  0.81820  Biso   1.000  C
  H101     1.0000 0.14130  0.25990  0.16650  Biso   1.000  H
  H102     1.0000 0.85870  0.74010  0.83350  Biso   1.000  H
  H103     1.0000 0.06860  0.18210  0.16570  Biso   1.000  H
  H104     1.0000 0.93140  0.81790  0.83430  Biso   1.000  H
  C99      1.0000 0.16550  0.23260  0.24360  Biso   1.000  C
  C100     1.0000 0.83450  0.76740  0.75640  Biso   1.000  C
  H105     1.0000 0.11680  0.19700  0.25830  Biso   1.000  H
  H106     1.0000 0.88320  0.80300  0.74170  Biso   1.000  H
  H107     1.0000 0.15070  0.28230  0.25770  Biso   1.000  H
  H108     1.0000 0.84930  0.71770  0.74230  Biso   1.000  H
  C101     1.0000 0.29710  0.22730  0.26030  Biso   1.000  C
  C102     1.0000 0.70290  0.77270  0.73970  Biso   1.000  C
  C103     1.0000 0.44900  0.18010  0.21370  Biso   1.000  C
  C104     1.0000 0.55100  0.81990  0.78630  Biso   1.000  C
  H109     1.0000 0.46700  0.15230  0.24390  Biso   1.000  H
  H110     1.0000 0.53300  0.84770  0.75610  Biso   1.000  H
  H111     1.0000 0.50890  0.22370  0.22160  Biso   1.000  H
  H112     1.0000 0.49110  0.77630  0.77840  Biso   1.000  H
  H113     1.0000 0.44810  0.14970  0.17630  Biso   1.000  H
  H114     1.0000 0.55190  0.85030  0.82370  Biso   1.000  H
  C105     1.0000 0.75610  0.45710  0.35490  Biso   1.000  C
  C106     1.0000 0.24390  0.54290  0.64510  Biso   1.000  C
  C107     1.0000 0.77320  0.50390  0.31370  Biso   1.000  C
  C108     1.0000 0.22680  0.49610  0.68630  Biso   1.000  C
  H115     1.0000 0.85220  0.50460  0.30540  Biso   1.000  H
  H116     1.0000 0.14780  0.49540  0.69460  Biso   1.000  H
  H117     1.0000 0.76310  0.55450  0.32870  Biso   1.000  H
  H118     1.0000 0.23690  0.44550  0.67130  Biso   1.000  H
  C109     1.0000 0.67640  0.46790  0.25940  Biso   1.000  C
  C110     1.0000 0.32360  0.53210  0.74060  Biso   1.000  C
  H119     1.0000 0.61000  0.49530  0.25600  Biso   1.000  H
  H120     1.0000 0.39000  0.50470  0.74400  Biso   1.000  H
  H121     1.0000 0.70770  0.46560  0.22420  Biso   1.000  H
  H122     1.0000 0.29230  0.53440  0.77580  Biso   1.000  H
  C111     1.0000 0.63740  0.39100  0.26810  Biso   1.000  C
  C112     1.0000 0.36260  0.60900  0.73190  Biso   1.000  C
  H123     1.0000 0.55120  0.37660  0.25520  Biso   1.000  H
  H124     1.0000 0.44880  0.62340  0.74480  Biso   1.000  H
  H125     1.0000 0.67540  0.35480  0.24660  Biso   1.000  H
  H126     1.0000 0.32460  0.64520  0.75340  Biso   1.000  H
  C113     1.0000 0.64410  0.33540  0.35670  Biso   1.000  C
  C114     1.0000 0.35590  0.66460  0.64330  Biso   1.000  C
  H127     1.0000 0.69350  0.29830  0.34920  Biso   1.000  H
  H128     1.0000 0.30650  0.70170  0.65080  Biso   1.000  H
  H129     1.0000 0.56130  0.31370  0.34120  Biso   1.000  H
  H130     1.0000 0.43870  0.68630  0.65880  Biso   1.000  H
  H131     1.0000 0.65760  0.35400  0.39830  Biso   1.000  H
  H132     1.0000 0.34240  0.64600  0.60170  Biso   1.000  H
  C115     1.0000 0.16140  0.87290  0.12990  Biso   1.000  C
  C116     1.0000 0.83860  0.12710  0.87010  Biso   1.000  C
  H133     1.0000 0.09960  0.88870  0.10290  Biso   1.000  H
  H134     1.0000 0.90040  0.11130  0.89710  Biso   1.000  H
  H135     1.0000 0.15380  0.88970  0.16990  Biso   1.000  H
  H136     1.0000 0.84620  0.11030  0.83010  Biso   1.000  H
  C117     1.0000 0.15750  0.79040  0.11510  Biso   1.000  C
  C118     1.0000 0.84250  0.20960  0.88490  Biso   1.000  C
  H137     1.0000 0.17860  0.77160  0.15070  Biso   1.000  H
  H138     1.0000 0.82140  0.22840  0.84930  Biso   1.000  H
  H139     1.0000 0.07770  0.76570  0.09380  Biso   1.000  H
  H140     1.0000 0.92230  0.23430  0.90620  Biso   1.000  H
  C119     1.0000 0.24260  0.77740  0.07930  Biso   1.000  C
  C120     1.0000 0.75740  0.22260  0.92070  Biso   1.000  C
  H141     1.0000 0.20370  0.76500  0.03780  Biso   1.000  H
  H142     1.0000 0.79630  0.23500  0.96220  Biso   1.000  H
  H143     1.0000 0.28510  0.73770  0.08900  Biso   1.000  H
  H144     1.0000 0.71490  0.26230  0.91100  Biso   1.000  H
  C121     1.0000 0.32650  0.85180  0.09510  Biso   1.000  C
  C122     1.0000 0.67350  0.14820  0.90490  Biso   1.000  C
  C123     1.0000 0.32090  0.97640  0.14040  Biso   1.000  C
  C124     1.0000 0.67910  0.02360  0.85960  Biso   1.000  C
  H145     1.0000 0.34460  0.99020  0.18250  Biso   1.000  H
  H146     1.0000 0.65540  0.00980  0.81750  Biso   1.000  H
  H147     1.0000 0.25940  0.00350  0.12640  Biso   1.000  H
  H148     1.0000 0.74060  0.99650  0.87360  Biso   1.000  H
  H149     1.0000 0.38890  0.98780  0.12400  Biso   1.000  H
  H150     1.0000 0.61110  0.01220  0.87600  Biso   1.000  H
