data_image0
_cell_length_a       16.2126
_cell_length_b       19.3231
_cell_length_c       19.824
_cell_angle_alpha    90
_cell_angle_beta     100.091
_cell_angle_gamma    90

_symmetry_space_group_name_H-M    "P 1"
_symmetry_int_tables_number       1

loop_
  _symmetry_equiv_pos_as_xyz
  'x, y, z'

loop_
  _atom_site_label
  _atom_site_occupancy
  _atom_site_fract_x
  _atom_site_fract_y
  _atom_site_fract_z
  _atom_site_thermal_displace_type
  _atom_site_B_iso_or_equiv
  _atom_site_type_symbol
  Cu1      1.0000 0.00000  0.50000  0.50000  Biso   1.000  Cu
  Cu2      1.0000 0.50000  0.00000  0.00000  Biso   1.000  Cu
  Cl1      1.0000 0.10861  0.22347  0.12991  Biso   1.000  Cl
  Cl2      1.0000 0.39139  0.72347  0.37009  Biso   1.000  Cl
  Cl3      1.0000 0.89139  0.77653  0.87009  Biso   1.000  Cl
  Cl4      1.0000 0.60861  0.27653  0.62991  Biso   1.000  Cl
  O1       1.0000 0.61299  0.62319  0.88558  Biso   1.000  O
  O2       1.0000 0.88701  0.12319  0.61442  Biso   1.000  O
  O3       1.0000 0.38701  0.37681  0.11442  Biso   1.000  O
  O4       1.0000 0.11299  0.87681  0.38558  Biso   1.000  O
  N1       1.0000 0.32844  0.75251  0.03186  Biso   1.000  N
  N2       1.0000 0.17156  0.25251  0.46814  Biso   1.000  N
  N3       1.0000 0.67156  0.24749  0.96814  Biso   1.000  N
  N4       1.0000 0.82844  0.74749  0.53186  Biso   1.000  N
  C1       1.0000 0.88413  0.53379  0.00492  Biso   1.000  C
  C2       1.0000 0.61587  0.03379  0.49508  Biso   1.000  C
  C3       1.0000 0.11587  0.46621  0.99508  Biso   1.000  C
  C4       1.0000 0.38413  0.96621  0.50492  Biso   1.000  C
  H1       1.0000 0.91560  0.53710  0.05240  Biso   1.000  H
  H2       1.0000 0.58440  0.03710  0.44760  Biso   1.000  H
  H3       1.0000 0.08440  0.46290  0.94760  Biso   1.000  H
  H4       1.0000 0.41560  0.96290  0.55240  Biso   1.000  H
  H5       1.0000 0.90560  0.57030  0.97750  Biso   1.000  H
  H6       1.0000 0.59440  0.07030  0.52250  Biso   1.000  H
  H7       1.0000 0.09440  0.42970  0.02250  Biso   1.000  H
  H8       1.0000 0.40560  0.92970  0.47750  Biso   1.000  H
  O5       1.0000 0.53836  0.59426  0.99612  Biso   1.000  O
  O6       1.0000 0.96164  0.09426  0.50388  Biso   1.000  O
  O7       1.0000 0.46164  0.40574  0.00388  Biso   1.000  O
  O8       1.0000 0.03836  0.90574  0.49612  Biso   1.000  O
  N5       1.0000 0.67380  0.01603  0.06655  Biso   1.000  N
  N6       1.0000 0.82620  0.51603  0.43345  Biso   1.000  N
  N7       1.0000 0.32620  0.98397  0.93345  Biso   1.000  N
  N8       1.0000 0.17380  0.48397  0.56655  Biso   1.000  N
  C5       1.0000 0.79226  0.54754  0.00575  Biso   1.000  C
  C6       1.0000 0.70774  0.04754  0.49425  Biso   1.000  C
  C7       1.0000 0.20774  0.45246  0.99425  Biso   1.000  C
  C8       1.0000 0.29226  0.95246  0.50575  Biso   1.000  C
  O9       1.0000 0.56674  0.70896  0.99619  Biso   1.000  O
  O10      1.0000 0.93326  0.20896  0.50381  Biso   1.000  O
  O11      1.0000 0.43326  0.29104  0.00381  Biso   1.000  O
  O12      1.0000 0.06674  0.79104  0.49619  Biso   1.000  O
  N9       1.0000 0.95838  0.37505  0.58234  Biso   1.000  N
  N10      1.0000 0.54162  0.87505  0.91766  Biso   1.000  N
  N11      1.0000 0.04162  0.62495  0.41766  Biso   1.000  N
  N12      1.0000 0.45838  0.12495  0.08234  Biso   1.000  N
  C9       1.0000 0.74571  0.57728  0.94615  Biso   1.000  C
  C10      1.0000 0.75429  0.07728  0.55385  Biso   1.000  C
  C11      1.0000 0.25429  0.42272  0.05385  Biso   1.000  C
  C12      1.0000 0.24571  0.92272  0.44615  Biso   1.000  C
  H9       1.0000 0.77260  0.58650  0.90820  Biso   1.000  H
  H10      1.0000 0.72740  0.08650  0.59180  Biso   1.000  H
  H11      1.0000 0.22740  0.41350  0.09180  Biso   1.000  H
  H12      1.0000 0.27260  0.91350  0.40820  Biso   1.000  H
  O13      1.0000 0.30475  0.81666  0.03800  Biso   1.000  O
  O14      1.0000 0.19525  0.31666  0.46200  Biso   1.000  O
  O15      1.0000 0.69525  0.18334  0.96200  Biso   1.000  O
  O16      1.0000 0.80475  0.68334  0.53800  Biso   1.000  O
  N13      1.0000 0.00031  0.61775  0.66992  Biso   1.000  N
  N14      1.0000 0.49969  0.11775  0.83008  Biso   1.000  N
  N15      1.0000 0.99969  0.38225  0.33008  Biso   1.000  N
  N16      1.0000 0.50031  0.88225  0.16992  Biso   1.000  N
  C13      1.0000 0.66194  0.59333  0.94143  Biso   1.000  C
  C14      1.0000 0.83806  0.09333  0.55857  Biso   1.000  C
  C15      1.0000 0.33806  0.40667  0.05857  Biso   1.000  C
  C16      1.0000 0.16194  0.90667  0.44143  Biso   1.000  C
  O17      1.0000 0.63761  0.29078  0.16424  Biso   1.000  O
  O18      1.0000 0.86239  0.79078  0.33576  Biso   1.000  O
  O19      1.0000 0.36239  0.70922  0.83576  Biso   1.000  O
  O20      1.0000 0.13761  0.20922  0.66424  Biso   1.000  O
  N17      1.0000 0.27764  0.76196  0.63059  Biso   1.000  N
  N18      1.0000 0.22236  0.26196  0.86941  Biso   1.000  N
  N19      1.0000 0.72236  0.23804  0.36941  Biso   1.000  N
  N20      1.0000 0.77764  0.73804  0.13059  Biso   1.000  N
  C17      1.0000 0.62400  0.57956  0.99778  Biso   1.000  C
  C18      1.0000 0.87600  0.07956  0.50222  Biso   1.000  C
  C19      1.0000 0.37600  0.42044  0.00222  Biso   1.000  C
  C20      1.0000 0.12400  0.92044  0.49778  Biso   1.000  C
  O21      1.0000 0.74857  0.21087  0.11781  Biso   1.000  O
  O22      1.0000 0.75143  0.71087  0.38219  Biso   1.000  O
  O23      1.0000 0.25143  0.78913  0.88219  Biso   1.000  O
  O24      1.0000 0.24857  0.28913  0.61781  Biso   1.000  O
  N21      1.0000 0.94786  0.93678  0.71010  Biso   1.000  N
  N22      1.0000 0.55214  0.43678  0.78990  Biso   1.000  N
  N23      1.0000 0.05214  0.06322  0.28990  Biso   1.000  N
  N24      1.0000 0.44786  0.56322  0.21010  Biso   1.000  N
  C21      1.0000 0.66836  0.55062  0.05674  Biso   1.000  C
  C22      1.0000 0.83164  0.05062  0.44326  Biso   1.000  C
  C23      1.0000 0.33164  0.44938  0.94326  Biso   1.000  C
  C24      1.0000 0.16836  0.94938  0.55674  Biso   1.000  C
  H13      1.0000 0.64090  0.54200  0.09450  Biso   1.000  H
  H14      1.0000 0.85910  0.04200  0.40550  Biso   1.000  H
  H15      1.0000 0.35910  0.45800  0.90550  Biso   1.000  H
  H16      1.0000 0.14090  0.95800  0.59450  Biso   1.000  H
  O25      1.0000 0.82221  0.18045  0.21986  Biso   1.000  O
  O26      1.0000 0.67779  0.68045  0.28014  Biso   1.000  O
  O27      1.0000 0.17779  0.81955  0.78014  Biso   1.000  O
  O28      1.0000 0.32221  0.31955  0.71986  Biso   1.000  O
  N25      1.0000 0.07854  0.98958  0.93895  Biso   1.000  N
  N26      1.0000 0.42146  0.48958  0.56105  Biso   1.000  N
  N27      1.0000 0.92146  0.01042  0.06105  Biso   1.000  N
  N28      1.0000 0.57854  0.51042  0.43895  Biso   1.000  N
  C25      1.0000 0.75302  0.53378  0.06196  Biso   1.000  C
  C26      1.0000 0.74698  0.03378  0.43804  Biso   1.000  C
  C27      1.0000 0.24698  0.46622  0.93804  Biso   1.000  C
  C28      1.0000 0.25302  0.96622  0.56196  Biso   1.000  C
  O29      1.0000 0.62606  0.00416  0.00543  Biso   1.000  O
  O30      1.0000 0.87394  0.50416  0.49457  Biso   1.000  O
  O31      1.0000 0.37394  0.99584  0.99457  Biso   1.000  O
  O32      1.0000 0.12606  0.49584  0.50543  Biso   1.000  O
  C29      1.0000 0.79803  0.50215  0.12912  Biso   1.000  C
  C30      1.0000 0.70197  0.00215  0.37088  Biso   1.000  C
  C31      1.0000 0.20197  0.49785  0.87088  Biso   1.000  C
  C32      1.0000 0.29803  0.99785  0.62912  Biso   1.000  C
  H17      1.0000 0.85790  0.51540  0.13610  Biso   1.000  H
  H18      1.0000 0.64210  0.01540  0.36390  Biso   1.000  H
  H19      1.0000 0.14210  0.48460  0.86390  Biso   1.000  H
  H20      1.0000 0.35790  0.98460  0.63610  Biso   1.000  H
  H21      1.0000 0.77380  0.52160  0.16750  Biso   1.000  H
  H22      1.0000 0.72620  0.02160  0.33250  Biso   1.000  H
  H23      1.0000 0.22620  0.47840  0.83250  Biso   1.000  H
  H24      1.0000 0.27380  0.97840  0.66750  Biso   1.000  H
  O33      1.0000 0.95129  0.27838  0.87979  Biso   1.000  O
  O34      1.0000 0.54871  0.77838  0.62021  Biso   1.000  O
  O35      1.0000 0.04871  0.72162  0.12021  Biso   1.000  O
  O36      1.0000 0.45129  0.22162  0.37979  Biso   1.000  O
  C33      1.0000 0.79150  0.42393  0.13063  Biso   1.000  C
  C34      1.0000 0.70850  0.92393  0.36937  Biso   1.000  C
  C35      1.0000 0.20850  0.57607  0.86937  Biso   1.000  C
  C36      1.0000 0.29150  0.07607  0.63063  Biso   1.000  C
  O37      1.0000 0.88664  0.38574  0.80281  Biso   1.000  O
  O38      1.0000 0.61336  0.88574  0.69719  Biso   1.000  O
  O39      1.0000 0.11336  0.61426  0.19719  Biso   1.000  O
  O40      1.0000 0.38664  0.11426  0.30281  Biso   1.000  O
  C37      1.0000 0.71883  0.39516  0.14884  Biso   1.000  C
  C38      1.0000 0.78117  0.89516  0.35116  Biso   1.000  C
  C39      1.0000 0.28117  0.60484  0.85116  Biso   1.000  C
  C40      1.0000 0.21883  0.10484  0.64884  Biso   1.000  C
  H25      1.0000 0.67770  0.42490  0.16190  Biso   1.000  H
  H26      1.0000 0.82230  0.92490  0.33810  Biso   1.000  H
  H27      1.0000 0.32230  0.57510  0.83810  Biso   1.000  H
  H28      1.0000 0.17770  0.07510  0.66190  Biso   1.000  H
  O41      1.0000 0.01754  0.41797  0.79185  Biso   1.000  O
  O42      1.0000 0.48246  0.91797  0.70815  Biso   1.000  O
  O43      1.0000 0.98246  0.58203  0.20815  Biso   1.000  O
  O44      1.0000 0.51754  0.08203  0.29185  Biso   1.000  O
  C41      1.0000 0.70614  0.32401  0.14808  Biso   1.000  C
  C42      1.0000 0.79386  0.82401  0.35192  Biso   1.000  C
  C43      1.0000 0.29386  0.67599  0.85192  Biso   1.000  C
  C44      1.0000 0.20614  0.17599  0.64808  Biso   1.000  C
  O45      1.0000 0.01258  0.38765  0.54132  Biso   1.000  O
  O46      1.0000 0.48742  0.88765  0.95868  Biso   1.000  O
  O47      1.0000 0.98742  0.61235  0.45868  Biso   1.000  O
  O48      1.0000 0.51258  0.11235  0.04132  Biso   1.000  O
  C45      1.0000 0.76708  0.28172  0.12849  Biso   1.000  C
  C46      1.0000 0.73292  0.78172  0.37151  Biso   1.000  C
  C47      1.0000 0.23292  0.71828  0.87151  Biso   1.000  C
  C48      1.0000 0.26708  0.21828  0.62849  Biso   1.000  C
  O49      1.0000 0.01182  0.53173  0.59480  Biso   1.000  O
  O50      1.0000 0.48818  0.03173  0.90520  Biso   1.000  O
  O51      1.0000 0.98818  0.46827  0.40520  Biso   1.000  O
  O52      1.0000 0.51182  0.96827  0.09480  Biso   1.000  O
  C49      1.0000 0.84017  0.30855  0.11327  Biso   1.000  C
  C50      1.0000 0.65983  0.80855  0.38673  Biso   1.000  C
  C51      1.0000 0.15983  0.69145  0.88673  Biso   1.000  C
  C52      1.0000 0.34017  0.19145  0.61327  Biso   1.000  C
  H29      1.0000 0.88190  0.27820  0.10220  Biso   1.000  H
  H30      1.0000 0.61810  0.77820  0.39780  Biso   1.000  H
  H31      1.0000 0.11810  0.72180  0.89780  Biso   1.000  H
  H32      1.0000 0.38190  0.22180  0.60220  Biso   1.000  H
  O53      1.0000 0.16460  0.69043  0.61800  Biso   1.000  O
  O54      1.0000 0.33540  0.19043  0.88200  Biso   1.000  O
  O55      1.0000 0.83540  0.30957  0.38200  Biso   1.000  O
  O56      1.0000 0.66460  0.80957  0.11800  Biso   1.000  O
  C53      1.0000 0.85384  0.38002  0.11388  Biso   1.000  C
  C54      1.0000 0.64616  0.88002  0.38612  Biso   1.000  C
  C55      1.0000 0.14616  0.61998  0.88612  Biso   1.000  C
  C56      1.0000 0.35384  0.11998  0.61388  Biso   1.000  C
  O57      1.0000 0.06708  0.98744  0.68647  Biso   1.000  O
  O58      1.0000 0.43292  0.48744  0.81353  Biso   1.000  O
  O59      1.0000 0.93292  0.01256  0.31353  Biso   1.000  O
  O60      1.0000 0.56708  0.51256  0.18647  Biso   1.000  O
  C57      1.0000 0.93522  0.40548  0.09379  Biso   1.000  C
  C58      1.0000 0.56478  0.90548  0.40621  Biso   1.000  C
  C59      1.0000 0.06478  0.59452  0.90621  Biso   1.000  C
  C60      1.0000 0.43522  0.09452  0.59379  Biso   1.000  C
  H33      1.0000 0.98200  0.37500  0.11440  Biso   1.000  H
  H34      1.0000 0.51800  0.87500  0.38560  Biso   1.000  H
  H35      1.0000 0.01800  0.62500  0.88560  Biso   1.000  H
  H36      1.0000 0.48200  0.12500  0.61440  Biso   1.000  H
  H37      1.0000 0.94760  0.45290  0.11160  Biso   1.000  H
  H38      1.0000 0.55240  0.95290  0.38840  Biso   1.000  H
  H39      1.0000 0.05240  0.54710  0.88840  Biso   1.000  H
  H40      1.0000 0.44760  0.04710  0.61160  Biso   1.000  H
  O61      1.0000 0.00757  0.05595  0.85267  Biso   1.000  O
  O62      1.0000 0.49243  0.55595  0.64733  Biso   1.000  O
  O63      1.0000 0.99243  0.94405  0.14733  Biso   1.000  O
  O64      1.0000 0.50757  0.44405  0.35267  Biso   1.000  O
  C61      1.0000 0.92790  0.40551  0.01603  Biso   1.000  C
  C62      1.0000 0.57210  0.90551  0.48397  Biso   1.000  C
  C63      1.0000 0.07210  0.59449  0.98397  Biso   1.000  C
  C64      1.0000 0.42790  0.09449  0.51603  Biso   1.000  C
  O65      1.0000 0.13529  0.27320  0.08694  Biso   1.000  O
  O66      1.0000 0.36471  0.77320  0.41306  Biso   1.000  O
  O67      1.0000 0.86471  0.72680  0.91306  Biso   1.000  O
  O68      1.0000 0.63529  0.22680  0.58694  Biso   1.000  O
  C65      1.0000 0.94600  0.34337  0.98525  Biso   1.000  C
  C66      1.0000 0.55400  0.84337  0.51475  Biso   1.000  C
  C67      1.0000 0.05400  0.65663  0.01475  Biso   1.000  C
  C68      1.0000 0.44600  0.15663  0.48525  Biso   1.000  C
  H41      1.0000 0.96610  0.30500  0.01330  Biso   1.000  H
  H42      1.0000 0.53390  0.80500  0.48670  Biso   1.000  H
  H43      1.0000 0.03390  0.69500  0.98670  Biso   1.000  H
  H44      1.0000 0.46610  0.19500  0.51330  Biso   1.000  H
  O69      1.0000 0.02375  0.23282  0.13514  Biso   1.000  O
  O70      1.0000 0.47625  0.73282  0.36486  Biso   1.000  O
  O71      1.0000 0.97625  0.76718  0.86486  Biso   1.000  O
  O72      1.0000 0.52375  0.26718  0.63514  Biso   1.000  O
  C69      1.0000 0.93516  0.33682  0.91421  Biso   1.000  C
  C70      1.0000 0.56484  0.83682  0.58579  Biso   1.000  C
  C71      1.0000 0.06484  0.66318  0.08579  Biso   1.000  C
  C72      1.0000 0.43516  0.16318  0.41421  Biso   1.000  C
  O73      1.0000 0.16054  0.22713  0.19557  Biso   1.000  O
  O74      1.0000 0.33946  0.72713  0.30443  Biso   1.000  O
  O75      1.0000 0.83946  0.77287  0.80443  Biso   1.000  O
  O76      1.0000 0.66054  0.27287  0.69557  Biso   1.000  O
  C73      1.0000 0.90568  0.39408  0.87465  Biso   1.000  C
  C74      1.0000 0.59432  0.89408  0.62535  Biso   1.000  C
  C75      1.0000 0.09432  0.60592  0.12535  Biso   1.000  C
  C76      1.0000 0.40568  0.10592  0.37465  Biso   1.000  C
  O77      1.0000 0.11976  0.15626  0.10499  Biso   1.000  O
  O78      1.0000 0.38024  0.65626  0.39501  Biso   1.000  O
  O79      1.0000 0.88024  0.84374  0.89501  Biso   1.000  O
  O80      1.0000 0.61976  0.34374  0.60499  Biso   1.000  O
  C77      1.0000 0.89051  0.45621  0.90387  Biso   1.000  C
  C78      1.0000 0.60949  0.95621  0.59613  Biso   1.000  C
  C79      1.0000 0.10949  0.54379  0.09613  Biso   1.000  C
  C80      1.0000 0.39051  0.04379  0.40387  Biso   1.000  C
  H45      1.0000 0.87260  0.49480  0.87540  Biso   1.000  H
  H46      1.0000 0.62740  0.99480  0.62460  Biso   1.000  H
  H47      1.0000 0.12740  0.50520  0.12460  Biso   1.000  H
  H48      1.0000 0.37260  0.00520  0.37540  Biso   1.000  H
  C81      1.0000 0.90120  0.46345  0.97566  Biso   1.000  C
  C82      1.0000 0.59880  0.96345  0.52434  Biso   1.000  C
  C83      1.0000 0.09880  0.53655  0.02434  Biso   1.000  C
  C84      1.0000 0.40120  0.03655  0.47566  Biso   1.000  C
  C85      1.0000 0.65524  0.65016  0.83385  Biso   1.000  C
  C86      1.0000 0.84476  0.15016  0.66615  Biso   1.000  C
  C87      1.0000 0.34476  0.34984  0.16615  Biso   1.000  C
  C88      1.0000 0.15524  0.84984  0.33385  Biso   1.000  C
  H49      1.0000 0.70010  0.68140  0.85490  Biso   1.000  H
  H50      1.0000 0.79990  0.18140  0.64510  Biso   1.000  H
  H51      1.0000 0.29990  0.31860  0.14510  Biso   1.000  H
  H52      1.0000 0.20010  0.81860  0.35490  Biso   1.000  H
  H53      1.0000 0.61530  0.67570  0.80000  Biso   1.000  H
  H54      1.0000 0.88470  0.17570  0.70000  Biso   1.000  H
  H55      1.0000 0.38470  0.32430  0.20000  Biso   1.000  H
  H56      1.0000 0.11530  0.82430  0.30000  Biso   1.000  H
  H57      1.0000 0.67930  0.61190  0.81120  Biso   1.000  H
  H58      1.0000 0.82070  0.11190  0.68880  Biso   1.000  H
  H59      1.0000 0.32070  0.38810  0.18880  Biso   1.000  H
  H60      1.0000 0.17930  0.88810  0.31120  Biso   1.000  H
  C89      1.0000 0.51922  0.66224  0.00010  Biso   1.000  C
  C90      1.0000 0.98078  0.16224  0.49990  Biso   1.000  C
  C91      1.0000 0.48078  0.33776  0.99990  Biso   1.000  C
  C92      1.0000 0.01922  0.83776  0.50010  Biso   1.000  C
  C93      1.0000 0.43146  0.67145  0.01203  Biso   1.000  C
  C94      1.0000 0.06854  0.17145  0.48797  Biso   1.000  C
  C95      1.0000 0.56854  0.32855  0.98797  Biso   1.000  C
  C96      1.0000 0.93146  0.82855  0.51203  Biso   1.000  C
  C97      1.0000 0.38011  0.61654  0.02354  Biso   1.000  C
  C98      1.0000 0.11989  0.11654  0.47646  Biso   1.000  C
  C99      1.0000 0.61989  0.38346  0.97646  Biso   1.000  C
  C100     1.0000 0.88011  0.88346  0.52354  Biso   1.000  C
  H61      1.0000 0.39800  0.57000  0.02080  Biso   1.000  H
  H62      1.0000 0.10200  0.07000  0.47920  Biso   1.000  H
  H63      1.0000 0.60200  0.43000  0.97920  Biso   1.000  H
  H64      1.0000 0.89800  0.93000  0.52080  Biso   1.000  H
  C101     1.0000 0.30223  0.63194  0.03901  Biso   1.000  C
  C102     1.0000 0.19777  0.13194  0.46099  Biso   1.000  C
  C103     1.0000 0.69777  0.36806  0.96099  Biso   1.000  C
  C104     1.0000 0.80223  0.86806  0.53901  Biso   1.000  C
  H65      1.0000 0.26560  0.59550  0.04670  Biso   1.000  H
  H66      1.0000 0.23440  0.09550  0.45330  Biso   1.000  H
  H67      1.0000 0.73440  0.40450  0.95330  Biso   1.000  H
  H68      1.0000 0.76560  0.90450  0.54670  Biso   1.000  H
  C105     1.0000 0.27757  0.69936  0.04334  Biso   1.000  C
  C106     1.0000 0.22243  0.19936  0.45666  Biso   1.000  C
  C107     1.0000 0.72243  0.30064  0.95666  Biso   1.000  C
  C108     1.0000 0.77757  0.80064  0.54334  Biso   1.000  C
  H69      1.0000 0.22410  0.70920  0.05450  Biso   1.000  H
  H70      1.0000 0.27590  0.20920  0.44550  Biso   1.000  H
  H71      1.0000 0.77590  0.29080  0.94550  Biso   1.000  H
  H72      1.0000 0.72410  0.79080  0.55450  Biso   1.000  H
  C109     1.0000 0.40440  0.73862  0.01503  Biso   1.000  C
  C110     1.0000 0.09560  0.23862  0.48497  Biso   1.000  C
  C111     1.0000 0.59560  0.26138  0.98497  Biso   1.000  C
  C112     1.0000 0.90440  0.76138  0.51503  Biso   1.000  C
  H73      1.0000 0.43910  0.77560  0.00530  Biso   1.000  H
  H74      1.0000 0.06090  0.27560  0.49470  Biso   1.000  H
  H75      1.0000 0.56090  0.22440  0.99470  Biso   1.000  H
  H76      1.0000 0.93910  0.72440  0.50530  Biso   1.000  H
  C113     1.0000 0.57495  0.33251  0.18667  Biso   1.000  C
  C114     1.0000 0.92505  0.83251  0.31333  Biso   1.000  C
  C115     1.0000 0.42505  0.66749  0.81333  Biso   1.000  C
  C116     1.0000 0.07495  0.16749  0.68667  Biso   1.000  C
  H77      1.0000 0.59920  0.35650  0.22910  Biso   1.000  H
  H78      1.0000 0.90080  0.85650  0.27090  Biso   1.000  H
  H79      1.0000 0.40080  0.64350  0.77090  Biso   1.000  H
  H80      1.0000 0.09920  0.14350  0.72910  Biso   1.000  H
  H81      1.0000 0.52860  0.30300  0.19510  Biso   1.000  H
  H82      1.0000 0.97140  0.80300  0.30490  Biso   1.000  H
  H83      1.0000 0.47140  0.69700  0.80490  Biso   1.000  H
  H84      1.0000 0.02860  0.19700  0.69510  Biso   1.000  H
  H85      1.0000 0.55400  0.36660  0.15120  Biso   1.000  H
  H86      1.0000 0.94600  0.86660  0.34880  Biso   1.000  H
  H87      1.0000 0.44600  0.63340  0.84880  Biso   1.000  H
  H88      1.0000 0.05400  0.13340  0.65120  Biso   1.000  H
  C117     1.0000 0.77913  0.16514  0.16675  Biso   1.000  C
  C118     1.0000 0.72087  0.66514  0.33325  Biso   1.000  C
  C119     1.0000 0.22087  0.83486  0.83325  Biso   1.000  C
  C120     1.0000 0.27913  0.33486  0.66675  Biso   1.000  C
  C121     1.0000 0.75093  0.09371  0.14608  Biso   1.000  C
  C122     1.0000 0.74907  0.59371  0.35392  Biso   1.000  C
  C123     1.0000 0.24907  0.90629  0.85392  Biso   1.000  C
  C124     1.0000 0.25093  0.40629  0.64608  Biso   1.000  C
  C125     1.0000 0.77849  0.03869  0.18984  Biso   1.000  C
  C126     1.0000 0.72151  0.53869  0.31016  Biso   1.000  C
  C127     1.0000 0.22151  0.96131  0.81016  Biso   1.000  C
  C128     1.0000 0.27849  0.46131  0.68984  Biso   1.000  C
  H89      1.0000 0.81490  0.04640  0.23220  Biso   1.000  H
  H90      1.0000 0.68510  0.54640  0.26780  Biso   1.000  H
  H91      1.0000 0.18510  0.95360  0.76780  Biso   1.000  H
  H92      1.0000 0.31490  0.45360  0.73220  Biso   1.000  H
  C129     1.0000 0.75174  0.97284  0.17019  Biso   1.000  C
  C130     1.0000 0.74826  0.47284  0.32981  Biso   1.000  C
  C131     1.0000 0.24826  0.02716  0.82981  Biso   1.000  C
  C132     1.0000 0.25174  0.52716  0.67019  Biso   1.000  C
  H93      1.0000 0.77000  0.93460  0.19910  Biso   1.000  H
  H94      1.0000 0.73000  0.43460  0.30090  Biso   1.000  H
  H95      1.0000 0.23000  0.06540  0.80090  Biso   1.000  H
  H96      1.0000 0.27000  0.56540  0.69910  Biso   1.000  H
  C133     1.0000 0.69872  0.96219  0.10881  Biso   1.000  C
  C134     1.0000 0.80128  0.46219  0.39119  Biso   1.000  C
  C135     1.0000 0.30128  0.03781  0.89119  Biso   1.000  C
  C136     1.0000 0.19872  0.53781  0.60881  Biso   1.000  C
  H97      1.0000 0.67950  0.91680  0.09610  Biso   1.000  H
  H98      1.0000 0.82050  0.41680  0.40390  Biso   1.000  H
  H99      1.0000 0.32050  0.08320  0.90390  Biso   1.000  H
  H100     1.0000 0.17950  0.58320  0.59610  Biso   1.000  H
  C137     1.0000 0.69842  0.08138  0.08398  Biso   1.000  C
  C138     1.0000 0.80158  0.58138  0.41602  Biso   1.000  C
  C139     1.0000 0.30158  0.91862  0.91602  Biso   1.000  C
  C140     1.0000 0.19842  0.41862  0.58398  Biso   1.000  C
  H101     1.0000 0.67990  0.11870  0.05390  Biso   1.000  H
  H102     1.0000 0.82010  0.61870  0.44610  Biso   1.000  H
  H103     1.0000 0.32010  0.88130  0.94610  Biso   1.000  H
  H104     1.0000 0.17990  0.38130  0.55390  Biso   1.000  H
  C141     1.0000 0.97971  0.21924  0.92061  Biso   1.000  C
  C142     1.0000 0.52029  0.71924  0.57939  Biso   1.000  C
  C143     1.0000 0.02029  0.78076  0.07939  Biso   1.000  C
  C144     1.0000 0.47971  0.28076  0.42061  Biso   1.000  C
  H105     1.0000 0.03100  0.23100  0.95260  Biso   1.000  H
  H106     1.0000 0.46900  0.73100  0.54740  Biso   1.000  H
  H107     1.0000 0.96900  0.76900  0.04740  Biso   1.000  H
  H108     1.0000 0.53100  0.26900  0.45260  Biso   1.000  H
  H109     1.0000 0.99140  0.18130  0.89080  Biso   1.000  H
  H110     1.0000 0.50860  0.68130  0.60920  Biso   1.000  H
  H111     1.0000 0.00860  0.81870  0.10920  Biso   1.000  H
  H112     1.0000 0.49140  0.31870  0.39080  Biso   1.000  H
  H113     1.0000 0.93630  0.20480  0.94640  Biso   1.000  H
  H114     1.0000 0.56370  0.70480  0.55360  Biso   1.000  H
  H115     1.0000 0.06370  0.79520  0.05360  Biso   1.000  H
  H116     1.0000 0.43630  0.29520  0.44640  Biso   1.000  H
  C145     1.0000 0.94922  0.39722  0.76735  Biso   1.000  C
  C146     1.0000 0.55078  0.89722  0.73265  Biso   1.000  C
  C147     1.0000 0.05078  0.60278  0.23265  Biso   1.000  C
  C148     1.0000 0.44922  0.10278  0.26735  Biso   1.000  C
  C149     1.0000 0.92162  0.37913  0.69332  Biso   1.000  C
  C150     1.0000 0.57838  0.87913  0.80668  Biso   1.000  C
  C151     1.0000 0.07838  0.62087  0.30668  Biso   1.000  C
  C152     1.0000 0.42162  0.12087  0.19332  Biso   1.000  C
  C153     1.0000 0.84332  0.35182  0.66726  Biso   1.000  C
  C154     1.0000 0.65668  0.85182  0.83274  Biso   1.000  C
  C155     1.0000 0.15668  0.64818  0.33274  Biso   1.000  C
  C156     1.0000 0.34332  0.14818  0.16726  Biso   1.000  C
  H117     1.0000 0.80320  0.34430  0.69620  Biso   1.000  H
  H118     1.0000 0.69680  0.84430  0.80380  Biso   1.000  H
  H119     1.0000 0.19680  0.65570  0.30380  Biso   1.000  H
  H120     1.0000 0.30320  0.15570  0.19620  Biso   1.000  H
  C157     1.0000 0.82492  0.33575  0.59781  Biso   1.000  C
  C158     1.0000 0.67508  0.83575  0.90219  Biso   1.000  C
  C159     1.0000 0.17508  0.66425  0.40219  Biso   1.000  C
  C160     1.0000 0.32492  0.16425  0.09781  Biso   1.000  C
  H121     1.0000 0.77190  0.31650  0.57910  Biso   1.000  H
  H122     1.0000 0.72810  0.81650  0.92090  Biso   1.000  H
  H123     1.0000 0.22810  0.68350  0.42090  Biso   1.000  H
  H124     1.0000 0.27190  0.18350  0.07910  Biso   1.000  H
  C161     1.0000 0.88285  0.34756  0.55623  Biso   1.000  C
  C162     1.0000 0.61715  0.84756  0.94377  Biso   1.000  C
  C163     1.0000 0.11715  0.65244  0.44377  Biso   1.000  C
  C164     1.0000 0.38285  0.15244  0.05623  Biso   1.000  C
  H125     1.0000 0.86980  0.33640  0.50890  Biso   1.000  H
  H126     1.0000 0.63020  0.83640  0.99110  Biso   1.000  H
  H127     1.0000 0.13020  0.66360  0.49110  Biso   1.000  H
  H128     1.0000 0.36980  0.16360  0.00890  Biso   1.000  H
  C165     1.0000 0.97850  0.39047  0.65010  Biso   1.000  C
  C166     1.0000 0.52150  0.89047  0.84990  Biso   1.000  C
  C167     1.0000 0.02150  0.60953  0.34990  Biso   1.000  C
  C168     1.0000 0.47850  0.10953  0.15010  Biso   1.000  C
  H129     1.0000 0.03210  0.40920  0.66790  Biso   1.000  H
  H130     1.0000 0.46790  0.90920  0.83210  Biso   1.000  H
  H131     1.0000 0.96790  0.59080  0.33210  Biso   1.000  H
  H132     1.0000 0.53210  0.09080  0.16790  Biso   1.000  H
  C169     1.0000 0.98053  0.58790  0.60945  Biso   1.000  C
  C170     1.0000 0.51947  0.08790  0.89055  Biso   1.000  C
  C171     1.0000 0.01947  0.41210  0.39055  Biso   1.000  C
  C172     1.0000 0.48053  0.91210  0.10945  Biso   1.000  C
  H133     1.0000 0.94070  0.61000  0.57540  Biso   1.000  H
  H134     1.0000 0.55930  0.11000  0.92460  Biso   1.000  H
  H135     1.0000 0.05930  0.39000  0.42460  Biso   1.000  H
  H136     1.0000 0.44070  0.89000  0.07540  Biso   1.000  H
  C173     1.0000 0.96949  0.68652  0.68292  Biso   1.000  C
  C174     1.0000 0.53051  0.18652  0.81708  Biso   1.000  C
  C175     1.0000 0.03051  0.31348  0.31708  Biso   1.000  C
  C176     1.0000 0.46949  0.81348  0.18292  Biso   1.000  C
  H137     1.0000 0.01380  0.72070  0.68140  Biso   1.000  H
  H138     1.0000 0.48620  0.22070  0.81860  Biso   1.000  H
  H139     1.0000 0.98620  0.27930  0.31860  Biso   1.000  H
  H140     1.0000 0.51380  0.77930  0.18140  Biso   1.000  H
  H141     1.0000 0.95320  0.68740  0.72820  Biso   1.000  H
  H142     1.0000 0.54680  0.18740  0.77180  Biso   1.000  H
  H143     1.0000 0.04680  0.31260  0.27180  Biso   1.000  H
  H144     1.0000 0.45320  0.81260  0.22820  Biso   1.000  H
  H145     1.0000 0.92080  0.69770  0.64790  Biso   1.000  H
  H146     1.0000 0.57920  0.19770  0.85210  Biso   1.000  H
  H147     1.0000 0.07920  0.30230  0.35210  Biso   1.000  H
  H148     1.0000 0.42080  0.80230  0.14790  Biso   1.000  H
  C177     1.0000 0.06083  0.58719  0.72449  Biso   1.000  C
  C178     1.0000 0.43917  0.08719  0.77551  Biso   1.000  C
  C179     1.0000 0.93917  0.41281  0.27551  Biso   1.000  C
  C180     1.0000 0.56083  0.91281  0.22449  Biso   1.000  C
  H149     1.0000 0.07870  0.54210  0.70960  Biso   1.000  H
  H150     1.0000 0.42130  0.04210  0.79040  Biso   1.000  H
  H151     1.0000 0.92130  0.45790  0.29040  Biso   1.000  H
  H152     1.0000 0.57870  0.95790  0.20960  Biso   1.000  H
  H153     1.0000 0.03510  0.58110  0.76530  Biso   1.000  H
  H154     1.0000 0.46490  0.08110  0.73470  Biso   1.000  H
  H155     1.0000 0.96490  0.41890  0.23470  Biso   1.000  H
  H156     1.0000 0.53510  0.91890  0.26530  Biso   1.000  H
  H157     1.0000 0.10960  0.61770  0.73540  Biso   1.000  H
  H158     1.0000 0.39040  0.11770  0.76460  Biso   1.000  H
  H159     1.0000 0.89040  0.38230  0.26460  Biso   1.000  H
  H160     1.0000 0.60960  0.88230  0.23540  Biso   1.000  H
  C181     1.0000 0.21875  0.72594  0.65334  Biso   1.000  C
  C182     1.0000 0.28125  0.22594  0.84666  Biso   1.000  C
  C183     1.0000 0.78125  0.27406  0.34666  Biso   1.000  C
  C184     1.0000 0.71875  0.77406  0.15334  Biso   1.000  C
  H161     1.0000 0.21820  0.72760  0.70110  Biso   1.000  H
  H162     1.0000 0.28180  0.22760  0.79890  Biso   1.000  H
  H163     1.0000 0.78180  0.27240  0.29890  Biso   1.000  H
  H164     1.0000 0.71820  0.77240  0.20110  Biso   1.000  H
  C185     1.0000 0.27946  0.76383  0.55772  Biso   1.000  C
  C186     1.0000 0.22054  0.26383  0.94228  Biso   1.000  C
  C187     1.0000 0.72054  0.23617  0.44228  Biso   1.000  C
  C188     1.0000 0.77946  0.73617  0.05772  Biso   1.000  C
  H165     1.0000 0.30050  0.71960  0.54350  Biso   1.000  H
  H166     1.0000 0.19950  0.21960  0.95650  Biso   1.000  H
  H167     1.0000 0.69950  0.28040  0.45650  Biso   1.000  H
  H168     1.0000 0.80050  0.78040  0.04350  Biso   1.000  H
  H169     1.0000 0.31640  0.80130  0.54800  Biso   1.000  H
  H170     1.0000 0.18360  0.30130  0.95200  Biso   1.000  H
  H171     1.0000 0.68360  0.19870  0.45200  Biso   1.000  H
  H172     1.0000 0.81640  0.69870  0.04800  Biso   1.000  H
  H173     1.0000 0.22270  0.77190  0.53240  Biso   1.000  H
  H174     1.0000 0.27730  0.27190  0.96760  Biso   1.000  H
  H175     1.0000 0.77730  0.22810  0.46760  Biso   1.000  H
  H176     1.0000 0.72270  0.72810  0.03240  Biso   1.000  H
  C189     1.0000 0.33973  0.80294  0.67574  Biso   1.000  C
  C190     1.0000 0.16027  0.30294  0.82426  Biso   1.000  C
  C191     1.0000 0.66027  0.19706  0.32426  Biso   1.000  C
  C192     1.0000 0.83973  0.69706  0.17574  Biso   1.000  C
  H177     1.0000 0.33130  0.79740  0.72320  Biso   1.000  H
  H178     1.0000 0.16870  0.29740  0.77680  Biso   1.000  H
  H179     1.0000 0.66870  0.20260  0.27680  Biso   1.000  H
  H180     1.0000 0.83130  0.70260  0.22320  Biso   1.000  H
  H181     1.0000 0.33350  0.85180  0.66270  Biso   1.000  H
  H182     1.0000 0.16650  0.35180  0.83730  Biso   1.000  H
  H183     1.0000 0.66650  0.14820  0.33730  Biso   1.000  H
  H184     1.0000 0.83350  0.64820  0.16270  Biso   1.000  H
  H185     1.0000 0.39610  0.78710  0.67170  Biso   1.000  H
  H186     1.0000 0.10390  0.28710  0.82830  Biso   1.000  H
  H187     1.0000 0.60390  0.21290  0.32830  Biso   1.000  H
  H188     1.0000 0.89610  0.71290  0.17170  Biso   1.000  H
  C193     1.0000 0.99638  0.99068  0.70017  Biso   1.000  C
  C194     1.0000 0.50362  0.49068  0.79983  Biso   1.000  C
  C195     1.0000 0.00362  0.00932  0.29983  Biso   1.000  C
  C196     1.0000 0.49638  0.50932  0.20017  Biso   1.000  C
  H189     1.0000 0.97380  0.03560  0.70410  Biso   1.000  H
  H190     1.0000 0.52620  0.53560  0.79590  Biso   1.000  H
  H191     1.0000 0.02620  0.96440  0.29590  Biso   1.000  H
  H192     1.0000 0.47380  0.46440  0.20410  Biso   1.000  H
  C197     1.0000 0.86489  0.94633  0.72697  Biso   1.000  C
  C198     1.0000 0.63511  0.44633  0.77303  Biso   1.000  C
  C199     1.0000 0.13511  0.05367  0.27303  Biso   1.000  C
  C200     1.0000 0.36489  0.55367  0.22697  Biso   1.000  C
  H193     1.0000 0.85480  0.99580  0.73300  Biso   1.000  H
  H194     1.0000 0.64520  0.49580  0.76700  Biso   1.000  H
  H195     1.0000 0.14520  0.00420  0.26700  Biso   1.000  H
  H196     1.0000 0.35480  0.50420  0.23300  Biso   1.000  H
  H197     1.0000 0.86130  0.92160  0.76950  Biso   1.000  H
  H198     1.0000 0.63870  0.42160  0.73050  Biso   1.000  H
  H199     1.0000 0.13870  0.07840  0.23050  Biso   1.000  H
  H200     1.0000 0.36130  0.57840  0.26950  Biso   1.000  H
  H201     1.0000 0.82270  0.92810  0.68970  Biso   1.000  H
  H202     1.0000 0.67730  0.42810  0.81030  Biso   1.000  H
  H203     1.0000 0.17730  0.07190  0.31030  Biso   1.000  H
  H204     1.0000 0.32270  0.57190  0.18970  Biso   1.000  H
  C201     1.0000 0.97742  0.86668  0.70543  Biso   1.000  C
  C202     1.0000 0.52258  0.36668  0.79457  Biso   1.000  C
  C203     1.0000 0.02258  0.13332  0.29457  Biso   1.000  C
  C204     1.0000 0.47742  0.63332  0.20543  Biso   1.000  C
  H205     1.0000 0.93440  0.83930  0.67620  Biso   1.000  H
  H206     1.0000 0.56560  0.33930  0.82380  Biso   1.000  H
  H207     1.0000 0.06560  0.16070  0.32380  Biso   1.000  H
  H208     1.0000 0.43440  0.66070  0.17620  Biso   1.000  H
  H209     1.0000 0.98920  0.84610  0.75130  Biso   1.000  H
  H210     1.0000 0.51080  0.34610  0.74870  Biso   1.000  H
  H211     1.0000 0.01080  0.15390  0.24870  Biso   1.000  H
  H212     1.0000 0.48920  0.65390  0.25130  Biso   1.000  H
  H213     1.0000 0.02870  0.86700  0.68560  Biso   1.000  H
  H214     1.0000 0.47130  0.36700  0.81440  Biso   1.000  H
  H215     1.0000 0.97130  0.13300  0.31440  Biso   1.000  H
  H216     1.0000 0.52870  0.63300  0.18560  Biso   1.000  H
  C205     1.0000 0.02540  0.00016  0.88035  Biso   1.000  C
  C206     1.0000 0.47460  0.50016  0.61965  Biso   1.000  C
  C207     1.0000 0.97460  0.99984  0.11965  Biso   1.000  C
  C208     1.0000 0.52540  0.49984  0.38035  Biso   1.000  C
  H217     1.0000 0.99900  0.96040  0.85800  Biso   1.000  H
  H218     1.0000 0.50100  0.46040  0.64200  Biso   1.000  H
  H219     1.0000 0.00100  0.03960  0.14200  Biso   1.000  H
  H220     1.0000 0.49900  0.53960  0.35800  Biso   1.000  H
  C209     1.0000 0.08977  0.92101  0.96939  Biso   1.000  C
  C210     1.0000 0.41023  0.42101  0.53061  Biso   1.000  C
  C211     1.0000 0.91023  0.07899  0.03061  Biso   1.000  C
  C212     1.0000 0.58977  0.57899  0.46939  Biso   1.000  C
  H221     1.0000 0.05770  0.88720  0.93850  Biso   1.000  H
  H222     1.0000 0.44230  0.38720  0.56150  Biso   1.000  H
  H223     1.0000 0.94230  0.11280  0.06150  Biso   1.000  H
  H224     1.0000 0.55770  0.61280  0.43850  Biso   1.000  H
  H225     1.0000 0.06990  0.92090  0.01330  Biso   1.000  H
  H226     1.0000 0.43010  0.42090  0.48670  Biso   1.000  H
  H227     1.0000 0.93010  0.07910  0.98670  Biso   1.000  H
  H228     1.0000 0.56990  0.57910  0.51330  Biso   1.000  H
  H229     1.0000 0.14930  0.90860  0.97690  Biso   1.000  H
  H230     1.0000 0.35070  0.40860  0.52310  Biso   1.000  H
  H231     1.0000 0.85070  0.09140  0.02310  Biso   1.000  H
  H232     1.0000 0.64930  0.59140  0.47690  Biso   1.000  H
  C213     1.0000 0.12180  0.04686  0.97645  Biso   1.000  C
  C214     1.0000 0.37820  0.54686  0.52355  Biso   1.000  C
  C215     1.0000 0.87820  0.95314  0.02355  Biso   1.000  C
  C216     1.0000 0.62180  0.45314  0.47645  Biso   1.000  C
  H233     1.0000 0.11500  0.08840  0.94770  Biso   1.000  H
  H234     1.0000 0.38500  0.58840  0.55230  Biso   1.000  H
  H235     1.0000 0.88500  0.91160  0.05230  Biso   1.000  H
  H236     1.0000 0.61500  0.41160  0.44770  Biso   1.000  H
  H237     1.0000 0.18150  0.03580  0.98910  Biso   1.000  H
  H238     1.0000 0.31850  0.53580  0.51090  Biso   1.000  H
  H239     1.0000 0.81850  0.96420  0.01090  Biso   1.000  H
  H240     1.0000 0.68150  0.46420  0.48910  Biso   1.000  H
  H241     1.0000 0.09830  0.05520  0.01800  Biso   1.000  H
  H242     1.0000 0.40170  0.55520  0.48200  Biso   1.000  H
  H243     1.0000 0.90170  0.94480  0.98200  Biso   1.000  H
  H244     1.0000 0.59830  0.44480  0.51800  Biso   1.000  H
  N29      1.0000 0.76968  0.59475  0.68918  Biso   1.000  N
  N30      1.0000 0.73032  0.09475  0.81082  Biso   1.000  N
  N31      1.0000 0.23032  0.40525  0.31082  Biso   1.000  N
  N32      1.0000 0.26968  0.90525  0.18918  Biso   1.000  N
  O81      1.0000 0.87482  0.54474  0.76388  Biso   1.000  O
  O82      1.0000 0.62518  0.04474  0.73612  Biso   1.000  O
  O83      1.0000 0.12518  0.45526  0.23612  Biso   1.000  O
  O84      1.0000 0.37482  0.95526  0.26388  Biso   1.000  O
  C217     1.0000 0.82661  0.59201  0.74712  Biso   1.000  C
  C218     1.0000 0.67339  0.09201  0.75288  Biso   1.000  C
  C219     1.0000 0.17339  0.40799  0.25288  Biso   1.000  C
  C220     1.0000 0.32661  0.90799  0.24712  Biso   1.000  C
  H245     1.0000 0.82930  0.63030  0.77750  Biso   1.000  H
  H246     1.0000 0.67070  0.13030  0.72250  Biso   1.000  H
  H247     1.0000 0.17070  0.36970  0.22250  Biso   1.000  H
  H248     1.0000 0.32930  0.86970  0.27750  Biso   1.000  H
  C221     1.0000 0.71580  0.65402  0.67405  Biso   1.000  C
  C222     1.0000 0.78420  0.15402  0.82595  Biso   1.000  C
  C223     1.0000 0.28420  0.34598  0.32595  Biso   1.000  C
  C224     1.0000 0.21580  0.84598  0.17405  Biso   1.000  C
  H249     1.0000 0.73330  0.69030  0.70810  Biso   1.000  H
  H250     1.0000 0.76670  0.19030  0.79190  Biso   1.000  H
  H251     1.0000 0.26670  0.30970  0.29190  Biso   1.000  H
  H252     1.0000 0.23330  0.80970  0.20810  Biso   1.000  H
  H253     1.0000 0.65780  0.64060  0.67550  Biso   1.000  H
  H254     1.0000 0.84220  0.14060  0.82450  Biso   1.000  H
  H255     1.0000 0.34220  0.35940  0.32450  Biso   1.000  H
  H256     1.0000 0.15780  0.85940  0.17550  Biso   1.000  H
  H257     1.0000 0.71960  0.67150  0.62830  Biso   1.000  H
  H258     1.0000 0.78040  0.17150  0.87170  Biso   1.000  H
  H259     1.0000 0.28040  0.32850  0.37170  Biso   1.000  H
  H260     1.0000 0.21960  0.82850  0.12830  Biso   1.000  H
  C225     1.0000 0.76200  0.53906  0.63999  Biso   1.000  C
  C226     1.0000 0.73800  0.03906  0.86001  Biso   1.000  C
  C227     1.0000 0.23800  0.46094  0.36001  Biso   1.000  C
  C228     1.0000 0.26200  0.96094  0.13999  Biso   1.000  C
  H261     1.0000 0.79910  0.50090  0.65850  Biso   1.000  H
  H262     1.0000 0.70090  0.00090  0.84150  Biso   1.000  H
  H263     1.0000 0.20090  0.49910  0.34150  Biso   1.000  H
  H264     1.0000 0.29910  0.99910  0.15850  Biso   1.000  H
  H265     1.0000 0.77790  0.55570  0.59740  Biso   1.000  H
  H266     1.0000 0.72210  0.05570  0.90260  Biso   1.000  H
  H267     1.0000 0.22210  0.44430  0.40260  Biso   1.000  H
  H268     1.0000 0.27790  0.94430  0.09740  Biso   1.000  H
  H269     1.0000 0.70390  0.52270  0.63070  Biso   1.000  H
  H270     1.0000 0.79610  0.02270  0.86930  Biso   1.000  H
  H271     1.0000 0.29610  0.47730  0.36930  Biso   1.000  H
  H272     1.0000 0.20390  0.97730  0.13070  Biso   1.000  H
