data_image0
_cell_length_a       8.4202
_cell_length_b       8.4821
_cell_length_c       10.2474
_cell_angle_alpha    105.121
_cell_angle_beta     96.292
_cell_angle_gamma    116.913

_symmetry_space_group_name_H-M    "P 1"
_symmetry_int_tables_number       1

loop_
  _symmetry_equiv_pos_as_xyz
  'x, y, z'

loop_
  _atom_site_label
  _atom_site_occupancy
  _atom_site_fract_x
  _atom_site_fract_y
  _atom_site_fract_z
  _atom_site_thermal_displace_type
  _atom_site_B_iso_or_equiv
  _atom_site_type_symbol
  Mo1      1.0000 0.19024  0.27986  0.79557  Biso   1.000  Mo
  Mo2      1.0000 0.80976  0.72014  0.20443  Biso   1.000  Mo
  Cu1      1.0000 0.00000  0.00000  0.00000  Biso   1.000  Cu
  Cu2      1.0000 0.00000  0.50000  0.00000  Biso   1.000  Cu
  O1       1.0000 0.13423  0.10040  0.87032  Biso   1.000  O
  O2       1.0000 0.86577  0.89960  0.12968  Biso   1.000  O
  O3       1.0000 0.18624  0.47760  0.90751  Biso   1.000  O
  O4       1.0000 0.81376  0.52240  0.09249  Biso   1.000  O
  O5       1.0000 0.40640  0.35010  0.76310  Biso   1.000  O
  O6       1.0000 0.59360  0.64990  0.23690  Biso   1.000  O
  O7       1.0000 0.02990  0.19040  0.63530  Biso   1.000  O
  O8       1.0000 0.97010  0.80960  0.36470  Biso   1.000  O
  N1       1.0000 0.12630  0.31680  0.17042  Biso   1.000  N
  N2       1.0000 0.87370  0.68320  0.82958  Biso   1.000  N
  N3       1.0000 0.11446  0.47370  0.17026  Biso   1.000  N
  N4       1.0000 0.88554  0.52630  0.82974  Biso   1.000  N
  N5       1.0000 0.22070  0.51380  0.38680  Biso   1.000  N
  N6       1.0000 0.77930  0.48620  0.61320  Biso   1.000  N
  N7       1.0000 0.77556  0.00060  0.91231  Biso   1.000  N
  N8       1.0000 0.22444  0.99940  0.08769  Biso   1.000  N
  N9       1.0000 0.77700  0.15950  0.89962  Biso   1.000  N
  N10      1.0000 0.22300  0.84050  0.10038  Biso   1.000  N
  N11      1.0000 0.49205  0.92331  0.82667  Biso   1.000  N
  N12      1.0000 0.50795  0.07669  0.17333  Biso   1.000  N
  C1       1.0000 0.18990  0.34490  0.30142  Biso   1.000  C
  C2       1.0000 0.81010  0.65510  0.69858  Biso   1.000  C
  H1       1.0000 0.21150  0.25960  0.33250  Biso   1.000  H
  H2       1.0000 0.78850  0.74040  0.66750  Biso   1.000  H
  C3       1.0000 0.17180  0.58920  0.30024  Biso   1.000  C
  C4       1.0000 0.82820  0.41080  0.69976  Biso   1.000  C
  H3       1.0000 0.17790  0.70700  0.32890  Biso   1.000  H
  H4       1.0000 0.82210  0.29300  0.67110  Biso   1.000  H
  C5       1.0000 0.60420  0.86130  0.86834  Biso   1.000  C
  C6       1.0000 0.39580  0.13870  0.13166  Biso   1.000  C
  H5       1.0000 0.56530  0.73750  0.86610  Biso   1.000  H
  H6       1.0000 0.43470  0.26250  0.13390  Biso   1.000  H
  C7       1.0000 0.60480  0.10830  0.84830  Biso   1.000  C
  C8       1.0000 0.39520  0.89170  0.15170  Biso   1.000  C
  H7       1.0000 0.56470  0.18890  0.82910  Biso   1.000  H
  H8       1.0000 0.43530  0.81110  0.17090  Biso   1.000  H
  C9       1.0000 0.28430  0.58890  0.54073  Biso   1.000  C
  C10      1.0000 0.71570  0.41110  0.45927  Biso   1.000  C
  H9       1.0000 0.41690  0.63460  0.56970  Biso   1.000  H
  H10      1.0000 0.58310  0.36540  0.43030  Biso   1.000  H
  H11      1.0000 0.22000  0.48760  0.57710  Biso   1.000  H
  H12      1.0000 0.78000  0.51240  0.42290  Biso   1.000  H
  C11      1.0000 0.24860  0.74900  0.60266  Biso   1.000  C
  C12      1.0000 0.75140  0.25100  0.39734  Biso   1.000  C
  H13      1.0000 0.11860  0.70750  0.56430  Biso   1.000  H
  H14      1.0000 0.88140  0.29250  0.43570  Biso   1.000  H
  H15      1.0000 0.32440  0.85590  0.57500  Biso   1.000  H
  H16      1.0000 0.67560  0.14410  0.42500  Biso   1.000  H
  C13      1.0000 0.29240  0.81360  0.76228  Biso   1.000  C
  C14      1.0000 0.70760  0.18640  0.23772  Biso   1.000  C
  H17      1.0000 0.23700  0.89090  0.79570  Biso   1.000  H
  H18      1.0000 0.76300  0.10910  0.20430  Biso   1.000  H
  H19      1.0000 0.23770  0.70290  0.79090  Biso   1.000  H
  H20      1.0000 0.76230  0.29710  0.20910  Biso   1.000  H
  O9       1.0000 0.67730  0.87530  0.53252  Biso   1.000  O
  O10      1.0000 0.32270  0.12470  0.46748  Biso   1.000  O
  H21      1.0000 0.65050  0.81820  0.44480  Biso   1.000  H
  H22      1.0000 0.34950  0.18180  0.55520  Biso   1.000  H
  H23      1.0000 0.79020  0.96150  0.55950  Biso   1.000  H
  H24      1.0000 0.20980  0.03850  0.44050  Biso   1.000  H
