data_image0
_cell_length_a       10.3974
_cell_length_b       10.5906
_cell_length_c       11.3939
_cell_angle_alpha    83.211
_cell_angle_beta     73.574
_cell_angle_gamma    82.218

_symmetry_space_group_name_H-M    "P 1"
_symmetry_int_tables_number       1

loop_
  _symmetry_equiv_pos_as_xyz
  'x, y, z'

loop_
  _atom_site_label
  _atom_site_occupancy
  _atom_site_fract_x
  _atom_site_fract_y
  _atom_site_fract_z
  _atom_site_thermal_displace_type
  _atom_site_B_iso_or_equiv
  _atom_site_type_symbol
  Mo1      1.0000 0.50730  0.20858  0.19997  Biso   1.000  Mo
  Mo2      1.0000 0.49270  0.79142  0.80003  Biso   1.000  Mo
  Mo3      1.0000 0.39246  0.50391  0.26327  Biso   1.000  Mo
  Mo4      1.0000 0.60754  0.49609  0.73673  Biso   1.000  Mo
  Mo5      1.0000 0.33188  0.55255  0.00018  Biso   1.000  Mo
  Mo6      1.0000 0.66812  0.44745  0.99982  Biso   1.000  Mo
  Mo7      1.0000 0.44045  0.26330  0.93353  Biso   1.000  Mo
  Mo8      1.0000 0.55955  0.73670  0.06647  Biso   1.000  Mo
  Cu1      1.0000 0.50000  0.00000  0.50000  Biso   1.000  Cu
  Cu2      1.0000 0.20307  0.02440  0.42566  Biso   1.000  Cu
  Cu3      1.0000 0.79693  0.97560  0.57434  Biso   1.000  Cu
  O1       1.0000 0.37090  0.93270  0.43880  Biso   1.000  O
  O2       1.0000 0.62910  0.06730  0.56120  Biso   1.000  O
  H1       1.0000 0.41240  0.90790  0.36830  Biso   1.000  H
  H2       1.0000 0.58760  0.09210  0.63170  Biso   1.000  H
  O3       1.0000 0.60190  0.09300  0.26660  Biso   1.000  O
  O4       1.0000 0.39810  0.90700  0.73340  Biso   1.000  O
  O5       1.0000 0.34480  0.17290  0.25830  Biso   1.000  O
  O6       1.0000 0.65520  0.82710  0.74170  Biso   1.000  O
  O7       1.0000 0.43930  0.40310  0.08050  Biso   1.000  O
  O8       1.0000 0.56070  0.59690  0.91950  Biso   1.000  O
  O9       1.0000 0.49580  0.34940  0.29670  Biso   1.000  O
  O10      1.0000 0.50420  0.65060  0.70330  Biso   1.000  O
  O11      1.0000 0.53440  0.15950  0.03640  Biso   1.000  O
  O12      1.0000 0.46560  0.84050  0.96360  Biso   1.000  O
  O13      1.0000 0.36110  0.63630  0.13270  Biso   1.000  O
  O14      1.0000 0.63890  0.36370  0.86730  Biso   1.000  O
  O15      1.0000 0.23190  0.46210  0.31840  Biso   1.000  O
  O16      1.0000 0.76810  0.53790  0.68160  Biso   1.000  O
  O17      1.0000 0.41040  0.59380  0.37160  Biso   1.000  O
  O18      1.0000 0.58960  0.40620  0.62840  Biso   1.000  O
  O19      1.0000 0.39670  0.44200  0.86480  Biso   1.000  O
  O20      1.0000 0.60330  0.55800  0.13520  Biso   1.000  O
  O21      1.0000 0.17190  0.51490  0.06190  Biso   1.000  O
  O22      1.0000 0.82810  0.48510  0.93810  Biso   1.000  O
  O23      1.0000 0.31240  0.69520  0.90720  Biso   1.000  O
  O24      1.0000 0.68760  0.30480  0.09280  Biso   1.000  O
  O25      1.0000 0.27750  0.23320  0.00200  Biso   1.000  O
  O26      1.0000 0.72250  0.76680  0.99800  Biso   1.000  O
  O27      1.0000 0.48860  0.18560  0.80270  Biso   1.000  O
  O28      1.0000 0.51140  0.81440  0.19730  Biso   1.000  O
  N1       1.0000 0.36830  0.15220  0.53900  Biso   1.000  N
  N2       1.0000 0.63170  0.84780  0.46100  Biso   1.000  N
  N3       1.0000 0.23990  0.15680  0.52610  Biso   1.000  N
  N4       1.0000 0.76010  0.84320  0.47390  Biso   1.000  N
  N5       1.0000 0.26160  0.33800  0.58870  Biso   1.000  N
  N6       1.0000 0.73840  0.66200  0.41130  Biso   1.000  N
  N7       1.0000 0.08570  0.88910  0.57740  Biso   1.000  N
  N8       1.0000 0.91430  0.11090  0.42260  Biso   1.000  N
  N9       1.0000 0.95440  0.85820  0.60660  Biso   1.000  N
  N10      1.0000 0.04560  0.14180  0.39340  Biso   1.000  N
  N11      1.0000 0.06700  0.71800  0.70630  Biso   1.000  N
  N12      1.0000 0.93300  0.28200  0.29370  Biso   1.000  N
  N13      1.0000 0.18920  0.92610  0.28700  Biso   1.000  N
  N14      1.0000 0.81080  0.07390  0.71300  Biso   1.000  N
  N15      1.0000 0.11810  0.82260  0.30430  Biso   1.000  N
  N16      1.0000 0.88190  0.17740  0.69570  Biso   1.000  N
  N17      1.0000 0.14050  0.90990  0.11690  Biso   1.000  N
  N18      1.0000 0.85950  0.09010  0.88310  Biso   1.000  N
  C1       1.0000 0.37770  0.26360  0.57530  Biso   1.000  C
  C2       1.0000 0.62230  0.73640  0.42470  Biso   1.000  C
  H3       1.0000 0.45560  0.28700  0.58970  Biso   1.000  H
  H4       1.0000 0.54440  0.71300  0.41030  Biso   1.000  H
  C3       1.0000 0.17680  0.26910  0.55640  Biso   1.000  C
  C4       1.0000 0.82320  0.73090  0.44360  Biso   1.000  C
  H5       1.0000 0.08730  0.29770  0.55600  Biso   1.000  H
  H6       1.0000 0.91270  0.70230  0.44400  Biso   1.000  H
  C5       1.0000 0.15020  0.80380  0.63760  Biso   1.000  C
  C6       1.0000 0.84980  0.19620  0.36240  Biso   1.000  C
  H7       1.0000 0.24180  0.80180  0.63420  Biso   1.000  H
  H8       1.0000 0.75820  0.19820  0.36580  Biso   1.000  H
  C7       1.0000 0.94830  0.75520  0.68340  Biso   1.000  C
  C8       1.0000 0.05170  0.24480  0.31660  Biso   1.000  C
  H9       1.0000 0.87050  0.71320  0.71770  Biso   1.000  H
  H10      1.0000 0.12950  0.28680  0.28230  Biso   1.000  H
  C9       1.0000 0.23210  0.47010  0.62600  Biso   1.000  C
  C10      1.0000 0.76790  0.52990  0.37400  Biso   1.000  C
  H11      1.0000 0.21030  0.52810  0.55900  Biso   1.000  H
  H12      1.0000 0.78970  0.47190  0.44100  Biso   1.000  H
  H13      1.0000 0.31230  0.49620  0.64150  Biso   1.000  H
  H14      1.0000 0.68770  0.50380  0.35850  Biso   1.000  H
  C11      1.0000 0.11520  0.48120  0.74050  Biso   1.000  C
  C12      1.0000 0.88480  0.51880  0.25950  Biso   1.000  C
  H15      1.0000 0.13060  0.41380  0.80330  Biso   1.000  H
  H16      1.0000 0.86940  0.58620  0.19670  Biso   1.000  H
  H17      1.0000 0.03210  0.46830  0.72120  Biso   1.000  H
  H18      1.0000 0.96790  0.53170  0.27880  Biso   1.000  H
  C13      1.0000 0.09740  0.61140  0.79180  Biso   1.000  C
  C14      1.0000 0.90260  0.38860  0.20820  Biso   1.000  C
  H19      1.0000 0.02420  0.61210  0.86800  Biso   1.000  H
  H20      1.0000 0.97580  0.38790  0.13200  Biso   1.000  H
  H21      1.0000 0.18030  0.62360  0.81190  Biso   1.000  H
  H22      1.0000 0.81970  0.37640  0.18810  Biso   1.000  H
  C15      1.0000 0.20100  0.97540  0.17450  Biso   1.000  C
  C16      1.0000 0.79900  0.02460  0.82550  Biso   1.000  C
  H23      1.0000 0.24610  0.04750  0.13900  Biso   1.000  H
  H24      1.0000 0.75390  0.95250  0.86100  Biso   1.000  H
  C17      1.0000 0.09450  0.81580  0.20040  Biso   1.000  C
  C18      1.0000 0.90550  0.18420  0.79960  Biso   1.000  C
  H25      1.0000 0.04940  0.75100  0.18500  Biso   1.000  H
  H26      1.0000 0.95060  0.24900  0.81500  Biso   1.000  H
  C19      1.0000 0.11780  0.94670  0.99420  Biso   1.000  C
  C20      1.0000 0.88220  0.05330  0.00580  Biso   1.000  C
  C21      1.0000 0.02820  0.07400  0.99500  Biso   1.000  C
  C22      1.0000 0.97180  0.92600  0.00500  Biso   1.000  C
  H27      1.0000 0.06140  0.12620  0.92040  Biso   1.000  H
  H28      1.0000 0.93860  0.87380  0.07960  Biso   1.000  H
  H29      1.0000 0.13210  0.03470  0.96980  Biso   1.000  H
  H30      1.0000 0.86790  0.96530  0.03020  Biso   1.000  H
  H31      1.0000 0.07720  0.88080  0.97100  Biso   1.000  H
  H32      1.0000 0.92280  0.11920  0.02900  Biso   1.000  H
  H33      1.0000 0.17840  0.89480  0.93390  Biso   1.000  H
  H34      1.0000 0.82160  0.10520  0.06610  Biso   1.000  H
  H35      1.0000 0.96870  0.88090  0.93770  Biso   1.000  H
  H36      1.0000 0.03130  0.11910  0.06230  Biso   1.000  H
  H37      1.0000 0.20280  0.95640  0.93450  Biso   1.000  H
  H38      1.0000 0.79720  0.04360  0.06550  Biso   1.000  H
