data_image0
_cell_length_a       15.238
_cell_length_b       23.3671
_cell_length_c       5.918
_cell_angle_alpha    90
_cell_angle_beta     90
_cell_angle_gamma    90

_symmetry_space_group_name_H-M    "P 1"
_symmetry_int_tables_number       1

loop_
  _symmetry_equiv_pos_as_xyz
  'x, y, z'

loop_
  _atom_site_label
  _atom_site_occupancy
  _atom_site_fract_x
  _atom_site_fract_y
  _atom_site_fract_z
  _atom_site_thermal_displace_type
  _atom_site_B_iso_or_equiv
  _atom_site_type_symbol
  Mo1      1.0000 0.28646  0.06605  0.93705  Biso   1.000  Mo
  Mo2      1.0000 0.21354  0.93395  0.43705  Biso   1.000  Mo
  Mo3      1.0000 0.71354  0.56605  0.06295  Biso   1.000  Mo
  Mo4      1.0000 0.78646  0.43395  0.56295  Biso   1.000  Mo
  Mo5      1.0000 0.71354  0.93395  0.06295  Biso   1.000  Mo
  Mo6      1.0000 0.78646  0.06605  0.56295  Biso   1.000  Mo
  Mo7      1.0000 0.28646  0.43395  0.93705  Biso   1.000  Mo
  Mo8      1.0000 0.21354  0.56605  0.43705  Biso   1.000  Mo
  Cu1      1.0000 0.38306  0.03231  0.46760  Biso   1.000  Cu
  Cu2      1.0000 0.11694  0.96769  0.96760  Biso   1.000  Cu
  Cu3      1.0000 0.61694  0.53231  0.53240  Biso   1.000  Cu
  Cu4      1.0000 0.88306  0.46769  0.03240  Biso   1.000  Cu
  Cu5      1.0000 0.61694  0.96769  0.53240  Biso   1.000  Cu
  Cu6      1.0000 0.88306  0.03231  0.03240  Biso   1.000  Cu
  Cu7      1.0000 0.38306  0.46769  0.46760  Biso   1.000  Cu
  Cu8      1.0000 0.11694  0.53231  0.96760  Biso   1.000  Cu
  Cu9      1.0000 0.50000  0.00000  0.00000  Biso   1.000  Cu
  Cu10     1.0000 0.00000  0.00000  0.50000  Biso   1.000  Cu
  Cu11     1.0000 0.50000  0.50000  0.00000  Biso   1.000  Cu
  Cu12     1.0000 0.00000  0.50000  0.50000  Biso   1.000  Cu
  O1       1.0000 0.40260  0.99191  0.19600  Biso   1.000  O
  O2       1.0000 0.09740  0.00809  0.69600  Biso   1.000  O
  O3       1.0000 0.59740  0.49191  0.80400  Biso   1.000  O
  O4       1.0000 0.90260  0.50809  0.30400  Biso   1.000  O
  O5       1.0000 0.59740  0.00809  0.80400  Biso   1.000  O
  O6       1.0000 0.90260  0.99191  0.30400  Biso   1.000  O
  O7       1.0000 0.40260  0.50809  0.19600  Biso   1.000  O
  O8       1.0000 0.09740  0.49191  0.69600  Biso   1.000  O
  H1       1.0000 0.35530  0.98450  0.12570  Biso   1.000  H
  H2       1.0000 0.14470  0.01550  0.62570  Biso   1.000  H
  H3       1.0000 0.64470  0.48450  0.87430  Biso   1.000  H
  H4       1.0000 0.85530  0.51550  0.37430  Biso   1.000  H
  H5       1.0000 0.64470  0.01550  0.87430  Biso   1.000  H
  H6       1.0000 0.85530  0.98450  0.37430  Biso   1.000  H
  H7       1.0000 0.35530  0.51550  0.12570  Biso   1.000  H
  H8       1.0000 0.14470  0.48450  0.62570  Biso   1.000  H
  O9       1.0000 0.38700  0.05830  0.77530  Biso   1.000  O
  O10      1.0000 0.11300  0.94170  0.27530  Biso   1.000  O
  O11      1.0000 0.61300  0.55830  0.22470  Biso   1.000  O
  O12      1.0000 0.88700  0.44170  0.72470  Biso   1.000  O
  O13      1.0000 0.61300  0.94170  0.22470  Biso   1.000  O
  O14      1.0000 0.88700  0.05830  0.72470  Biso   1.000  O
  O15      1.0000 0.38700  0.44170  0.77530  Biso   1.000  O
  O16      1.0000 0.11300  0.55830  0.27530  Biso   1.000  O
  O17      1.0000 0.31050  0.10717  0.17440  Biso   1.000  O
  O18      1.0000 0.18950  0.89283  0.67440  Biso   1.000  O
  O19      1.0000 0.68950  0.60717  0.82560  Biso   1.000  O
  O20      1.0000 0.81050  0.39283  0.32560  Biso   1.000  O
  O21      1.0000 0.68950  0.89283  0.82560  Biso   1.000  O
  O22      1.0000 0.81050  0.10717  0.32560  Biso   1.000  O
  O23      1.0000 0.31050  0.39283  0.17440  Biso   1.000  O
  O24      1.0000 0.18950  0.60717  0.67440  Biso   1.000  O
  O25      1.0000 0.21360  0.10570  0.77420  Biso   1.000  O
  O26      1.0000 0.28640  0.89430  0.27420  Biso   1.000  O
  O27      1.0000 0.78640  0.60570  0.22580  Biso   1.000  O
  O28      1.0000 0.71360  0.39430  0.72580  Biso   1.000  O
  O29      1.0000 0.78640  0.89430  0.22580  Biso   1.000  O
  O30      1.0000 0.71360  0.10570  0.72580  Biso   1.000  O
  O31      1.0000 0.21360  0.39430  0.77420  Biso   1.000  O
  O32      1.0000 0.28640  0.60570  0.27420  Biso   1.000  O
  O33      1.0000 0.22820  0.00333  0.02380  Biso   1.000  O
  O34      1.0000 0.27180  0.99667  0.52380  Biso   1.000  O
  O35      1.0000 0.77180  0.50333  0.97620  Biso   1.000  O
  O36      1.0000 0.72820  0.49667  0.47620  Biso   1.000  O
  O37      1.0000 0.77180  0.99667  0.97620  Biso   1.000  O
  O38      1.0000 0.72820  0.00333  0.47620  Biso   1.000  O
  O39      1.0000 0.22820  0.49667  0.02380  Biso   1.000  O
  O40      1.0000 0.27180  0.50333  0.52380  Biso   1.000  O
  N1       1.0000 0.48920  0.07761  0.39150  Biso   1.000  N
  N2       1.0000 0.01080  0.92239  0.89150  Biso   1.000  N
  N3       1.0000 0.51080  0.57761  0.60850  Biso   1.000  N
  N4       1.0000 0.98920  0.42239  0.10850  Biso   1.000  N
  N5       1.0000 0.51080  0.92239  0.60850  Biso   1.000  N
  N6       1.0000 0.98920  0.07761  0.10850  Biso   1.000  N
  N7       1.0000 0.48920  0.42239  0.39150  Biso   1.000  N
  N8       1.0000 0.01080  0.57761  0.89150  Biso   1.000  N
  N9       1.0000 0.53370  0.06862  0.19330  Biso   1.000  N
  N10      1.0000 0.96630  0.93138  0.69330  Biso   1.000  N
  N11      1.0000 0.46630  0.56862  0.80670  Biso   1.000  N
  N12      1.0000 0.03370  0.43138  0.30670  Biso   1.000  N
  N13      1.0000 0.46630  0.93138  0.80670  Biso   1.000  N
  N14      1.0000 0.03370  0.06862  0.30670  Biso   1.000  N
  N15      1.0000 0.53370  0.43138  0.19330  Biso   1.000  N
  N16      1.0000 0.96630  0.56862  0.69330  Biso   1.000  N
  N17      1.0000 0.58600  0.14479  0.35780  Biso   1.000  N
  N18      1.0000 0.91400  0.85521  0.85780  Biso   1.000  N
  N19      1.0000 0.41400  0.64479  0.64220  Biso   1.000  N
  N20      1.0000 0.08600  0.35521  0.14220  Biso   1.000  N
  N21      1.0000 0.41400  0.85521  0.64220  Biso   1.000  N
  N22      1.0000 0.08600  0.14479  0.14220  Biso   1.000  N
  N23      1.0000 0.58600  0.35521  0.35780  Biso   1.000  N
  N24      1.0000 0.91400  0.64479  0.85780  Biso   1.000  N
  C1       1.0000 0.52200  0.12310  0.48610  Biso   1.000  C
  C2       1.0000 0.97800  0.87690  0.98610  Biso   1.000  C
  C3       1.0000 0.47800  0.62310  0.51390  Biso   1.000  C
  C4       1.0000 0.02200  0.37690  0.01390  Biso   1.000  C
  C5       1.0000 0.47800  0.87690  0.51390  Biso   1.000  C
  C6       1.0000 0.02200  0.12310  0.01390  Biso   1.000  C
  C7       1.0000 0.52200  0.37690  0.48610  Biso   1.000  C
  C8       1.0000 0.97800  0.62310  0.98610  Biso   1.000  C
  H9       1.0000 0.50360  0.13830  0.62330  Biso   1.000  H
  H10      1.0000 0.99640  0.86170  0.12330  Biso   1.000  H
  H11      1.0000 0.49640  0.63830  0.37670  Biso   1.000  H
  H12      1.0000 0.00360  0.36170  0.87670  Biso   1.000  H
  H13      1.0000 0.49640  0.86170  0.37670  Biso   1.000  H
  H14      1.0000 0.00360  0.13830  0.87670  Biso   1.000  H
  H15      1.0000 0.50360  0.36170  0.62330  Biso   1.000  H
  H16      1.0000 0.99640  0.63830  0.12330  Biso   1.000  H
  C9       1.0000 0.59160  0.10950  0.17750  Biso   1.000  C
  C10      1.0000 0.90840  0.89050  0.67750  Biso   1.000  C
  C11      1.0000 0.40840  0.60950  0.82250  Biso   1.000  C
  C12      1.0000 0.09160  0.39050  0.32250  Biso   1.000  C
  C13      1.0000 0.40840  0.89050  0.82250  Biso   1.000  C
  C14      1.0000 0.09160  0.10950  0.32250  Biso   1.000  C
  C15      1.0000 0.59160  0.39050  0.17750  Biso   1.000  C
  C16      1.0000 0.90840  0.60950  0.67750  Biso   1.000  C
  H17      1.0000 0.63110  0.11380  0.05890  Biso   1.000  H
  H18      1.0000 0.86890  0.88620  0.55890  Biso   1.000  H
  H19      1.0000 0.36890  0.61380  0.94110  Biso   1.000  H
  H20      1.0000 0.13110  0.38620  0.44110  Biso   1.000  H
  H21      1.0000 0.36890  0.88620  0.94110  Biso   1.000  H
  H22      1.0000 0.13110  0.11380  0.44110  Biso   1.000  H
  H23      1.0000 0.63110  0.38620  0.05890  Biso   1.000  H
  H24      1.0000 0.86890  0.61380  0.55890  Biso   1.000  H
  C17      1.0000 0.63700  0.19710  0.40040  Biso   1.000  C
  C18      1.0000 0.86300  0.80290  0.90040  Biso   1.000  C
  C19      1.0000 0.36300  0.69710  0.59960  Biso   1.000  C
  C20      1.0000 0.13700  0.30290  0.09960  Biso   1.000  C
  C21      1.0000 0.36300  0.80290  0.59960  Biso   1.000  C
  C22      1.0000 0.13700  0.19710  0.09960  Biso   1.000  C
  C23      1.0000 0.63700  0.30290  0.40040  Biso   1.000  C
  C24      1.0000 0.86300  0.69710  0.90040  Biso   1.000  C
  H25      1.0000 0.68980  0.19640  0.30880  Biso   1.000  H
  H26      1.0000 0.81020  0.80360  0.80880  Biso   1.000  H
  H27      1.0000 0.31020  0.69640  0.69120  Biso   1.000  H
  H28      1.0000 0.18980  0.30360  0.19120  Biso   1.000  H
  H29      1.0000 0.31020  0.80360  0.69120  Biso   1.000  H
  H30      1.0000 0.18980  0.19640  0.19120  Biso   1.000  H
  H31      1.0000 0.68980  0.30360  0.30880  Biso   1.000  H
  H32      1.0000 0.81020  0.69640  0.80880  Biso   1.000  H
  H33      1.0000 0.65460  0.19800  0.55790  Biso   1.000  H
  H34      1.0000 0.84540  0.80200  0.05790  Biso   1.000  H
  H35      1.0000 0.34540  0.69800  0.44210  Biso   1.000  H
  H36      1.0000 0.15460  0.30200  0.94210  Biso   1.000  H
  H37      1.0000 0.34540  0.80200  0.44210  Biso   1.000  H
  H38      1.0000 0.15460  0.19800  0.94210  Biso   1.000  H
  H39      1.0000 0.65460  0.30200  0.55790  Biso   1.000  H
  H40      1.0000 0.84540  0.69800  0.05790  Biso   1.000  H
  C25      1.0000 0.58520  0.25000  0.34670  Biso   1.000  C
  C26      1.0000 0.91480  0.75000  0.84670  Biso   1.000  C
  C27      1.0000 0.41480  0.75000  0.65330  Biso   1.000  C
  C28      1.0000 0.08520  0.25000  0.15330  Biso   1.000  C
  H41      1.0000 0.56980  0.25000  0.18770  Biso   1.000  H
  H42      1.0000 0.93020  0.75000  0.68770  Biso   1.000  H
  H43      1.0000 0.43020  0.75000  0.81230  Biso   1.000  H
  H44      1.0000 0.06980  0.25000  0.31230  Biso   1.000  H
  H45      1.0000 0.53130  0.25000  0.43370  Biso   1.000  H
  H46      1.0000 0.96870  0.75000  0.93370  Biso   1.000  H
  H47      1.0000 0.46870  0.75000  0.56630  Biso   1.000  H
  H48      1.0000 0.03130  0.25000  0.06630  Biso   1.000  H
  O41      1.0000 0.43510  0.19150  0.93110  Biso   1.000  O
  O42      1.0000 0.06490  0.80850  0.43110  Biso   1.000  O
  O43      1.0000 0.56490  0.69150  0.06890  Biso   1.000  O
  O44      1.0000 0.93510  0.30850  0.56890  Biso   1.000  O
  O45      1.0000 0.56490  0.80850  0.06890  Biso   1.000  O
  O46      1.0000 0.93510  0.19150  0.56890  Biso   1.000  O
  O47      1.0000 0.43510  0.30850  0.93110  Biso   1.000  O
  O48      1.0000 0.06490  0.69150  0.43110  Biso   1.000  O
  O49      1.0000 0.29830  0.19190  0.49700  Biso   1.000  O
  O50      1.0000 0.20170  0.80810  0.99700  Biso   1.000  O
  O51      1.0000 0.70170  0.69190  0.50300  Biso   1.000  O
  O52      1.0000 0.79830  0.30810  0.00300  Biso   1.000  O
  O53      1.0000 0.70170  0.80810  0.50300  Biso   1.000  O
  O54      1.0000 0.79830  0.19190  0.00300  Biso   1.000  O
  O55      1.0000 0.29830  0.30810  0.49700  Biso   1.000  O
  O56      1.0000 0.20170  0.69190  0.99700  Biso   1.000  O
  O57      1.0000 0.35660  0.19860  0.48800  Biso   1.000  O
  O58      1.0000 0.14340  0.80140  0.98800  Biso   1.000  O
  O59      1.0000 0.64340  0.69860  0.51200  Biso   1.000  O
  O60      1.0000 0.85660  0.30140  0.01200  Biso   1.000  O
  O61      1.0000 0.64340  0.80140  0.51200  Biso   1.000  O
  O62      1.0000 0.85660  0.19860  0.01200  Biso   1.000  O
  O63      1.0000 0.35660  0.30140  0.48800  Biso   1.000  O
  O64      1.0000 0.14340  0.69860  0.98800  Biso   1.000  O
