data_image0
_cell_length_a       9.9815
_cell_length_b       27.387
_cell_length_c       11.7723
_cell_angle_alpha    90
_cell_angle_beta     113.211
_cell_angle_gamma    90

_symmetry_space_group_name_H-M    "P 1"
_symmetry_int_tables_number       1

loop_
  _symmetry_equiv_pos_as_xyz
  'x, y, z'

loop_
  _atom_site_label
  _atom_site_occupancy
  _atom_site_fract_x
  _atom_site_fract_y
  _atom_site_fract_z
  _atom_site_thermal_displace_type
  _atom_site_B_iso_or_equiv
  _atom_site_type_symbol
  Mo1      1.0000 0.03350  0.11663  0.45429  Biso   1.000  Mo
  Mo2      1.0000 0.96650  0.61663  0.54571  Biso   1.000  Mo
  Mo3      1.0000 0.96650  0.88337  0.54571  Biso   1.000  Mo
  Mo4      1.0000 0.03350  0.38337  0.45429  Biso   1.000  Mo
  Mo5      1.0000 0.89446  0.04870  0.19013  Biso   1.000  Mo
  Mo6      1.0000 0.10554  0.54870  0.80987  Biso   1.000  Mo
  Mo7      1.0000 0.10554  0.95130  0.80987  Biso   1.000  Mo
  Mo8      1.0000 0.89446  0.45130  0.19013  Biso   1.000  Mo
  Mo9      1.0000 0.87950  0.92646  0.26286  Biso   1.000  Mo
  Mo10     1.0000 0.12050  0.42646  0.73714  Biso   1.000  Mo
  Mo11     1.0000 0.12050  0.07354  0.73714  Biso   1.000  Mo
  Mo12     1.0000 0.87950  0.57354  0.26286  Biso   1.000  Mo
  Mo13     1.0000 0.18327  0.98479  0.51380  Biso   1.000  Mo
  Mo14     1.0000 0.81673  0.48479  0.48620  Biso   1.000  Mo
  Mo15     1.0000 0.81673  0.01521  0.48620  Biso   1.000  Mo
  Mo16     1.0000 0.18327  0.51521  0.51380  Biso   1.000  Mo
  Cu1      1.0000 0.42607  0.18185  0.50001  Biso   1.000  Cu
  Cu2      1.0000 0.57393  0.68185  0.49999  Biso   1.000  Cu
  Cu3      1.0000 0.57393  0.81815  0.49999  Biso   1.000  Cu
  Cu4      1.0000 0.42607  0.31815  0.50001  Biso   1.000  Cu
  O1       1.0000 0.20530  0.13860  0.50060  Biso   1.000  O
  O2       1.0000 0.79470  0.63860  0.49940  Biso   1.000  O
  O3       1.0000 0.79470  0.86140  0.49940  Biso   1.000  O
  O4       1.0000 0.20530  0.36140  0.50060  Biso   1.000  O
  O5       1.0000 0.13410  0.04250  0.55790  Biso   1.000  O
  O6       1.0000 0.86590  0.54250  0.44210  Biso   1.000  O
  O7       1.0000 0.86590  0.95750  0.44210  Biso   1.000  O
  O8       1.0000 0.13410  0.45750  0.55790  Biso   1.000  O
  O9       1.0000 0.04550  0.08264  0.31300  Biso   1.000  O
  O10      1.0000 0.95450  0.58264  0.68700  Biso   1.000  O
  O11      1.0000 0.95450  0.91736  0.68700  Biso   1.000  O
  O12      1.0000 0.04550  0.41736  0.31300  Biso   1.000  O
  O13      1.0000 0.92790  0.16460  0.38610  Biso   1.000  O
  O14      1.0000 0.07210  0.66460  0.61390  Biso   1.000  O
  O15      1.0000 0.07210  0.83540  0.61390  Biso   1.000  O
  O16      1.0000 0.92790  0.33540  0.38610  Biso   1.000  O
  O17      1.0000 0.80590  0.99150  0.20780  Biso   1.000  O
  O18      1.0000 0.19410  0.49150  0.79220  Biso   1.000  O
  O19      1.0000 0.19410  0.00850  0.79220  Biso   1.000  O
  O20      1.0000 0.80590  0.50850  0.20780  Biso   1.000  O
  O21      1.0000 0.96490  0.03580  0.08480  Biso   1.000  O
  O22      1.0000 0.03510  0.53580  0.91520  Biso   1.000  O
  O23      1.0000 0.03510  0.96420  0.91520  Biso   1.000  O
  O24      1.0000 0.96490  0.46420  0.08480  Biso   1.000  O
  O25      1.0000 0.75660  0.08860  0.12070  Biso   1.000  O
  O26      1.0000 0.24340  0.58860  0.87930  Biso   1.000  O
  O27      1.0000 0.24340  0.91140  0.87930  Biso   1.000  O
  O28      1.0000 0.75660  0.41140  0.12070  Biso   1.000  O
  O29      1.0000 0.08440  0.97460  0.35610  Biso   1.000  O
  O30      1.0000 0.91560  0.47460  0.64390  Biso   1.000  O
  O31      1.0000 0.91560  0.02540  0.64390  Biso   1.000  O
  O32      1.0000 0.08440  0.52540  0.35610  Biso   1.000  O
  O33      1.0000 0.99110  0.88420  0.39390  Biso   1.000  O
  O34      1.0000 0.00890  0.38420  0.60610  Biso   1.000  O
  O35      1.0000 0.00890  0.11580  0.60610  Biso   1.000  O
  O36      1.0000 0.99110  0.61580  0.39390  Biso   1.000  O
  O37      1.0000 0.94180  0.91070  0.15150  Biso   1.000  O
  O38      1.0000 0.05820  0.41070  0.84850  Biso   1.000  O
  O39      1.0000 0.05820  0.08930  0.84850  Biso   1.000  O
  O40      1.0000 0.94180  0.58930  0.15150  Biso   1.000  O
  O41      1.0000 0.71430  0.89730  0.21360  Biso   1.000  O
  O42      1.0000 0.28570  0.39730  0.78640  Biso   1.000  O
  O43      1.0000 0.28570  0.10270  0.78640  Biso   1.000  O
  O44      1.0000 0.71430  0.60270  0.21360  Biso   1.000  O
  O45      1.0000 0.15100  0.93690  0.60500  Biso   1.000  O
  O46      1.0000 0.84900  0.43690  0.39500  Biso   1.000  O
  O47      1.0000 0.84900  0.06310  0.39500  Biso   1.000  O
  O48      1.0000 0.15100  0.56310  0.60500  Biso   1.000  O
  O49      1.0000 0.36160  0.98660  0.53980  Biso   1.000  O
  O50      1.0000 0.63840  0.48660  0.46020  Biso   1.000  O
  O51      1.0000 0.63840  0.01340  0.46020  Biso   1.000  O
  O52      1.0000 0.36160  0.51340  0.53980  Biso   1.000  O
  N1       1.0000 0.43420  0.13440  0.37320  Biso   1.000  N
  N2       1.0000 0.56580  0.63440  0.62680  Biso   1.000  N
  N3       1.0000 0.56580  0.86560  0.62680  Biso   1.000  N
  N4       1.0000 0.43420  0.36560  0.37320  Biso   1.000  N
  N5       1.0000 0.56050  0.13390  0.35680  Biso   1.000  N
  N6       1.0000 0.43950  0.63390  0.64320  Biso   1.000  N
  N7       1.0000 0.43950  0.86610  0.64320  Biso   1.000  N
  N8       1.0000 0.56050  0.36610  0.35680  Biso   1.000  N
  N9       1.0000 0.40600  0.08620  0.21860  Biso   1.000  N
  N10      1.0000 0.59400  0.58620  0.78140  Biso   1.000  N
  N11      1.0000 0.59400  0.91380  0.78140  Biso   1.000  N
  N12      1.0000 0.40600  0.41380  0.21860  Biso   1.000  N
  N13      1.0000 0.45560  0.86400  0.36340  Biso   1.000  N
  N14      1.0000 0.54440  0.36400  0.63660  Biso   1.000  N
  N15      1.0000 0.54440  0.13600  0.63660  Biso   1.000  N
  N16      1.0000 0.45560  0.63600  0.36340  Biso   1.000  N
  N17      1.0000 0.35600  0.84830  0.25270  Biso   1.000  N
  N18      1.0000 0.64400  0.34830  0.74730  Biso   1.000  N
  N19      1.0000 0.64400  0.15170  0.74730  Biso   1.000  N
  N20      1.0000 0.35600  0.65170  0.25270  Biso   1.000  N
  N21      1.0000 0.35330  0.92810  0.25990  Biso   1.000  N
  N22      1.0000 0.64670  0.42810  0.74010  Biso   1.000  N
  N23      1.0000 0.64670  0.07190  0.74010  Biso   1.000  N
  N24      1.0000 0.35330  0.57190  0.25990  Biso   1.000  N
  N25      1.0000 0.39250  0.22490  0.62610  Biso   1.000  N
  N26      1.0000 0.60750  0.72490  0.37390  Biso   1.000  N
  N27      1.0000 0.60750  0.77510  0.37390  Biso   1.000  N
  N28      1.0000 0.39250  0.27510  0.62610  Biso   1.000  N
  N29      1.0000 0.30620  0.25000  0.75910  Biso   1.000  N
  N30      1.0000 0.69380  0.75000  0.24090  Biso   1.000  N
  N31      1.0000 0.61950  0.22540  0.51610  Biso   1.000  N
  N32      1.0000 0.38050  0.72540  0.48390  Biso   1.000  N
  N33      1.0000 0.38050  0.77460  0.48390  Biso   1.000  N
  N34      1.0000 0.61950  0.27460  0.51610  Biso   1.000  N
  N35      1.0000 0.84490  0.25000  0.57740  Biso   1.000  N
  N36      1.0000 0.15510  0.75000  0.42260  Biso   1.000  N
  N37      1.0000 0.27840  0.22490  0.37060  Biso   1.000  N
  N38      1.0000 0.72160  0.72490  0.62940  Biso   1.000  N
  N39      1.0000 0.72160  0.77510  0.62940  Biso   1.000  N
  N40      1.0000 0.27840  0.27510  0.37060  Biso   1.000  N
  N41      1.0000 0.09280  0.25000  0.20630  Biso   1.000  N
  N42      1.0000 0.90720  0.75000  0.79370  Biso   1.000  N
  C1       1.0000 0.34370  0.10500  0.29160  Biso   1.000  C
  C2       1.0000 0.65630  0.60500  0.70840  Biso   1.000  C
  C3       1.0000 0.65630  0.89500  0.70840  Biso   1.000  C
  C4       1.0000 0.34370  0.39500  0.29160  Biso   1.000  C
  H1       1.0000 0.24870  0.09790  0.28490  Biso   1.000  H
  H2       1.0000 0.75130  0.59790  0.71510  Biso   1.000  H
  H3       1.0000 0.75130  0.90210  0.71510  Biso   1.000  H
  H4       1.0000 0.24870  0.40210  0.28490  Biso   1.000  H
  C5       1.0000 0.54240  0.10560  0.26680  Biso   1.000  C
  C6       1.0000 0.45760  0.60560  0.73320  Biso   1.000  C
  C7       1.0000 0.45760  0.89440  0.73320  Biso   1.000  C
  C8       1.0000 0.54240  0.39440  0.26680  Biso   1.000  C
  H5       1.0000 0.61490  0.09880  0.23680  Biso   1.000  H
  H6       1.0000 0.38510  0.59880  0.76320  Biso   1.000  H
  H7       1.0000 0.38510  0.90120  0.76320  Biso   1.000  H
  H8       1.0000 0.61490  0.40120  0.23680  Biso   1.000  H
  C9       1.0000 0.45140  0.91310  0.36590  Biso   1.000  C
  C10      1.0000 0.54860  0.41310  0.63410  Biso   1.000  C
  C11      1.0000 0.54860  0.08690  0.63410  Biso   1.000  C
  C12      1.0000 0.45140  0.58690  0.36590  Biso   1.000  C
  H9       1.0000 0.50870  0.93320  0.43200  Biso   1.000  H
  H10      1.0000 0.49130  0.43320  0.56800  Biso   1.000  H
  H11      1.0000 0.49130  0.06680  0.56800  Biso   1.000  H
  H12      1.0000 0.50870  0.56680  0.43200  Biso   1.000  H
  C13      1.0000 0.29780  0.88780  0.19190  Biso   1.000  C
  C14      1.0000 0.70220  0.38780  0.80810  Biso   1.000  C
  C15      1.0000 0.70220  0.11220  0.80810  Biso   1.000  C
  C16      1.0000 0.29780  0.61220  0.19190  Biso   1.000  C
  H13      1.0000 0.22620  0.88820  0.11090  Biso   1.000  H
  H14      1.0000 0.77380  0.38820  0.88910  Biso   1.000  H
  H15      1.0000 0.77380  0.11180  0.88910  Biso   1.000  H
  H16      1.0000 0.22620  0.61180  0.11090  Biso   1.000  H
  C17      1.0000 0.34630  0.05190  0.11230  Biso   1.000  C
  C18      1.0000 0.65370  0.55190  0.88770  Biso   1.000  C
  C19      1.0000 0.65370  0.94810  0.88770  Biso   1.000  C
  C20      1.0000 0.34630  0.44810  0.11230  Biso   1.000  C
  H17      1.0000 0.38010  0.06210  0.04830  Biso   1.000  H
  H18      1.0000 0.61990  0.56210  0.95170  Biso   1.000  H
  H19      1.0000 0.61990  0.93790  0.95170  Biso   1.000  H
  H20      1.0000 0.38010  0.43790  0.04830  Biso   1.000  H
  H21      1.0000 0.23970  0.05430  0.07720  Biso   1.000  H
  H22      1.0000 0.76030  0.55430  0.92280  Biso   1.000  H
  H23      1.0000 0.76030  0.94570  0.92280  Biso   1.000  H
  H24      1.0000 0.23970  0.44570  0.07720  Biso   1.000  H
  C21      1.0000 0.38830  0.99980  0.14450  Biso   1.000  C
  C22      1.0000 0.61170  0.49980  0.85550  Biso   1.000  C
  C23      1.0000 0.61170  0.00020  0.85550  Biso   1.000  C
  C24      1.0000 0.38830  0.50020  0.14450  Biso   1.000  C
  H25      1.0000 0.49400  0.99760  0.19050  Biso   1.000  H
  H26      1.0000 0.50600  0.49760  0.80950  Biso   1.000  H
  H27      1.0000 0.50600  0.00240  0.80950  Biso   1.000  H
  H28      1.0000 0.49400  0.50240  0.19050  Biso   1.000  H
  H29      1.0000 0.36230  0.98060  0.06860  Biso   1.000  H
  H30      1.0000 0.63770  0.48060  0.93140  Biso   1.000  H
  H31      1.0000 0.63770  0.01940  0.93140  Biso   1.000  H
  H32      1.0000 0.36230  0.51940  0.06860  Biso   1.000  H
  C25      1.0000 0.31040  0.97880  0.22320  Biso   1.000  C
  C26      1.0000 0.68960  0.47880  0.77680  Biso   1.000  C
  C27      1.0000 0.68960  0.02120  0.77680  Biso   1.000  C
  C28      1.0000 0.31040  0.52120  0.22320  Biso   1.000  C
  H33      1.0000 0.33370  0.99890  0.29740  Biso   1.000  H
  H34      1.0000 0.66630  0.49890  0.70260  Biso   1.000  H
  H35      1.0000 0.66630  0.00110  0.70260  Biso   1.000  H
  H36      1.0000 0.33370  0.50110  0.29740  Biso   1.000  H
  H37      1.0000 0.20480  0.98030  0.17590  Biso   1.000  H
  H38      1.0000 0.79520  0.48030  0.82410  Biso   1.000  H
  H39      1.0000 0.79520  0.01970  0.82410  Biso   1.000  H
  H40      1.0000 0.20480  0.51970  0.17590  Biso   1.000  H
  C29      1.0000 0.34150  0.21050  0.70750  Biso   1.000  C
  C30      1.0000 0.65850  0.71050  0.29250  Biso   1.000  C
  C31      1.0000 0.65850  0.78950  0.29250  Biso   1.000  C
  C32      1.0000 0.34150  0.28950  0.70750  Biso   1.000  C
  H41      1.0000 0.33100  0.17780  0.72690  Biso   1.000  H
  H42      1.0000 0.66900  0.67780  0.27310  Biso   1.000  H
  H43      1.0000 0.66900  0.82220  0.27310  Biso   1.000  H
  H44      1.0000 0.33100  0.32220  0.72690  Biso   1.000  H
  C33      1.0000 0.75420  0.21180  0.55120  Biso   1.000  C
  C34      1.0000 0.24580  0.71180  0.44880  Biso   1.000  C
  C35      1.0000 0.24580  0.78820  0.44880  Biso   1.000  C
  C36      1.0000 0.75420  0.28820  0.55120  Biso   1.000  C
  H45      1.0000 0.78450  0.17900  0.55760  Biso   1.000  H
  H46      1.0000 0.21550  0.67900  0.44240  Biso   1.000  H
  H47      1.0000 0.21550  0.82100  0.44240  Biso   1.000  H
  H48      1.0000 0.78450  0.32100  0.55760  Biso   1.000  H
  C37      1.0000 0.21500  0.25000  0.83150  Biso   1.000  C
  C38      1.0000 0.78500  0.75000  0.16850  Biso   1.000  C
  H49      1.0000 0.21250  0.28250  0.86080  Biso   1.000  H
  H50      1.0000 0.78750  0.78250  0.13920  Biso   1.000  H
  H51      1.0000 0.78750  0.71750  0.13920  Biso   1.000  H
  H52      1.0000 0.21250  0.21750  0.86080  Biso   1.000  H
  H53      1.0000 0.25940  0.22930  0.90220  Biso   1.000  H
  H54      1.0000 0.74060  0.72930  0.09780  Biso   1.000  H
  H55      1.0000 0.74060  0.77070  0.09780  Biso   1.000  H
  H56      1.0000 0.25940  0.27070  0.90220  Biso   1.000  H
  C39      1.0000 0.06330  0.23230  0.75870  Biso   1.000  C
  C40      1.0000 0.93670  0.73230  0.24130  Biso   1.000  C
  C41      1.0000 0.93670  0.76770  0.24130  Biso   1.000  C
  C42      1.0000 0.06330  0.26770  0.75870  Biso   1.000  C
  H57      1.0000 0.00230  0.25000  0.79750  Biso   1.000  H
  H58      1.0000 0.99770  0.75000  0.20250  Biso   1.000  H
  H59      1.0000 0.06010  0.19730  0.76080  Biso   1.000  H
  H60      1.0000 0.93990  0.69730  0.23920  Biso   1.000  H
  H61      1.0000 0.93990  0.80270  0.23920  Biso   1.000  H
  H62      1.0000 0.06010  0.30270  0.76080  Biso   1.000  H
  C43      1.0000 0.00430  0.25000  0.62800  Biso   1.000  C
  C44      1.0000 0.99570  0.75000  0.37200  Biso   1.000  C
  H63      1.0000 0.03910  0.28240  0.62420  Biso   1.000  H
  H64      1.0000 0.96090  0.78240  0.37580  Biso   1.000  H
  H65      1.0000 0.96090  0.71760  0.37580  Biso   1.000  H
  H66      1.0000 0.03910  0.21760  0.62420  Biso   1.000  H
  H67      1.0000 0.03900  0.22880  0.58090  Biso   1.000  H
  H68      1.0000 0.96100  0.72880  0.41910  Biso   1.000  H
  H69      1.0000 0.96100  0.77120  0.41910  Biso   1.000  H
  H70      1.0000 0.03900  0.27120  0.58090  Biso   1.000  H
  C45      1.0000 0.16710  0.21030  0.27510  Biso   1.000  C
  C46      1.0000 0.83290  0.71030  0.72490  Biso   1.000  C
  C47      1.0000 0.83290  0.78970  0.72490  Biso   1.000  C
  C48      1.0000 0.16710  0.28970  0.27510  Biso   1.000  C
  H71      1.0000 0.14050  0.17750  0.25530  Biso   1.000  H
  H72      1.0000 0.85950  0.67750  0.74470  Biso   1.000  H
  H73      1.0000 0.85950  0.82250  0.74470  Biso   1.000  H
  H74      1.0000 0.14050  0.32250  0.25530  Biso   1.000  H
  C49      1.0000 0.96310  0.25000  0.09290  Biso   1.000  C
  C50      1.0000 0.03690  0.75000  0.90710  Biso   1.000  C
  H75      1.0000 0.98620  0.22950  0.03750  Biso   1.000  H
  H76      1.0000 0.01380  0.72950  0.96250  Biso   1.000  H
  H77      1.0000 0.01380  0.77050  0.96250  Biso   1.000  H
  H78      1.0000 0.98620  0.27050  0.03750  Biso   1.000  H
  H79      1.0000 0.95540  0.28260  0.06090  Biso   1.000  H
  H80      1.0000 0.04460  0.78260  0.93910  Biso   1.000  H
  H81      1.0000 0.04460  0.71740  0.93910  Biso   1.000  H
  H82      1.0000 0.95540  0.21740  0.06090  Biso   1.000  H
  C51      1.0000 0.81270  0.23360  0.07750  Biso   1.000  C
  C52      1.0000 0.18730  0.73360  0.92250  Biso   1.000  C
  C53      1.0000 0.18730  0.76640  0.92250  Biso   1.000  C
  C54      1.0000 0.81270  0.26640  0.07750  Biso   1.000  C
  H83      1.0000 0.78330  0.20540  0.02510  Biso   1.000  H
  H84      1.0000 0.21670  0.70540  0.97490  Biso   1.000  H
  H85      1.0000 0.21670  0.79460  0.97490  Biso   1.000  H
  H86      1.0000 0.78330  0.29460  0.02510  Biso   1.000  H
  H87      1.0000 0.74750  0.25980  0.03640  Biso   1.000  H
  H88      1.0000 0.25250  0.75980  0.96360  Biso   1.000  H
  H89      1.0000 0.25250  0.74020  0.96360  Biso   1.000  H
  H90      1.0000 0.74750  0.24020  0.03640  Biso   1.000  H
  C55      1.0000 0.79210  0.22610  0.19440  Biso   1.000  C
  C56      1.0000 0.20790  0.72610  0.80560  Biso   1.000  C
  C57      1.0000 0.20790  0.77390  0.80560  Biso   1.000  C
  C58      1.0000 0.79210  0.27390  0.19440  Biso   1.000  C
  H91      1.0000 0.83470  0.25000  0.25320  Biso   1.000  H
  H92      1.0000 0.16530  0.75000  0.74680  Biso   1.000  H
  H93      1.0000 0.84040  0.19600  0.22880  Biso   1.000  H
  H94      1.0000 0.15960  0.69600  0.77120  Biso   1.000  H
  H95      1.0000 0.15960  0.80400  0.77120  Biso   1.000  H
  H96      1.0000 0.84040  0.30400  0.22880  Biso   1.000  H
  N43      1.0000 0.63720  0.22170  0.16440  Biso   1.000  N
  N44      1.0000 0.36280  0.72170  0.83560  Biso   1.000  N
  N45      1.0000 0.36280  0.77830  0.83560  Biso   1.000  N
  N46      1.0000 0.63720  0.27830  0.16440  Biso   1.000  N
  C59      1.0000 0.55560  0.25000  0.20620  Biso   1.000  C
  C60      1.0000 0.44440  0.75000  0.79380  Biso   1.000  C
  H97      1.0000 0.59290  0.27730  0.26070  Biso   1.000  H
  H98      1.0000 0.40710  0.77730  0.73930  Biso   1.000  H
  H99      1.0000 0.40710  0.72270  0.73930  Biso   1.000  H
  H100     1.0000 0.59290  0.22270  0.26070  Biso   1.000  H
  N47      1.0000 0.42020  0.23510  0.16020  Biso   1.000  N
  N48      1.0000 0.57980  0.73510  0.83980  Biso   1.000  N
  N49      1.0000 0.57980  0.76490  0.83980  Biso   1.000  N
  N50      1.0000 0.42020  0.26490  0.16020  Biso   1.000  N
  N51      1.0000 0.41290  0.19550  0.08570  Biso   1.000  N
  N52      1.0000 0.58710  0.69550  0.91430  Biso   1.000  N
  N53      1.0000 0.58710  0.80450  0.91430  Biso   1.000  N
  N54      1.0000 0.41290  0.30450  0.08570  Biso   1.000  N
  C61      1.0000 0.54450  0.18830  0.09010  Biso   1.000  C
  C62      1.0000 0.45550  0.68830  0.90990  Biso   1.000  C
  C63      1.0000 0.45550  0.81170  0.90990  Biso   1.000  C
  C64      1.0000 0.54450  0.31170  0.09010  Biso   1.000  C
  H101     1.0000 0.57010  0.16250  0.04750  Biso   1.000  H
  H102     1.0000 0.42990  0.66250  0.95250  Biso   1.000  H
  H103     1.0000 0.42990  0.83750  0.95250  Biso   1.000  H
  H104     1.0000 0.57010  0.33750  0.04750  Biso   1.000  H
  O53      1.0000 0.75710  0.25000  0.82060  Biso   1.000  O
  O54      1.0000 0.24290  0.75000  0.17940  Biso   1.000  O
  H105     1.0000 0.70680  0.22480  0.78840  Biso   1.000  H
  H106     1.0000 0.29320  0.72480  0.21160  Biso   1.000  H
  H107     1.0000 0.29320  0.77520  0.21160  Biso   1.000  H
  H108     1.0000 0.70680  0.27520  0.78840  Biso   1.000  H
  O55      1.0000 0.13620  0.15350  0.04970  Biso   1.000  O
  O56      1.0000 0.86380  0.65350  0.95030  Biso   1.000  O
  O57      1.0000 0.86380  0.84650  0.95030  Biso   1.000  O
  O58      1.0000 0.13620  0.34650  0.04970  Biso   1.000  O
  O59      1.0000 0.05300  0.13980  0.06980  Biso   1.000  O
  O60      1.0000 0.94700  0.63980  0.93020  Biso   1.000  O
  O61      1.0000 0.94700  0.86020  0.93020  Biso   1.000  O
  O62      1.0000 0.05300  0.36020  0.06980  Biso   1.000  O
  O63      1.0000 0.48450  0.14790  0.97630  Biso   1.000  O
  O64      1.0000 0.51550  0.64790  0.02370  Biso   1.000  O
  O65      1.0000 0.51550  0.85210  0.02370  Biso   1.000  O
  O66      1.0000 0.48450  0.35210  0.97630  Biso   1.000  O
