data_image0
_cell_length_a       8.9924
_cell_length_b       10.4123
_cell_length_c       12.1337
_cell_angle_alpha    70.773
_cell_angle_beta     71.294
_cell_angle_gamma    86.097

_symmetry_space_group_name_H-M    "P 1"
_symmetry_int_tables_number       1

loop_
  _symmetry_equiv_pos_as_xyz
  'x, y, z'

loop_
  _atom_site_label
  _atom_site_occupancy
  _atom_site_fract_x
  _atom_site_fract_y
  _atom_site_fract_z
  _atom_site_thermal_displace_type
  _atom_site_B_iso_or_equiv
  _atom_site_type_symbol
  Mo1      1.0000 0.63884  0.42400  0.28624  Biso   1.000  Mo
  Mo2      1.0000 0.36116  0.57600  0.71376  Biso   1.000  Mo
  Mo3      1.0000 0.58592  0.74917  0.19079  Biso   1.000  Mo
  Mo4      1.0000 0.41408  0.25083  0.80921  Biso   1.000  Mo
  Mo5      1.0000 0.27885  0.69996  0.43923  Biso   1.000  Mo
  Mo6      1.0000 0.72115  0.30004  0.56077  Biso   1.000  Mo
  Mo7      1.0000 0.34375  0.38221  0.52876  Biso   1.000  Mo
  Mo8      1.0000 0.65625  0.61779  0.47124  Biso   1.000  Mo
  Cu1      1.0000 0.50000  0.00000  0.50000  Biso   1.000  Cu
  Cu2      1.0000 0.73025  0.08440  0.20942  Biso   1.000  Cu
  Cu3      1.0000 0.26975  0.91560  0.79058  Biso   1.000  Cu
  Cu4      1.0000 0.00000  0.00000  0.00000  Biso   1.000  Cu
  O1       1.0000 0.70380  0.02040  0.38150  Biso   1.000  O
  O2       1.0000 0.29620  0.97960  0.61850  Biso   1.000  O
  H1       1.0000 0.75770  0.07460  0.39450  Biso   1.000  H
  H2       1.0000 0.24230  0.92540  0.60550  Biso   1.000  H
  O3       1.0000 0.93180  0.01360  0.16130  Biso   1.000  O
  O4       1.0000 0.06820  0.98640  0.83870  Biso   1.000  O
  H3       1.0000 0.95120  0.94580  0.21630  Biso   1.000  H
  H4       1.0000 0.04880  0.05420  0.78370  Biso   1.000  H
  O5       1.0000 0.53440  0.30000  0.45650  Biso   1.000  O
  O6       1.0000 0.46560  0.70000  0.54350  Biso   1.000  O
  O7       1.0000 0.79010  0.32520  0.24090  Biso   1.000  O
  O8       1.0000 0.20990  0.67480  0.75910  Biso   1.000  O
  O9       1.0000 0.72440  0.59980  0.18330  Biso   1.000  O
  O10      1.0000 0.27560  0.40020  0.81670  Biso   1.000  O
  O11      1.0000 0.47580  0.55630  0.38790  Biso   1.000  O
  O12      1.0000 0.52420  0.44370  0.61210  Biso   1.000  O
  O13      1.0000 0.50620  0.40360  0.21890  Biso   1.000  O
  O14      1.0000 0.49380  0.59640  0.78110  Biso   1.000  O
  O15      1.0000 0.70040  0.88790  0.08490  Biso   1.000  O
  O16      1.0000 0.29960  0.11210  0.91510  Biso   1.000  O
  O17      1.0000 0.43390  0.82050  0.30330  Biso   1.000  O
  O18      1.0000 0.56610  0.17950  0.69670  Biso   1.000  O
  O19      1.0000 0.47000  0.71130  0.11780  Biso   1.000  O
  O20      1.0000 0.53000  0.28870  0.88220  Biso   1.000  O
  O21      1.0000 0.17380  0.81090  0.51000  Biso   1.000  O
  O22      1.0000 0.82620  0.18910  0.49000  Biso   1.000  O
  O23      1.0000 0.24140  0.53200  0.58430  Biso   1.000  O
  O24      1.0000 0.75860  0.46800  0.41570  Biso   1.000  O
  O25      1.0000 0.16330  0.65900  0.36900  Biso   1.000  O
  O26      1.0000 0.83670  0.34100  0.63100  Biso   1.000  O
  O27      1.0000 0.28630  0.25570  0.67360  Biso   1.000  O
  O28      1.0000 0.71370  0.74430  0.32640  Biso   1.000  O
  O29      1.0000 0.22240  0.35290  0.45800  Biso   1.000  O
  O30      1.0000 0.77760  0.64710  0.54200  Biso   1.000  O
  N1       1.0000 0.40950  0.08380  0.36550  Biso   1.000  N
  N2       1.0000 0.59050  0.91620  0.63450  Biso   1.000  N
  N3       1.0000 0.50250  0.10960  0.24490  Biso   1.000  N
  N4       1.0000 0.49750  0.89040  0.75510  Biso   1.000  N
  N5       1.0000 0.26520  0.16790  0.24730  Biso   1.000  N
  N6       1.0000 0.73480  0.83210  0.75270  Biso   1.000  N
  N7       1.0000 0.09070  0.81780  0.05170  Biso   1.000  N
  N8       1.0000 0.90930  0.18220  0.94830  Biso   1.000  N
  N9       1.0000 0.21700  0.79140  0.96350  Biso   1.000  N
  N10      1.0000 0.78300  0.20860  0.03650  Biso   1.000  N
  N11      1.0000 0.15010  0.60790  0.12290  Biso   1.000  N
  N12      1.0000 0.84990  0.39210  0.87710  Biso   1.000  N
  C1       1.0000 0.27000  0.12040  0.36380  Biso   1.000  C
  C2       1.0000 0.73000  0.87960  0.63620  Biso   1.000  C
  H5       1.0000 0.18350  0.11490  0.43410  Biso   1.000  H
  H6       1.0000 0.81650  0.88510  0.56590  Biso   1.000  H
  C3       1.0000 0.41440  0.15930  0.17610  Biso   1.000  C
  C4       1.0000 0.58560  0.84070  0.82390  Biso   1.000  C
  H7       1.0000 0.44860  0.18570  0.08970  Biso   1.000  H
  H8       1.0000 0.55140  0.81430  0.91030  Biso   1.000  H
  C5       1.0000 0.05420  0.70690  0.14580  Biso   1.000  C
  C6       1.0000 0.94580  0.29310  0.85420  Biso   1.000  C
  H9       1.0000 0.97210  0.69740  0.21950  Biso   1.000  H
  H10      1.0000 0.02790  0.30260  0.78050  Biso   1.000  H
  C7       1.0000 0.25130  0.66610  0.00800  Biso   1.000  C
  C8       1.0000 0.74870  0.33390  0.99200  Biso   1.000  C
  H11      1.0000 0.33420  0.62190  0.96680  Biso   1.000  H
  H12      1.0000 0.66580  0.37810  0.03320  Biso   1.000  H
  C9       1.0000 0.13120  0.22290  0.20490  Biso   1.000  C
  C10      1.0000 0.86880  0.77710  0.79510  Biso   1.000  C
  H13      1.0000 0.03720  0.21110  0.27680  Biso   1.000  H
  H14      1.0000 0.96280  0.78890  0.72320  Biso   1.000  H
  H15      1.0000 0.11270  0.17040  0.15640  Biso   1.000  H
  H16      1.0000 0.88730  0.82960  0.84360  Biso   1.000  H
  C11      1.0000 0.15420  0.37090  0.12830  Biso   1.000  C
  C12      1.0000 0.84580  0.62910  0.87170  Biso   1.000  C
  H17      1.0000 0.07350  0.39470  0.08750  Biso   1.000  H
  H18      1.0000 0.92650  0.60530  0.91250  Biso   1.000  H
  H19      1.0000 0.25680  0.38520  0.06420  Biso   1.000  H
  H20      1.0000 0.74320  0.61480  0.93580  Biso   1.000  H
  C13      1.0000 0.14610  0.46480  0.20170  Biso   1.000  C
  C14      1.0000 0.85390  0.53520  0.79830  Biso   1.000  C
  H21      1.0000 0.04900  0.44450  0.27170  Biso   1.000  H
  H22      1.0000 0.95100  0.55550  0.72830  Biso   1.000  H
  H23      1.0000 0.23520  0.45060  0.23370  Biso   1.000  H
  H24      1.0000 0.76480  0.54940  0.76630  Biso   1.000  H
  O31      1.0000 0.01600  0.10600  0.63400  Biso   1.000  O
  O32      1.0000 0.98400  0.89400  0.36600  Biso   1.000  O
