data_image0
_cell_length_a       9.3742
_cell_length_b       11.3083
_cell_length_c       11.9371
_cell_angle_alpha    73.957
_cell_angle_beta     68.061
_cell_angle_gamma    67.202

_symmetry_space_group_name_H-M    "P 1"
_symmetry_int_tables_number       1

loop_
  _symmetry_equiv_pos_as_xyz
  'x, y, z'

loop_
  _atom_site_label
  _atom_site_occupancy
  _atom_site_fract_x
  _atom_site_fract_y
  _atom_site_fract_z
  _atom_site_thermal_displace_type
  _atom_site_B_iso_or_equiv
  _atom_site_type_symbol
  Mo1      1.0000 0.26004  0.54831  0.16683  Biso   1.000  Mo
  Mo2      1.0000 0.73996  0.45169  0.83317  Biso   1.000  Mo
  Mo3      1.0000 0.19262  0.50586  0.46740  Biso   1.000  Mo
  Mo4      1.0000 0.80738  0.49414  0.53260  Biso   1.000  Mo
  Mo5      1.0000 0.15388  0.25849  0.40211  Biso   1.000  Mo
  Mo6      1.0000 0.84612  0.74151  0.59789  Biso   1.000  Mo
  Mo7      1.0000 0.01925  0.21729  0.69807  Biso   1.000  Mo
  Mo8      1.0000 0.98075  0.78271  0.30193  Biso   1.000  Mo
  Cu1      1.0000 0.61535  0.66804  0.05770  Biso   1.000  Cu
  Cu2      1.0000 0.38465  0.33196  0.94230  Biso   1.000  Cu
  Cu3      1.0000 0.50000  0.00000  0.00000  Biso   1.000  Cu
  O1       1.0000 0.60000  0.82930  0.94900  Biso   1.000  O
  O2       1.0000 0.40000  0.17070  0.05100  Biso   1.000  O
  H1       1.0000 0.68740  0.82540  0.89050  Biso   1.000  H
  H2       1.0000 0.31260  0.17460  0.10950  Biso   1.000  H
  O3       1.0000 0.36010  0.65400  0.06950  Biso   1.000  O
  O4       1.0000 0.63990  0.34600  0.93050  Biso   1.000  O
  O5       1.0000 0.21020  0.41720  0.32340  Biso   1.000  O
  O6       1.0000 0.78980  0.58280  0.67660  Biso   1.000  O
  O7       1.0000 0.21750  0.63260  0.32320  Biso   1.000  O
  O8       1.0000 0.78250  0.36740  0.67680  Biso   1.000  O
  O9       1.0000 0.28300  0.44020  0.07560  Biso   1.000  O
  O10      1.0000 0.71700  0.55980  0.92440  Biso   1.000  O
  O11      1.0000 0.08540  0.37640  0.54520  Biso   1.000  O
  O12      1.0000 0.91460  0.62360  0.45480  Biso   1.000  O
  O13      1.0000 0.10520  0.60110  0.58170  Biso   1.000  O
  O14      1.0000 0.89480  0.39890  0.41830  Biso   1.000  O
  O15      1.0000 0.38620  0.43050  0.47350  Biso   1.000  O
  O16      1.0000 0.61380  0.56950  0.52650  Biso   1.000  O
  O17      1.0000 0.03860  0.17270  0.54760  Biso   1.000  O
  O18      1.0000 0.96140  0.82730  0.45240  Biso   1.000  O
  O19      1.0000 0.13570  0.20940  0.28450  Biso   1.000  O
  O20      1.0000 0.86430  0.79060  0.71550  Biso   1.000  O
  O21      1.0000 0.34500  0.16230  0.40890  Biso   1.000  O
  O22      1.0000 0.65500  0.83770  0.59110  Biso   1.000  O
  O23      1.0000 0.95460  0.34940  0.80480  Biso   1.000  O
  O24      1.0000 0.04540  0.65060  0.19520  Biso   1.000  O
  O25      1.0000 0.92300  0.11300  0.79700  Biso   1.000  O
  O26      1.0000 0.07700  0.88700  0.20300  Biso   1.000  O
  O27      1.0000 0.21260  0.14910  0.70640  Biso   1.000  O
  O28      1.0000 0.78740  0.85090  0.29360  Biso   1.000  O
  N1       1.0000 0.50830  0.43820  0.19200  Biso   1.000  N
  N2       1.0000 0.49170  0.56180  0.80800  Biso   1.000  N
  N3       1.0000 0.62300  0.49600  0.17400  Biso   1.000  N
  N4       1.0000 0.37700  0.50400  0.82600  Biso   1.000  N
  N5       1.0000 0.71240  0.29020  0.24670  Biso   1.000  N
  N6       1.0000 0.28760  0.70980  0.75330  Biso   1.000  N
  N7       1.0000 0.48630  0.22710  0.80770  Biso   1.000  N
  N8       1.0000 0.51370  0.77290  0.19230  Biso   1.000  N
  N9       1.0000 0.52800  0.09490  0.83340  Biso   1.000  N
  N10      1.0000 0.47200  0.90510  0.16660  Biso   1.000  N
  N11      1.0000 0.57440  0.15060  0.63490  Biso   1.000  N
  N12      1.0000 0.42560  0.84940  0.36510  Biso   1.000  N
  C1       1.0000 0.56680  0.31670  0.23410  Biso   1.000  C
  C2       1.0000 0.43320  0.68330  0.76590  Biso   1.000  C
  H3       1.0000 0.51360  0.25500  0.25340  Biso   1.000  H
  H4       1.0000 0.48640  0.74500  0.74660  Biso   1.000  H
  C3       1.0000 0.74420  0.40640  0.20630  Biso   1.000  C
  C4       1.0000 0.25580  0.59360  0.79370  Biso   1.000  C
  H5       1.0000 0.83940  0.41900  0.20250  Biso   1.000  H
  H6       1.0000 0.16060  0.58100  0.79750  Biso   1.000  H
  C5       1.0000 0.51550  0.25740  0.68760  Biso   1.000  C
  C6       1.0000 0.48450  0.74260  0.31240  Biso   1.000  C
  H7       1.0000 0.49740  0.34260  0.64480  Biso   1.000  H
  H8       1.0000 0.50260  0.65740  0.35520  Biso   1.000  H
  C7       1.0000 0.58090  0.05090  0.72940  Biso   1.000  C
  C8       1.0000 0.41910  0.94910  0.27060  Biso   1.000  C
  H9       1.0000 0.61790  0.96260  0.72150  Biso   1.000  H
  H10      1.0000 0.38210  0.03740  0.27850  Biso   1.000  H
  C9       1.0000 0.81270  0.16510  0.29890  Biso   1.000  C
  C10      1.0000 0.18730  0.83490  0.70110  Biso   1.000  C
  H11      1.0000 0.92760  0.15500  0.25590  Biso   1.000  H
  H12      1.0000 0.07240  0.84500  0.74410  Biso   1.000  H
  H13      1.0000 0.78890  0.09390  0.28550  Biso   1.000  H
  H14      1.0000 0.21110  0.90610  0.71450  Biso   1.000  H
  C11      1.0000 0.78330  0.15580  0.43180  Biso   1.000  C
  C12      1.0000 0.21670  0.84420  0.56820  Biso   1.000  C
  H15      1.0000 0.79450  0.23230  0.44660  Biso   1.000  H
  H16      1.0000 0.20550  0.76770  0.55340  Biso   1.000  H
  H17      1.0000 0.86510  0.07880  0.45860  Biso   1.000  H
  H18      1.0000 0.13490  0.92120  0.54140  Biso   1.000  H
  C13      1.0000 0.61260  0.14660  0.50700  Biso   1.000  C
  C14      1.0000 0.38740  0.85340  0.49300  Biso   1.000  C
  H19      1.0000 0.53180  0.21860  0.47400  Biso   1.000  H
  H20      1.0000 0.46820  0.78140  0.52600  Biso   1.000  H
  H21      1.0000 0.60570  0.06540  0.49840  Biso   1.000  H
  H22      1.0000 0.39430  0.93460  0.50160  Biso   1.000  H
  O29      1.0000 0.89550  0.62640  0.04140  Biso   1.000  O
  O30      1.0000 0.10450  0.37360  0.95860  Biso   1.000  O
  O31      1.0000 0.74600  0.09100  0.08300  Biso   1.000  O
  O32      1.0000 0.25400  0.90900  0.91700  Biso   1.000  O
  O33      1.0000 0.76500  0.98700  0.02000  Biso   1.000  O
  O34      1.0000 0.23500  0.01300  0.98000  Biso   1.000  O
  O35      1.0000 0.94100  0.87400  0.95900  Biso   1.000  O
  O36      1.0000 0.05900  0.12600  0.04100  Biso   1.000  O
