data_image0
_cell_length_a       7.8264
_cell_length_b       10.0763
_cell_length_c       14.114
_cell_angle_alpha    70.216
_cell_angle_beta     75.354
_cell_angle_gamma    81.848

_symmetry_space_group_name_H-M    "P 1"
_symmetry_int_tables_number       1

loop_
  _symmetry_equiv_pos_as_xyz
  'x, y, z'

loop_
  _atom_site_label
  _atom_site_occupancy
  _atom_site_fract_x
  _atom_site_fract_y
  _atom_site_fract_z
  _atom_site_thermal_displace_type
  _atom_site_B_iso_or_equiv
  _atom_site_type_symbol
  Cu1      1.0000 0.18916  0.90013  0.14747  Biso   1.000  Cu
  Cu2      1.0000 0.53070  0.17555  0.60071  Biso   1.000  Cu
  P1       1.0000 0.56490  0.40400  0.14875  Biso   1.000  P
  P2       1.0000 0.08530  0.68843  0.62659  Biso   1.000  P
  F1       1.0000 0.71130  0.45500  0.04450  Biso   1.000  F
  F2       1.0000 0.41780  0.48980  0.08660  Biso   1.000  F
  F3       1.0000 0.60450  0.54280  0.16670  Biso   1.000  F
  F4       1.0000 0.71120  0.32150  0.20840  Biso   1.000  F
  F5       1.0000 0.54860  0.27690  0.11300  Biso   1.000  F
  F6       1.0000 0.42450  0.35620  0.24510  Biso   1.000  F
  F7       1.0000 0.19950  0.75600  0.51370  Biso   1.000  F
  F8       1.0000 0.91140  0.76950  0.59300  Biso   1.000  F
  F9       1.0000 0.11610  0.81930  0.65830  Biso   1.000  F
  F10      1.0000 0.25960  0.60570  0.66310  Biso   1.000  F
  F11      1.0000 0.05310  0.55680  0.59560  Biso   1.000  F
  F12      1.0000 0.97100  0.61620  0.74010  Biso   1.000  F
  O1       1.0000 0.19530  0.96870  0.25780  Biso   1.000  O
  O2       1.0000 0.90380  0.96010  0.27930  Biso   1.000  O
  O3       1.0000 0.19420  0.17550  0.63800  Biso   1.000  O
  O4       1.0000 0.48370  0.83620  0.11970  Biso   1.000  O
  O5       1.0000 0.40790  0.13570  0.51140  Biso   1.000  O
  O6       1.0000 0.71810  0.00180  0.13210  Biso   1.000  O
  N1       1.0000 0.12150  0.70170  0.22830  Biso   1.000  N
  N2       1.0000 0.12270  0.84760  0.04340  Biso   1.000  N
  N3       1.0000 0.20600  0.08770  0.03400  Biso   1.000  N
  N4       1.0000 0.51820  0.98390  0.71090  Biso   1.000  N
  N5       1.0000 0.59880  0.21810  0.71070  Biso   1.000  N
  N6       1.0000 0.54950  0.38790  0.53450  Biso   1.000  N
  N7       1.0000 0.79780  0.12350  0.51970  Biso   1.000  N
  C1       1.0000 0.11900  0.63610  0.32740  Biso   1.000  C
  H1       1.0000 0.15940  0.68260  0.36530  Biso   1.000  H
  C2       1.0000 0.05930  0.50190  0.37720  Biso   1.000  C
  H2       1.0000 0.05960  0.45610  0.44800  Biso   1.000  H
  C3       1.0000 0.99910  0.43560  0.32190  Biso   1.000  C
  H3       1.0000 0.95700  0.34350  0.35450  Biso   1.000  H
  C4       1.0000 0.00040  0.50310  0.22050  Biso   1.000  C
  H4       1.0000 0.95800  0.45930  0.18170  Biso   1.000  H
  C5       1.0000 0.06360  0.63490  0.17510  Biso   1.000  C
  C6       1.0000 0.06640  0.72000  0.06690  Biso   1.000  C
  C7       1.0000 0.01460  0.68090  0.99360  Biso   1.000  C
  H5       1.0000 0.97580  0.58920  0.00940  Biso   1.000  H
  C8       1.0000 0.02100  0.77950  0.89680  Biso   1.000  C
  H6       1.0000 0.98870  0.75460  0.84470  Biso   1.000  H
  C9       1.0000 0.07470  0.91580  0.87470  Biso   1.000  C
  H7       1.0000 0.07820  0.98400  0.80860  Biso   1.000  H
  C10      1.0000 0.12230  0.94800  0.95160  Biso   1.000  C
  C11      1.0000 0.17130  0.08660  0.94580  Biso   1.000  C
  C12      1.0000 0.17350  0.20750  0.85980  Biso   1.000  C
  H8       1.0000 0.14970  0.20440  0.79790  Biso   1.000  H
  C13      1.0000 0.21190  0.33200  0.86870  Biso   1.000  C
  H9       1.0000 0.21470  0.41660  0.81200  Biso   1.000  H
  C14      1.0000 0.24610  0.33480  0.95870  Biso   1.000  C
  H10      1.0000 0.27240  0.42030  0.96490  Biso   1.000  H
  C15      1.0000 0.24130  0.21020  0.04010  Biso   1.000  C
  H11      1.0000 0.26400  0.21160  0.10270  Biso   1.000  H
  C16      1.0000 0.03440  0.98660  0.30260  Biso   1.000  C
  C17      1.0000 0.00600  0.04610  0.38980  Biso   1.000  C
  C18      1.0000 0.83420  0.07510  0.43980  Biso   1.000  C
  H12      1.0000 0.73850  0.05940  0.41550  Biso   1.000  H
  C19      1.0000 0.93380  0.14130  0.55350  Biso   1.000  C
  H13      1.0000 0.90880  0.17170  0.61260  Biso   1.000  H
  C20      1.0000 0.10960  0.11850  0.50850  Biso   1.000  C
  C21      1.0000 0.14670  0.07010  0.42450  Biso   1.000  C
  H14      1.0000 0.26560  0.05340  0.39120  Biso   1.000  H
  C22      1.0000 0.24430  0.14510  0.55730  Biso   1.000  C
  C23      1.0000 0.47580  0.86550  0.70280  Biso   1.000  C
  H15      1.0000 0.44370  0.86840  0.64150  Biso   1.000  H
  C24      1.0000 0.47730  0.73910  0.78090  Biso   1.000  C
  H16      1.0000 0.44190  0.65670  0.77460  Biso   1.000  H
  C25      1.0000 0.53030  0.73230  0.86850  Biso   1.000  C
  H17      1.0000 0.53650  0.64530  0.92230  Biso   1.000  H
  C26      1.0000 0.57350  0.85420  0.87510  Biso   1.000  C
  H18      1.0000 0.60850  0.85290  0.93520  Biso   1.000  H
  C27      1.0000 0.56740  0.97910  0.79670  Biso   1.000  C
  C28      1.0000 0.61370  0.11620  0.79650  Biso   1.000  C
  C29      1.0000 0.66880  0.14590  0.87320  Biso   1.000  C
  H19      1.0000 0.67590  0.07410  0.93660  Biso   1.000  H
  C30      1.0000 0.71170  0.27800  0.85610  Biso   1.000  C
  H20      1.0000 0.75190  0.29880  0.90730  Biso   1.000  H
  C31      1.0000 0.69800  0.38330  0.76540  Biso   1.000  C
  H21      1.0000 0.72970  0.47610  0.75350  Biso   1.000  H
  C32      1.0000 0.63720  0.35200  0.69140  Biso   1.000  C
  C33      1.0000 0.61570  0.44790  0.58900  Biso   1.000  C
  C34      1.0000 0.65660  0.58770  0.54980  Biso   1.000  C
  H22      1.0000 0.70310  0.62830  0.58890  Biso   1.000  H
  C35      1.0000 0.62900  0.67000  0.45130  Biso   1.000  C
  H23      1.0000 0.65710  0.76620  0.42260  Biso   1.000  H
  C36      1.0000 0.56000  0.60650  0.39800  Biso   1.000  C
  H24      1.0000 0.53670  0.65900  0.33210  Biso   1.000  H
  C37      1.0000 0.52500  0.46490  0.44170  Biso   1.000  C
  H25      1.0000 0.48150  0.42110  0.40320  Biso   1.000  H
