data_image0
_cell_length_a       12.603
_cell_length_b       10.602
_cell_length_c       25.621
_cell_angle_alpha    90
_cell_angle_beta     95.971
_cell_angle_gamma    90

_symmetry_space_group_name_H-M    "P 1"
_symmetry_int_tables_number       1

loop_
  _symmetry_equiv_pos_as_xyz
  'x, y, z'

loop_
  _atom_site_label
  _atom_site_occupancy
  _atom_site_fract_x
  _atom_site_fract_y
  _atom_site_fract_z
  _atom_site_thermal_displace_type
  _atom_site_B_iso_or_equiv
  _atom_site_type_symbol
  Cu1      1.0000 0.74834  0.60496  0.23650  Biso   1.000  Cu
  Cu2      1.0000 0.25166  0.10496  0.26350  Biso   1.000  Cu
  Cu3      1.0000 0.25166  0.39504  0.76350  Biso   1.000  Cu
  Cu4      1.0000 0.74834  0.89504  0.73650  Biso   1.000  Cu
  Cu5      1.0000 0.19808  0.76551  0.48239  Biso   1.000  Cu
  Cu6      1.0000 0.80192  0.26551  0.01761  Biso   1.000  Cu
  Cu7      1.0000 0.80192  0.23449  0.51761  Biso   1.000  Cu
  Cu8      1.0000 0.19808  0.73449  0.98239  Biso   1.000  Cu
  O1       1.0000 0.13190  0.97040  0.46606  Biso   1.000  O
  O2       1.0000 0.86810  0.47040  0.03394  Biso   1.000  O
  O3       1.0000 0.86810  0.02960  0.53394  Biso   1.000  O
  O4       1.0000 0.13190  0.52960  0.96606  Biso   1.000  O
  O5       1.0000 0.28600  0.79980  0.42779  Biso   1.000  O
  O6       1.0000 0.71400  0.29980  0.07221  Biso   1.000  O
  O7       1.0000 0.71400  0.20020  0.57221  Biso   1.000  O
  O8       1.0000 0.28600  0.70020  0.92779  Biso   1.000  O
  O9       1.0000 0.43630  0.69040  0.43718  Biso   1.000  O
  O10      1.0000 0.56370  0.19040  0.06282  Biso   1.000  O
  O11      1.0000 0.56370  0.30960  0.56282  Biso   1.000  O
  O12      1.0000 0.43630  0.80960  0.93718  Biso   1.000  O
  O13      1.0000 0.73480  0.72000  0.16163  Biso   1.000  O
  O14      1.0000 0.26520  0.22000  0.33837  Biso   1.000  O
  O15      1.0000 0.26520  0.28000  0.83837  Biso   1.000  O
  O16      1.0000 0.73480  0.78000  0.66163  Biso   1.000  O
  O17      1.0000 0.87650  0.52550  0.21486  Biso   1.000  O
  O18      1.0000 0.12350  0.02550  0.28514  Biso   1.000  O
  O19      1.0000 0.12350  0.47450  0.78514  Biso   1.000  O
  O20      1.0000 0.87650  0.97450  0.71486  Biso   1.000  O
  O21      1.0000 0.87610  0.36740  0.27269  Biso   1.000  O
  O22      1.0000 0.12390  0.86740  0.22731  Biso   1.000  O
  O23      1.0000 0.12390  0.63260  0.72731  Biso   1.000  O
  O24      1.0000 0.87610  0.13260  0.77269  Biso   1.000  O
  O25      1.0000 0.62130  0.67410  0.26502  Biso   1.000  O
  O26      1.0000 0.37870  0.17410  0.23498  Biso   1.000  O
  O27      1.0000 0.37870  0.32590  0.73498  Biso   1.000  O
  O28      1.0000 0.62130  0.82590  0.76502  Biso   1.000  O
  O29      1.0000 0.58400  0.83320  0.20954  Biso   1.000  O
  O30      1.0000 0.41600  0.33320  0.29046  Biso   1.000  O
  O31      1.0000 0.41600  0.16680  0.79046  Biso   1.000  O
  O32      1.0000 0.58400  0.66680  0.70954  Biso   1.000  O
  O33      1.0000 0.08380  0.44620  0.05998  Biso   1.000  O
  O34      1.0000 0.91620  0.94620  0.44002  Biso   1.000  O
  O35      1.0000 0.91620  0.55380  0.94002  Biso   1.000  O
  O36      1.0000 0.08380  0.05380  0.55998  Biso   1.000  O
  O37      1.0000 0.24260  0.35300  0.07921  Biso   1.000  O
  O38      1.0000 0.75740  0.85300  0.42079  Biso   1.000  O
  O39      1.0000 0.75740  0.64700  0.92079  Biso   1.000  O
  O40      1.0000 0.24260  0.14700  0.57921  Biso   1.000  O
  O41      1.0000 0.35350  0.21430  0.01660  Biso   1.000  O
  O42      1.0000 0.64650  0.71430  0.48340  Biso   1.000  O
  O43      1.0000 0.64650  0.78570  0.98340  Biso   1.000  O
  O44      1.0000 0.35350  0.28570  0.51660  Biso   1.000  O
  O45      1.0000 0.68810  0.60780  0.06542  Biso   1.000  O
  O46      1.0000 0.31190  0.10780  0.43458  Biso   1.000  O
  O47      1.0000 0.31190  0.39220  0.93458  Biso   1.000  O
  O48      1.0000 0.68810  0.89220  0.56542  Biso   1.000  O
  O49      1.0000 0.29720  0.95960  0.99169  Biso   1.000  O
  O50      1.0000 0.70280  0.45960  0.50831  Biso   1.000  O
  O51      1.0000 0.70280  0.04040  0.00831  Biso   1.000  O
  O52      1.0000 0.29720  0.54040  0.49169  Biso   1.000  O
  N1       1.0000 0.08350  0.67390  0.43549  Biso   1.000  N
  N2       1.0000 0.91650  0.17390  0.06451  Biso   1.000  N
  N3       1.0000 0.91650  0.32610  0.56451  Biso   1.000  N
  N4       1.0000 0.08350  0.82610  0.93549  Biso   1.000  N
  N5       1.0000 0.09610  0.73310  0.53190  Biso   1.000  N
  N6       1.0000 0.90390  0.23310  0.96810  Biso   1.000  N
  N7       1.0000 0.90390  0.26690  0.46810  Biso   1.000  N
  N8       1.0000 0.09610  0.76690  0.03190  Biso   1.000  N
  N9       1.0000 0.28380  0.82820  0.54891  Biso   1.000  N
  N10      1.0000 0.71620  0.32820  0.95109  Biso   1.000  N
  N11      1.0000 0.71620  0.17180  0.45109  Biso   1.000  N
  N12      1.0000 0.28380  0.67180  0.04891  Biso   1.000  N
  N13      1.0000 0.34110  0.95900  0.29072  Biso   1.000  N
  N14      1.0000 0.65890  0.45900  0.20928  Biso   1.000  N
  N15      1.0000 0.65890  0.04100  0.70928  Biso   1.000  N
  N16      1.0000 0.34110  0.54100  0.79072  Biso   1.000  N
  N17      1.0000 0.16250  0.23610  0.22275  Biso   1.000  N
  N18      1.0000 0.83750  0.73610  0.27725  Biso   1.000  N
  N19      1.0000 0.83750  0.76390  0.77725  Biso   1.000  N
  N20      1.0000 0.16250  0.26390  0.72275  Biso   1.000  N
  N21      1.0000 0.34020  0.98550  0.12950  Biso   1.000  N
  N22      1.0000 0.65980  0.48550  0.37050  Biso   1.000  N
  N23      1.0000 0.65980  0.01450  0.87050  Biso   1.000  N
  N24      1.0000 0.34020  0.51450  0.62950  Biso   1.000  N
  C1       1.0000 0.09100  0.63520  0.38590  Biso   1.000  C
  C2       1.0000 0.90900  0.13520  0.11410  Biso   1.000  C
  C3       1.0000 0.90900  0.36480  0.61410  Biso   1.000  C
  C4       1.0000 0.09100  0.86480  0.88590  Biso   1.000  C
  H1       1.0000 0.15370  0.65430  0.36990  Biso   1.000  H
  H2       1.0000 0.84630  0.15430  0.13010  Biso   1.000  H
  H3       1.0000 0.84630  0.34570  0.63010  Biso   1.000  H
  H4       1.0000 0.15370  0.84570  0.86990  Biso   1.000  H
  C5       1.0000 0.01070  0.56880  0.35790  Biso   1.000  C
  C6       1.0000 0.98930  0.06880  0.14210  Biso   1.000  C
  C7       1.0000 0.98930  0.43120  0.64210  Biso   1.000  C
  C8       1.0000 0.01070  0.93120  0.85790  Biso   1.000  C
  H5       1.0000 0.01820  0.54140  0.32320  Biso   1.000  H
  H6       1.0000 0.98180  0.04140  0.17680  Biso   1.000  H
  H7       1.0000 0.98180  0.45860  0.67680  Biso   1.000  H
  H8       1.0000 0.01820  0.95860  0.82320  Biso   1.000  H
  C9       1.0000 0.91900  0.54260  0.38075  Biso   1.000  C
  C10      1.0000 0.08100  0.04260  0.11925  Biso   1.000  C
  C11      1.0000 0.08100  0.45740  0.61925  Biso   1.000  C
  C12      1.0000 0.91900  0.95740  0.88075  Biso   1.000  C
  H9       1.0000 0.86220  0.49820  0.36160  Biso   1.000  H
  H10      1.0000 0.13780  0.99820  0.13840  Biso   1.000  H
  H11      1.0000 0.13780  0.50180  0.63840  Biso   1.000  H
  H12      1.0000 0.86220  0.00180  0.86160  Biso   1.000  H
  C13      1.0000 0.90980  0.58110  0.43192  Biso   1.000  C
  C14      1.0000 0.09020  0.08110  0.06808  Biso   1.000  C
  C15      1.0000 0.09020  0.41890  0.56808  Biso   1.000  C
  C16      1.0000 0.90980  0.91890  0.93192  Biso   1.000  C
  H13      1.0000 0.84730  0.56320  0.44830  Biso   1.000  H
  H14      1.0000 0.15270  0.06320  0.05170  Biso   1.000  H
  H15      1.0000 0.15270  0.43680  0.55170  Biso   1.000  H
  H16      1.0000 0.84730  0.93680  0.94830  Biso   1.000  H
  C17      1.0000 0.99470  0.64670  0.45846  Biso   1.000  C
  C18      1.0000 0.00530  0.14670  0.04154  Biso   1.000  C
  C19      1.0000 0.00530  0.35330  0.54154  Biso   1.000  C
  C20      1.0000 0.99470  0.85330  0.95846  Biso   1.000  C
  C21      1.0000 0.00020  0.68850  0.51372  Biso   1.000  C
  C22      1.0000 0.99980  0.18850  0.98628  Biso   1.000  C
  C23      1.0000 0.99980  0.31150  0.48628  Biso   1.000  C
  C24      1.0000 0.00020  0.81150  0.01372  Biso   1.000  C
  C25      1.0000 0.91880  0.68340  0.54651  Biso   1.000  C
  C26      1.0000 0.08120  0.18340  0.95349  Biso   1.000  C
  C27      1.0000 0.08120  0.31660  0.45349  Biso   1.000  C
  C28      1.0000 0.91880  0.81660  0.04651  Biso   1.000  C
  H17      1.0000 0.84980  0.65330  0.53400  Biso   1.000  H
  H18      1.0000 0.15020  0.15330  0.96600  Biso   1.000  H
  H19      1.0000 0.15020  0.34670  0.46600  Biso   1.000  H
  H20      1.0000 0.84980  0.84670  0.03400  Biso   1.000  H
  C29      1.0000 0.94140  0.72330  0.59756  Biso   1.000  C
  C30      1.0000 0.05860  0.22330  0.90244  Biso   1.000  C
  C31      1.0000 0.05860  0.27670  0.40244  Biso   1.000  C
  C32      1.0000 0.94140  0.77670  0.09756  Biso   1.000  C
  H21      1.0000 0.88680  0.72130  0.62040  Biso   1.000  H
  H22      1.0000 0.11320  0.22130  0.87960  Biso   1.000  H
  H23      1.0000 0.11320  0.27870  0.37960  Biso   1.000  H
  H24      1.0000 0.88680  0.77870  0.12040  Biso   1.000  H
  C33      1.0000 0.04150  0.76620  0.61632  Biso   1.000  C
  C34      1.0000 0.95850  0.26620  0.88368  Biso   1.000  C
  C35      1.0000 0.95850  0.23380  0.38368  Biso   1.000  C
  C36      1.0000 0.04150  0.73380  0.11632  Biso   1.000  C
  H25      1.0000 0.05700  0.79110  0.65190  Biso   1.000  H
  H26      1.0000 0.94300  0.29110  0.84810  Biso   1.000  H
  H27      1.0000 0.94300  0.20890  0.34810  Biso   1.000  H
  H28      1.0000 0.05700  0.70890  0.15190  Biso   1.000  H
  C37      1.0000 0.11940  0.77180  0.58133  Biso   1.000  C
  C38      1.0000 0.88060  0.27180  0.91867  Biso   1.000  C
  C39      1.0000 0.88060  0.22820  0.41867  Biso   1.000  C
  C40      1.0000 0.11940  0.72820  0.08133  Biso   1.000  C
  C41      1.0000 0.23100  0.81800  0.59230  Biso   1.000  C
  C42      1.0000 0.76900  0.31800  0.90770  Biso   1.000  C
  C43      1.0000 0.76900  0.18200  0.40770  Biso   1.000  C
  C44      1.0000 0.23100  0.68200  0.09230  Biso   1.000  C
  C45      1.0000 0.27680  0.84930  0.64198  Biso   1.000  C
  C46      1.0000 0.72320  0.34930  0.85802  Biso   1.000  C
  C47      1.0000 0.72320  0.15070  0.35802  Biso   1.000  C
  C48      1.0000 0.27680  0.65070  0.14198  Biso   1.000  C
  H29      1.0000 0.23910  0.83850  0.67190  Biso   1.000  H
  H30      1.0000 0.76090  0.33850  0.82810  Biso   1.000  H
  H31      1.0000 0.76090  0.16150  0.32810  Biso   1.000  H
  H32      1.0000 0.23910  0.66150  0.17190  Biso   1.000  H
  C49      1.0000 0.37960  0.89680  0.64660  Biso   1.000  C
  C50      1.0000 0.62040  0.39680  0.85340  Biso   1.000  C
  C51      1.0000 0.62040  0.10320  0.35340  Biso   1.000  C
  C52      1.0000 0.37960  0.60320  0.14660  Biso   1.000  C
  H33      1.0000 0.41310  0.92130  0.68000  Biso   1.000  H
  H34      1.0000 0.58690  0.42130  0.82000  Biso   1.000  H
  H35      1.0000 0.58690  0.07870  0.32000  Biso   1.000  H
  H36      1.0000 0.41310  0.57870  0.18000  Biso   1.000  H
  C53      1.0000 0.43310  0.90850  0.60270  Biso   1.000  C
  C54      1.0000 0.56690  0.40850  0.89730  Biso   1.000  C
  C55      1.0000 0.56690  0.09150  0.39730  Biso   1.000  C
  C56      1.0000 0.43310  0.59150  0.10270  Biso   1.000  C
  H37      1.0000 0.50420  0.93970  0.60570  Biso   1.000  H
  H38      1.0000 0.49580  0.43970  0.89430  Biso   1.000  H
  H39      1.0000 0.49580  0.06030  0.39430  Biso   1.000  H
  H40      1.0000 0.50420  0.56030  0.10570  Biso   1.000  H
  C57      1.0000 0.38210  0.87410  0.55380  Biso   1.000  C
  C58      1.0000 0.61790  0.37410  0.94620  Biso   1.000  C
  C59      1.0000 0.61790  0.12590  0.44620  Biso   1.000  C
  C60      1.0000 0.38210  0.62590  0.05380  Biso   1.000  C
  H41      1.0000 0.41870  0.88390  0.52340  Biso   1.000  H
  H42      1.0000 0.58130  0.38390  0.97660  Biso   1.000  H
  H43      1.0000 0.58130  0.11610  0.47660  Biso   1.000  H
  H44      1.0000 0.41870  0.61610  0.02340  Biso   1.000  H
  C61      1.0000 0.37120  0.76050  0.41210  Biso   1.000  C
  C62      1.0000 0.62880  0.26050  0.08790  Biso   1.000  C
  C63      1.0000 0.62880  0.23950  0.58790  Biso   1.000  C
  C64      1.0000 0.37120  0.73950  0.91210  Biso   1.000  C
  C65      1.0000 0.39270  0.81090  0.35938  Biso   1.000  C
  C66      1.0000 0.60730  0.31090  0.14062  Biso   1.000  C
  C67      1.0000 0.60730  0.18910  0.64062  Biso   1.000  C
  C68      1.0000 0.39270  0.68910  0.85938  Biso   1.000  C
  C69      1.0000 0.47400  0.76430  0.33179  Biso   1.000  C
  C70      1.0000 0.52600  0.26430  0.16821  Biso   1.000  C
  C71      1.0000 0.52600  0.23570  0.66821  Biso   1.000  C
  C72      1.0000 0.47400  0.73570  0.83179  Biso   1.000  C
  H45      1.0000 0.51990  0.69920  0.34610  Biso   1.000  H
  H46      1.0000 0.48010  0.19920  0.15390  Biso   1.000  H
  H47      1.0000 0.48010  0.30080  0.65390  Biso   1.000  H
  H48      1.0000 0.51990  0.80080  0.84610  Biso   1.000  H
  C73      1.0000 0.48620  0.81580  0.28255  Biso   1.000  C
  C74      1.0000 0.51380  0.31580  0.21745  Biso   1.000  C
  C75      1.0000 0.51380  0.18420  0.71745  Biso   1.000  C
  C76      1.0000 0.48620  0.68420  0.78255  Biso   1.000  C
  C77      1.0000 0.41930  0.91290  0.26382  Biso   1.000  C
  C78      1.0000 0.58070  0.41290  0.23618  Biso   1.000  C
  C79      1.0000 0.58070  0.08710  0.73618  Biso   1.000  C
  C80      1.0000 0.41930  0.58710  0.76382  Biso   1.000  C
  H49      1.0000 0.42870  0.94870  0.23060  Biso   1.000  H
  H50      1.0000 0.57130  0.44870  0.26940  Biso   1.000  H
  H51      1.0000 0.57130  0.05130  0.76940  Biso   1.000  H
  H52      1.0000 0.42870  0.55130  0.73060  Biso   1.000  H
  C81      1.0000 0.32830  0.90710  0.33720  Biso   1.000  C
  C82      1.0000 0.67170  0.40710  0.16280  Biso   1.000  C
  C83      1.0000 0.67170  0.09290  0.66280  Biso   1.000  C
  C84      1.0000 0.32830  0.59290  0.83720  Biso   1.000  C
  H53      1.0000 0.27240  0.93750  0.35600  Biso   1.000  H
  H54      1.0000 0.72760  0.43750  0.14400  Biso   1.000  H
  H55      1.0000 0.72760  0.06250  0.64400  Biso   1.000  H
  H56      1.0000 0.27240  0.56250  0.85600  Biso   1.000  H
  C85      1.0000 0.91190  0.42310  0.23626  Biso   1.000  C
  C86      1.0000 0.08810  0.92310  0.26374  Biso   1.000  C
  C87      1.0000 0.08810  0.57690  0.76374  Biso   1.000  C
  C88      1.0000 0.91190  0.07690  0.73626  Biso   1.000  C
  C89      1.0000 0.57080  0.77160  0.24882  Biso   1.000  C
  C90      1.0000 0.42920  0.27160  0.25118  Biso   1.000  C
  C91      1.0000 0.42920  0.22840  0.75118  Biso   1.000  C
  C92      1.0000 0.57080  0.72840  0.74882  Biso   1.000  C
  C93      1.0000 0.07410  0.28390  0.24091  Biso   1.000  C
  C94      1.0000 0.92590  0.78390  0.25909  Biso   1.000  C
  C95      1.0000 0.92590  0.71610  0.75909  Biso   1.000  C
  C96      1.0000 0.07410  0.21610  0.74091  Biso   1.000  C
  H57      1.0000 0.05580  0.25640  0.27410  Biso   1.000  H
  H58      1.0000 0.94420  0.75640  0.22590  Biso   1.000  H
  H59      1.0000 0.94420  0.74360  0.72590  Biso   1.000  H
  H60      1.0000 0.05580  0.24360  0.77410  Biso   1.000  H
  C97      1.0000 0.00900  0.37120  0.21314  Biso   1.000  C
  C98      1.0000 0.99100  0.87120  0.28686  Biso   1.000  C
  C99      1.0000 0.99100  0.62880  0.78686  Biso   1.000  C
  C100     1.0000 0.00900  0.12880  0.71314  Biso   1.000  C
  C101     1.0000 0.03430  0.40810  0.16395  Biso   1.000  C
  C102     1.0000 0.96570  0.90810  0.33605  Biso   1.000  C
  C103     1.0000 0.96570  0.59190  0.83605  Biso   1.000  C
  C104     1.0000 0.03430  0.09190  0.66395  Biso   1.000  C
  H61      1.0000 0.99050  0.46700  0.14380  Biso   1.000  H
  H62      1.0000 0.00950  0.96700  0.35620  Biso   1.000  H
  H63      1.0000 0.00950  0.53300  0.85620  Biso   1.000  H
  H64      1.0000 0.99050  0.03300  0.64380  Biso   1.000  H
  C105     1.0000 0.12370  0.35860  0.14454  Biso   1.000  C
  C106     1.0000 0.87630  0.85860  0.35546  Biso   1.000  C
  C107     1.0000 0.87630  0.64140  0.85546  Biso   1.000  C
  C108     1.0000 0.12370  0.14140  0.64454  Biso   1.000  C
  C109     1.0000 0.18710  0.27500  0.17577  Biso   1.000  C
  C110     1.0000 0.81290  0.77500  0.32423  Biso   1.000  C
  C111     1.0000 0.81290  0.72500  0.82423  Biso   1.000  C
  C112     1.0000 0.18710  0.22500  0.67577  Biso   1.000  C
  H65      1.0000 0.25060  0.24420  0.16330  Biso   1.000  H
  H66      1.0000 0.74940  0.74420  0.33670  Biso   1.000  H
  H67      1.0000 0.74940  0.75580  0.83670  Biso   1.000  H
  H68      1.0000 0.25060  0.25580  0.66330  Biso   1.000  H
  C113     1.0000 0.15390  0.38770  0.08990  Biso   1.000  C
  C114     1.0000 0.84610  0.88770  0.41010  Biso   1.000  C
  C115     1.0000 0.84610  0.61230  0.91010  Biso   1.000  C
  C116     1.0000 0.15390  0.11230  0.58990  Biso   1.000  C
  C117     1.0000 0.50710  0.90770  0.08980  Biso   1.000  C
  C118     1.0000 0.49290  0.40770  0.41020  Biso   1.000  C
  C119     1.0000 0.49290  0.09230  0.91020  Biso   1.000  C
  C120     1.0000 0.50710  0.59230  0.58980  Biso   1.000  C
  H69      1.0000 0.53230  0.82960  0.10750  Biso   1.000  H
  H70      1.0000 0.46770  0.32960  0.39250  Biso   1.000  H
  H71      1.0000 0.46770  0.17040  0.89250  Biso   1.000  H
  H72      1.0000 0.53230  0.67040  0.60750  Biso   1.000  H
  H73      1.0000 0.56370  0.97140  0.09410  Biso   1.000  H
  H74      1.0000 0.43630  0.47140  0.40590  Biso   1.000  H
  H75      1.0000 0.43630  0.02860  0.90590  Biso   1.000  H
  H76      1.0000 0.56370  0.52860  0.59410  Biso   1.000  H
  H77      1.0000 0.48820  0.89100  0.05240  Biso   1.000  H
  H78      1.0000 0.51180  0.39100  0.44760  Biso   1.000  H
  H79      1.0000 0.51180  0.10900  0.94760  Biso   1.000  H
  H80      1.0000 0.48820  0.60900  0.55240  Biso   1.000  H
  C121     1.0000 0.41780  0.95180  0.11180  Biso   1.000  C
  C122     1.0000 0.58220  0.45180  0.38820  Biso   1.000  C
  C123     1.0000 0.58220  0.04820  0.88820  Biso   1.000  C
  C124     1.0000 0.41780  0.54820  0.61180  Biso   1.000  C
  H81      1.0000 0.12000  0.99500  0.49600  Biso   1.000  H
  H82      1.0000 0.88000  0.49500  0.00400  Biso   1.000  H
  H83      1.0000 0.88000  0.00500  0.50400  Biso   1.000  H
  H84      1.0000 0.12000  0.50500  0.99600  Biso   1.000  H
  H85      1.0000 0.06500  0.95800  0.45070  Biso   1.000  H
  H86      1.0000 0.93500  0.45800  0.04930  Biso   1.000  H
  H87      1.0000 0.93500  0.04200  0.54930  Biso   1.000  H
  H88      1.0000 0.06500  0.54200  0.95070  Biso   1.000  H
