data_image0
_cell_length_a       8.3166
_cell_length_b       8.3407
_cell_length_c       9.0956
_cell_angle_alpha    99.038
_cell_angle_beta     104.303
_cell_angle_gamma    114.606

_symmetry_space_group_name_H-M    "P 1"
_symmetry_int_tables_number       1

loop_
  _symmetry_equiv_pos_as_xyz
  'x, y, z'

loop_
  _atom_site_label
  _atom_site_occupancy
  _atom_site_fract_x
  _atom_site_fract_y
  _atom_site_fract_z
  _atom_site_thermal_displace_type
  _atom_site_B_iso_or_equiv
  _atom_site_type_symbol
  Cu1      1.0000 0.71662  0.50746  0.60155  Biso   1.000  Cu
  Cu2      1.0000 0.28338  0.49254  0.39845  Biso   1.000  Cu
  S1       1.0000 0.76910  0.23592  0.35372  Biso   1.000  S
  S2       1.0000 0.23090  0.76408  0.64628  Biso   1.000  S
  Cl1      1.0000 0.67032  0.71781  0.49350  Biso   1.000  Cl
  Cl2      1.0000 0.32968  0.28219  0.50650  Biso   1.000  Cl
  C1       1.0000 0.70050  0.76690  0.86190  Biso   1.000  C
  C2       1.0000 0.29950  0.23310  0.13810  Biso   1.000  C
  H1       1.0000 0.67950  0.82950  0.78950  Biso   1.000  H
  H2       1.0000 0.32050  0.17050  0.21050  Biso   1.000  H
  C3       1.0000 0.74670  0.52580  0.92050  Biso   1.000  C
  C4       1.0000 0.25330  0.47420  0.07950  Biso   1.000  C
  C5       1.0000 0.88460  0.20630  0.53100  Biso   1.000  C
  C6       1.0000 0.11540  0.79370  0.46900  Biso   1.000  C
  H3       1.0000 0.91020  0.10430  0.50360  Biso   1.000  H
  H4       1.0000 0.08980  0.89570  0.49640  Biso   1.000  H
  H5       1.0000 0.00480  0.31670  0.58690  Biso   1.000  H
  H6       1.0000 0.99520  0.68330  0.41310  Biso   1.000  H
  C7       1.0000 0.76450  0.36470  0.85460  Biso   1.000  C
  C8       1.0000 0.23550  0.63530  0.14540  Biso   1.000  C
  H7       1.0000 0.77930  0.28910  0.91580  Biso   1.000  H
  H8       1.0000 0.22070  0.71090  0.08420  Biso   1.000  H
  C9       1.0000 0.75250  0.57900  0.07350  Biso   1.000  C
  C10      1.0000 0.24750  0.42100  0.92650  Biso   1.000  C
  H9       1.0000 0.76880  0.51230  0.14350  Biso   1.000  H
  H10      1.0000 0.23120  0.48770  0.85650  Biso   1.000  H
  C11      1.0000 0.77150  0.16860  0.64130  Biso   1.000  C
  C12      1.0000 0.22850  0.83140  0.35870  Biso   1.000  C
  H11      1.0000 0.64530  0.06820  0.58200  Biso   1.000  H
  H12      1.0000 0.35470  0.93180  0.41800  Biso   1.000  H
  H13      1.0000 0.83030  0.13020  0.72470  Biso   1.000  H
  H14      1.0000 0.16970  0.86980  0.27530  Biso   1.000  H
  C13      1.0000 0.70760  0.82800  0.01520  Biso   1.000  C
  C14      1.0000 0.29240  0.17200  0.98480  Biso   1.000  C
  H15      1.0000 0.69480  0.93260  0.04570  Biso   1.000  H
  H16      1.0000 0.30520  0.06740  0.95430  Biso   1.000  H
  C15      1.0000 0.73340  0.73460  0.12100  Biso   1.000  C
  C16      1.0000 0.26660  0.26540  0.87900  Biso   1.000  C
  H17      1.0000 0.73810  0.77460  0.22410  Biso   1.000  H
  H18      1.0000 0.26190  0.22540  0.77590  Biso   1.000  H
  N1       1.0000 0.75940  0.33060  0.71280  Biso   1.000  N
  N2       1.0000 0.24060  0.66940  0.28720  Biso   1.000  N
  N3       1.0000 0.72300  0.62010  0.81600  Biso   1.000  N
  N4       1.0000 0.27700  0.37990  0.18400  Biso   1.000  N
  O1       1.0000 0.73560  0.39420  0.40440  Biso   1.000  O
  O2       1.0000 0.26440  0.60580  0.59560  Biso   1.000  O
  O3       1.0000 0.59510  0.06760  0.27020  Biso   1.000  O
  O4       1.0000 0.40490  0.93240  0.72980  Biso   1.000  O
  O5       1.0000 0.89950  0.28450  0.26870  Biso   1.000  O
  O6       1.0000 0.10050  0.71550  0.73130  Biso   1.000  O
