data_image0
_cell_length_a       9.37
_cell_length_b       9.308
_cell_length_c       23.79
_cell_angle_alpha    90
_cell_angle_beta     99.374
_cell_angle_gamma    90

_symmetry_space_group_name_H-M    "P 1"
_symmetry_int_tables_number       1

loop_
  _symmetry_equiv_pos_as_xyz
  'x, y, z'

loop_
  _atom_site_label
  _atom_site_occupancy
  _atom_site_fract_x
  _atom_site_fract_y
  _atom_site_fract_z
  _atom_site_thermal_displace_type
  _atom_site_B_iso_or_equiv
  _atom_site_type_symbol
  Cu1      1.0000 0.72878  0.73011  0.79564  Biso   1.000  Cu
  Cu2      1.0000 0.77122  0.23011  0.70436  Biso   1.000  Cu
  Cu3      1.0000 0.27122  0.26989  0.20436  Biso   1.000  Cu
  Cu4      1.0000 0.22878  0.76989  0.29564  Biso   1.000  Cu
  O1       1.0000 0.80170  0.53280  0.77000  Biso   1.000  O
  O2       1.0000 0.69830  0.03280  0.73000  Biso   1.000  O
  O3       1.0000 0.19830  0.46720  0.23000  Biso   1.000  O
  O4       1.0000 0.30170  0.96720  0.27000  Biso   1.000  O
  O5       1.0000 0.74700  0.30230  0.77813  Biso   1.000  O
  O6       1.0000 0.75300  0.80230  0.72187  Biso   1.000  O
  O7       1.0000 0.25300  0.69770  0.22187  Biso   1.000  O
  O8       1.0000 0.24700  0.19770  0.27813  Biso   1.000  O
  N1       1.0000 0.71230  0.61250  0.86576  Biso   1.000  N
  N2       1.0000 0.78770  0.11250  0.63424  Biso   1.000  N
  N3       1.0000 0.28770  0.38750  0.13424  Biso   1.000  N
  N4       1.0000 0.21230  0.88750  0.36576  Biso   1.000  N
  C1       1.0000 0.85440  0.62610  0.90419  Biso   1.000  C
  C2       1.0000 0.64560  0.12610  0.59581  Biso   1.000  C
  C3       1.0000 0.14560  0.37390  0.09581  Biso   1.000  C
  C4       1.0000 0.35440  0.87390  0.40419  Biso   1.000  C
  H1       1.0000 0.92280  0.55420  0.89330  Biso   1.000  H
  H2       1.0000 0.57720  0.05420  0.60670  Biso   1.000  H
  H3       1.0000 0.07720  0.44580  0.10670  Biso   1.000  H
  H4       1.0000 0.42280  0.94580  0.39330  Biso   1.000  H
  H5       1.0000 0.84140  0.60630  0.94390  Biso   1.000  H
  H6       1.0000 0.65860  0.10630  0.55610  Biso   1.000  H
  H7       1.0000 0.15860  0.39370  0.05610  Biso   1.000  H
  H8       1.0000 0.34140  0.89370  0.44390  Biso   1.000  H
  C5       1.0000 0.91590  0.77430  0.90055  Biso   1.000  C
  C6       1.0000 0.58410  0.27430  0.59945  Biso   1.000  C
  C7       1.0000 0.08410  0.22570  0.09945  Biso   1.000  C
  C8       1.0000 0.41590  0.72570  0.40055  Biso   1.000  C
  C9       1.0000 0.01320  0.83350  0.94462  Biso   1.000  C
  C10      1.0000 0.48680  0.33350  0.55538  Biso   1.000  C
  C11      1.0000 0.98680  0.16650  0.05538  Biso   1.000  C
  C12      1.0000 0.51320  0.66650  0.44462  Biso   1.000  C
  H9       1.0000 0.04010  0.78300  0.97940  Biso   1.000  H
  H10      1.0000 0.45990  0.28300  0.52060  Biso   1.000  H
  H11      1.0000 0.95990  0.21700  0.02060  Biso   1.000  H
  H12      1.0000 0.54010  0.71700  0.47940  Biso   1.000  H
  C13      1.0000 0.07020  0.96740  0.93684  Biso   1.000  C
  C14      1.0000 0.42980  0.46740  0.56316  Biso   1.000  C
  C15      1.0000 0.92980  0.03260  0.06316  Biso   1.000  C
  C16      1.0000 0.57020  0.53260  0.43684  Biso   1.000  C
  H13      1.0000 0.13720  0.01020  0.96640  Biso   1.000  H
  H14      1.0000 0.36280  0.51020  0.53360  Biso   1.000  H
  H15      1.0000 0.86280  0.98980  0.03360  Biso   1.000  H
  H16      1.0000 0.63720  0.48980  0.46640  Biso   1.000  H
  C17      1.0000 0.02960  0.03830  0.88615  Biso   1.000  C
  C18      1.0000 0.47040  0.53830  0.61385  Biso   1.000  C
  C19      1.0000 0.97040  0.96170  0.11385  Biso   1.000  C
  C20      1.0000 0.52960  0.46170  0.38615  Biso   1.000  C
  H17      1.0000 0.06860  0.13010  0.88000  Biso   1.000  H
  H18      1.0000 0.43140  0.63010  0.62000  Biso   1.000  H
  H19      1.0000 0.93140  0.86990  0.12000  Biso   1.000  H
  H20      1.0000 0.56860  0.36990  0.38000  Biso   1.000  H
  C21      1.0000 0.93170  0.97430  0.84444  Biso   1.000  C
  C22      1.0000 0.56830  0.47430  0.65556  Biso   1.000  C
  C23      1.0000 0.06830  0.02570  0.15556  Biso   1.000  C
  C24      1.0000 0.43170  0.52570  0.34444  Biso   1.000  C
  H21      1.0000 0.90170  0.02470  0.80980  Biso   1.000  H
  H22      1.0000 0.59830  0.52470  0.69020  Biso   1.000  H
  H23      1.0000 0.09830  0.97530  0.19020  Biso   1.000  H
  H24      1.0000 0.40170  0.47530  0.30980  Biso   1.000  H
  N5       1.0000 0.87640  0.84270  0.85080  Biso   1.000  N
  N6       1.0000 0.62360  0.34270  0.64920  Biso   1.000  N
  N7       1.0000 0.12360  0.15730  0.14920  Biso   1.000  N
  N8       1.0000 0.37640  0.65730  0.35080  Biso   1.000  N
  C25      1.0000 0.59120  0.67830  0.89038  Biso   1.000  C
  C26      1.0000 0.90880  0.17830  0.60962  Biso   1.000  C
  C27      1.0000 0.40880  0.32170  0.10962  Biso   1.000  C
  C28      1.0000 0.09120  0.82170  0.39038  Biso   1.000  C
  H25      1.0000 0.62550  0.76580  0.91210  Biso   1.000  H
  H26      1.0000 0.87450  0.26580  0.58790  Biso   1.000  H
  H27      1.0000 0.37450  0.23420  0.08790  Biso   1.000  H
  H28      1.0000 0.12550  0.73420  0.41210  Biso   1.000  H
  H29      1.0000 0.55570  0.60960  0.91670  Biso   1.000  H
  H30      1.0000 0.94430  0.10960  0.58330  Biso   1.000  H
  H31      1.0000 0.44430  0.39040  0.08330  Biso   1.000  H
  H32      1.0000 0.05570  0.89040  0.41670  Biso   1.000  H
  C29      1.0000 0.47000  0.71650  0.84249  Biso   1.000  C
  C30      1.0000 0.03000  0.21650  0.65751  Biso   1.000  C
  C31      1.0000 0.53000  0.28350  0.15751  Biso   1.000  C
  C32      1.0000 0.97000  0.78350  0.34249  Biso   1.000  C
  C33      1.0000 0.32570  0.71830  0.84817  Biso   1.000  C
  C34      1.0000 0.17430  0.21830  0.65183  Biso   1.000  C
  C35      1.0000 0.67430  0.28170  0.15183  Biso   1.000  C
  C36      1.0000 0.82570  0.78170  0.34817  Biso   1.000  C
  H33      1.0000 0.29660  0.69450  0.88350  Biso   1.000  H
  H34      1.0000 0.20340  0.19450  0.61650  Biso   1.000  H
  H35      1.0000 0.70340  0.30550  0.11650  Biso   1.000  H
  H36      1.0000 0.79660  0.80550  0.38350  Biso   1.000  H
  C37      1.0000 0.22410  0.75560  0.80140  Biso   1.000  C
  C38      1.0000 0.27590  0.25560  0.69860  Biso   1.000  C
  C39      1.0000 0.77590  0.24440  0.19860  Biso   1.000  C
  C40      1.0000 0.72410  0.74440  0.30140  Biso   1.000  C
  H37      1.0000 0.12390  0.75420  0.80390  Biso   1.000  H
  H38      1.0000 0.37610  0.25420  0.69610  Biso   1.000  H
  H39      1.0000 0.87610  0.24580  0.19610  Biso   1.000  H
  H40      1.0000 0.62390  0.74580  0.30390  Biso   1.000  H
  C41      1.0000 0.26920  0.79480  0.75120  Biso   1.000  C
  C42      1.0000 0.23080  0.29480  0.74880  Biso   1.000  C
  C43      1.0000 0.73080  0.20520  0.24880  Biso   1.000  C
  C44      1.0000 0.76920  0.70520  0.25120  Biso   1.000  C
  H41      1.0000 0.20100  0.82350  0.71920  Biso   1.000  H
  H42      1.0000 0.29900  0.32350  0.78080  Biso   1.000  H
  H43      1.0000 0.79900  0.17650  0.28080  Biso   1.000  H
  H44      1.0000 0.70100  0.67650  0.21920  Biso   1.000  H
  C45      1.0000 0.41460  0.79170  0.74825  Biso   1.000  C
  C46      1.0000 0.08540  0.29170  0.75175  Biso   1.000  C
  C47      1.0000 0.58540  0.20830  0.25175  Biso   1.000  C
  C48      1.0000 0.91460  0.70830  0.24825  Biso   1.000  C
  H45      1.0000 0.44570  0.81860  0.71370  Biso   1.000  H
  H46      1.0000 0.05430  0.31860  0.78630  Biso   1.000  H
  H47      1.0000 0.55430  0.18140  0.28630  Biso   1.000  H
  H48      1.0000 0.94570  0.68140  0.21370  Biso   1.000  H
  N9       1.0000 0.51320  0.75190  0.79252  Biso   1.000  N
  N10      1.0000 0.98680  0.25190  0.70748  Biso   1.000  N
  N11      1.0000 0.48680  0.24810  0.20748  Biso   1.000  N
  N12      1.0000 0.01320  0.74810  0.29252  Biso   1.000  N
  C49      1.0000 0.75200  0.43050  0.79466  Biso   1.000  C
  C50      1.0000 0.74800  0.93050  0.70534  Biso   1.000  C
  C51      1.0000 0.24800  0.56950  0.20534  Biso   1.000  C
  C52      1.0000 0.25200  0.06950  0.29466  Biso   1.000  C
  C53      1.0000 0.67540  0.46150  0.84624  Biso   1.000  C
  C54      1.0000 0.82460  0.96150  0.65376  Biso   1.000  C
  C55      1.0000 0.32460  0.53850  0.15376  Biso   1.000  C
  C56      1.0000 0.17540  0.03850  0.34624  Biso   1.000  C
  H49      1.0000 0.56890  0.45850  0.83220  Biso   1.000  H
  H50      1.0000 0.93110  0.95850  0.66780  Biso   1.000  H
  H51      1.0000 0.43110  0.54150  0.16780  Biso   1.000  H
  H52      1.0000 0.06890  0.04150  0.33220  Biso   1.000  H
  C57      1.0000 0.70850  0.34820  0.89362  Biso   1.000  C
  C58      1.0000 0.79150  0.84820  0.60638  Biso   1.000  C
  C59      1.0000 0.29150  0.65180  0.10638  Biso   1.000  C
  C60      1.0000 0.20850  0.15180  0.39362  Biso   1.000  C
  H53      1.0000 0.81260  0.32350  0.89880  Biso   1.000  H
  H54      1.0000 0.68740  0.82350  0.60120  Biso   1.000  H
  H55      1.0000 0.18740  0.67650  0.10120  Biso   1.000  H
  H56      1.0000 0.31260  0.17650  0.39880  Biso   1.000  H
  H57      1.0000 0.68810  0.38950  0.92980  Biso   1.000  H
  H58      1.0000 0.81190  0.88950  0.57020  Biso   1.000  H
  H59      1.0000 0.31190  0.61050  0.07020  Biso   1.000  H
  H60      1.0000 0.18810  0.11050  0.42980  Biso   1.000  H
  C61      1.0000 0.61930  0.21140  0.88036  Biso   1.000  C
  C62      1.0000 0.88070  0.71140  0.61964  Biso   1.000  C
  C63      1.0000 0.38070  0.78860  0.11964  Biso   1.000  C
  C64      1.0000 0.11930  0.28860  0.38036  Biso   1.000  C
  H61      1.0000 0.63910  0.17080  0.84400  Biso   1.000  H
  H62      1.0000 0.86090  0.67080  0.65600  Biso   1.000  H
  H63      1.0000 0.36090  0.82920  0.15600  Biso   1.000  H
  H64      1.0000 0.13910  0.32920  0.34400  Biso   1.000  H
  H65      1.0000 0.51520  0.23630  0.87530  Biso   1.000  H
  H66      1.0000 0.98480  0.73630  0.62470  Biso   1.000  H
  H67      1.0000 0.48480  0.76370  0.12470  Biso   1.000  H
  H68      1.0000 0.01520  0.26370  0.37530  Biso   1.000  H
  S1       1.0000 0.65692  0.07666  0.93512  Biso   1.000  S
  S2       1.0000 0.84308  0.57666  0.56488  Biso   1.000  S
  S3       1.0000 0.34308  0.92334  0.06488  Biso   1.000  S
  S4       1.0000 0.15692  0.42334  0.43512  Biso   1.000  S
  C65      1.0000 0.58670  0.16190  0.99378  Biso   1.000  C
  C66      1.0000 0.91330  0.66190  0.50622  Biso   1.000  C
  C67      1.0000 0.41330  0.83810  0.00622  Biso   1.000  C
  C68      1.0000 0.08670  0.33810  0.49378  Biso   1.000  C
  H69      1.0000 0.59640  0.09590  0.02630  Biso   1.000  H
  H70      1.0000 0.90360  0.59590  0.47370  Biso   1.000  H
  H71      1.0000 0.40360  0.90410  0.97370  Biso   1.000  H
  H72      1.0000 0.09640  0.40410  0.52630  Biso   1.000  H
  H73      1.0000 0.48450  0.18580  0.98170  Biso   1.000  H
  H74      1.0000 0.01550  0.68580  0.51830  Biso   1.000  H
  H75      1.0000 0.51550  0.81420  0.01830  Biso   1.000  H
  H76      1.0000 0.98450  0.31420  0.48170  Biso   1.000  H
  H77      1.0000 0.64150  0.24990  0.00490  Biso   1.000  H
  H78      1.0000 0.85850  0.74990  0.49510  Biso   1.000  H
  H79      1.0000 0.35850  0.75010  0.99510  Biso   1.000  H
  H80      1.0000 0.14150  0.25010  0.50490  Biso   1.000  H
  C69      1.0000 0.71700  0.45240  0.85550  Biso   1.000  C
  C70      1.0000 0.78300  0.95240  0.64450  Biso   1.000  C
  C71      1.0000 0.28300  0.54760  0.14450  Biso   1.000  C
  C72      1.0000 0.21700  0.04760  0.35550  Biso   1.000  C
  H81      1.0000 0.79050  0.40440  0.88470  Biso   1.000  H
  H82      1.0000 0.70950  0.90440  0.61530  Biso   1.000  H
  H83      1.0000 0.20950  0.59560  0.11530  Biso   1.000  H
  H84      1.0000 0.29050  0.09560  0.38470  Biso   1.000  H
  C73      1.0000 0.56700  0.38070  0.85180  Biso   1.000  C
  C74      1.0000 0.93300  0.88070  0.64820  Biso   1.000  C
  C75      1.0000 0.43300  0.61930  0.14820  Biso   1.000  C
  C76      1.0000 0.06700  0.11930  0.35180  Biso   1.000  C
  H85      1.0000 0.51990  0.42040  0.88280  Biso   1.000  H
  H86      1.0000 0.98010  0.92040  0.61720  Biso   1.000  H
  H87      1.0000 0.48010  0.57960  0.11720  Biso   1.000  H
  H88      1.0000 0.01990  0.07960  0.38280  Biso   1.000  H
  H89      1.0000 0.50760  0.41010  0.81530  Biso   1.000  H
  H90      1.0000 0.99240  0.91010  0.68470  Biso   1.000  H
  H91      1.0000 0.49240  0.58990  0.18470  Biso   1.000  H
  H92      1.0000 0.00760  0.08990  0.31530  Biso   1.000  H
  C77      1.0000 0.56100  0.21670  0.85550  Biso   1.000  C
  C78      1.0000 0.93900  0.71670  0.64450  Biso   1.000  C
  C79      1.0000 0.43900  0.78330  0.14450  Biso   1.000  C
  C80      1.0000 0.06100  0.28330  0.35550  Biso   1.000  C
  H93      1.0000 0.59170  0.17630  0.82080  Biso   1.000  H
  H94      1.0000 0.90830  0.67630  0.67920  Biso   1.000  H
  H95      1.0000 0.40830  0.82370  0.17920  Biso   1.000  H
  H96      1.0000 0.09170  0.32370  0.32080  Biso   1.000  H
  H97      1.0000 0.45960  0.18770  0.85520  Biso   1.000  H
  H98      1.0000 0.04040  0.68770  0.64480  Biso   1.000  H
  H99      1.0000 0.54040  0.81230  0.14480  Biso   1.000  H
  H100     1.0000 0.95960  0.31230  0.35520  Biso   1.000  H
  S5       1.0000 0.67110  0.13710  0.91680  Biso   1.000  S
  S6       1.0000 0.82890  0.63710  0.58320  Biso   1.000  S
  S7       1.0000 0.32890  0.86290  0.08320  Biso   1.000  S
  S8       1.0000 0.17110  0.36290  0.41680  Biso   1.000  S
  C81      1.0000 0.58200  0.19800  0.97450  Biso   1.000  C
  C82      1.0000 0.91800  0.69800  0.52550  Biso   1.000  C
  C83      1.0000 0.41800  0.80200  0.02550  Biso   1.000  C
  C84      1.0000 0.08200  0.30200  0.47450  Biso   1.000  C
  H101     1.0000 0.62310  0.14860  0.00970  Biso   1.000  H
  H102     1.0000 0.87690  0.64860  0.49030  Biso   1.000  H
  H103     1.0000 0.37690  0.85140  0.99030  Biso   1.000  H
  H104     1.0000 0.12310  0.35140  0.50970  Biso   1.000  H
  H105     1.0000 0.47810  0.17700  0.96540  Biso   1.000  H
  H106     1.0000 0.02190  0.67700  0.53460  Biso   1.000  H
  H107     1.0000 0.52190  0.82300  0.03460  Biso   1.000  H
  H108     1.0000 0.97810  0.32300  0.46540  Biso   1.000  H
  H109     1.0000 0.59570  0.30200  0.97950  Biso   1.000  H
  H110     1.0000 0.90430  0.80200  0.52050  Biso   1.000  H
  H111     1.0000 0.40430  0.69800  0.02050  Biso   1.000  H
  H112     1.0000 0.09570  0.19800  0.47950  Biso   1.000  H
  Cl1      1.0000 0.27490  0.90700  0.56903  Biso   1.000  Cl
  Cl2      1.0000 0.22510  0.40700  0.93097  Biso   1.000  Cl
  Cl3      1.0000 0.72510  0.09300  0.43097  Biso   1.000  Cl
  Cl4      1.0000 0.77490  0.59300  0.06903  Biso   1.000  Cl
  O9       1.0000 0.27820  0.78190  0.53370  Biso   1.000  O
  O10      1.0000 0.22180  0.28190  0.96630  Biso   1.000  O
  O11      1.0000 0.72180  0.21810  0.46630  Biso   1.000  O
  O12      1.0000 0.77820  0.71810  0.03370  Biso   1.000  O
  O13      1.0000 0.38660  0.89770  0.61763  Biso   1.000  O
  O14      1.0000 0.11340  0.39770  0.88237  Biso   1.000  O
  O15      1.0000 0.61340  0.10230  0.38237  Biso   1.000  O
  O16      1.0000 0.88660  0.60230  0.11763  Biso   1.000  O
  O17      1.0000 0.29760  0.03210  0.53730  Biso   1.000  O
  O18      1.0000 0.20240  0.53210  0.96270  Biso   1.000  O
  O19      1.0000 0.70240  0.96790  0.46270  Biso   1.000  O
  O20      1.0000 0.79760  0.46790  0.03730  Biso   1.000  O
  O21      1.0000 0.13660  0.91510  0.58730  Biso   1.000  O
  O22      1.0000 0.36340  0.41510  0.91270  Biso   1.000  O
  O23      1.0000 0.86340  0.08490  0.41270  Biso   1.000  O
  O24      1.0000 0.63660  0.58490  0.08730  Biso   1.000  O
  Cl5      1.0000 0.26990  0.90700  0.56020  Biso   1.000  Cl
  Cl6      1.0000 0.23010  0.40700  0.93980  Biso   1.000  Cl
  Cl7      1.0000 0.73010  0.09300  0.43980  Biso   1.000  Cl
  Cl8      1.0000 0.76990  0.59300  0.06020  Biso   1.000  Cl
  O25      1.0000 0.28100  0.77300  0.53100  Biso   1.000  O
  O26      1.0000 0.21900  0.27300  0.96900  Biso   1.000  O
  O27      1.0000 0.71900  0.22700  0.46900  Biso   1.000  O
  O28      1.0000 0.78100  0.72700  0.03100  Biso   1.000  O
  O29      1.0000 0.31800  0.88900  0.61980  Biso   1.000  O
  O30      1.0000 0.18200  0.38900  0.88020  Biso   1.000  O
  O31      1.0000 0.68200  0.11100  0.38020  Biso   1.000  O
  O32      1.0000 0.81800  0.61100  0.11980  Biso   1.000  O
  O33      1.0000 0.35500  0.01000  0.53630  Biso   1.000  O
  O34      1.0000 0.14500  0.51000  0.96370  Biso   1.000  O
  O35      1.0000 0.64500  0.99000  0.46370  Biso   1.000  O
  O36      1.0000 0.85500  0.49000  0.03630  Biso   1.000  O
  O37      1.0000 0.12430  0.95800  0.54740  Biso   1.000  O
  O38      1.0000 0.37570  0.45800  0.95260  Biso   1.000  O
  O39      1.0000 0.87570  0.04200  0.45260  Biso   1.000  O
  O40      1.0000 0.62430  0.54200  0.04740  Biso   1.000  O
  Cl9      1.0000 0.27800  0.86900  0.56070  Biso   1.000  Cl
  Cl10     1.0000 0.22200  0.36900  0.93930  Biso   1.000  Cl
  Cl11     1.0000 0.72200  0.13100  0.43930  Biso   1.000  Cl
  Cl12     1.0000 0.77800  0.63100  0.06070  Biso   1.000  Cl
  O41      1.0000 0.25500  0.74000  0.52720  Biso   1.000  O
  O42      1.0000 0.24500  0.24000  0.97280  Biso   1.000  O
  O43      1.0000 0.74500  0.26000  0.47280  Biso   1.000  O
  O44      1.0000 0.75500  0.76000  0.02720  Biso   1.000  O
  O45      1.0000 0.25200  0.84500  0.61750  Biso   1.000  O
  O46      1.0000 0.24800  0.34500  0.88250  Biso   1.000  O
  O47      1.0000 0.74800  0.15500  0.38250  Biso   1.000  O
  O48      1.0000 0.75200  0.65500  0.11750  Biso   1.000  O
  O49      1.0000 0.41600  0.92400  0.55400  Biso   1.000  O
  O50      1.0000 0.08400  0.42400  0.94600  Biso   1.000  O
  O51      1.0000 0.58400  0.07600  0.44600  Biso   1.000  O
  O52      1.0000 0.91600  0.57600  0.05400  Biso   1.000  O
  O53      1.0000 0.18100  0.98100  0.53700  Biso   1.000  O
  O54      1.0000 0.31900  0.48100  0.96300  Biso   1.000  O
  O55      1.0000 0.81900  0.01900  0.46300  Biso   1.000  O
  O56      1.0000 0.68100  0.51900  0.03700  Biso   1.000  O
