data_image0
_cell_length_a       9.599
_cell_length_b       10.082
_cell_length_c       11.708
_cell_angle_alpha    85.213
_cell_angle_beta     67.468
_cell_angle_gamma    62.681

_symmetry_space_group_name_H-M    "P 1"
_symmetry_int_tables_number       1

loop_
  _symmetry_equiv_pos_as_xyz
  'x, y, z'

loop_
  _atom_site_label
  _atom_site_occupancy
  _atom_site_fract_x
  _atom_site_fract_y
  _atom_site_fract_z
  _atom_site_thermal_displace_type
  _atom_site_B_iso_or_equiv
  _atom_site_type_symbol
  Cu1      1.0000 0.79932  0.33663  0.72992  Biso   1.000  Cu
  Cu2      1.0000 0.20068  0.66337  0.27008  Biso   1.000  Cu
  N1       1.0000 0.28780  0.60330  0.80410  Biso   1.000  N
  N2       1.0000 0.71220  0.39670  0.19590  Biso   1.000  N
  N3       1.0000 0.73310  0.83850  0.24800  Biso   1.000  N
  N4       1.0000 0.26690  0.16150  0.75200  Biso   1.000  N
  N5       1.0000 0.89230  0.73060  0.22710  Biso   1.000  N
  N6       1.0000 0.10770  0.26940  0.77290  Biso   1.000  N
  N7       1.0000 0.95170  0.77780  0.28970  Biso   1.000  N
  N8       1.0000 0.04830  0.22220  0.71030  Biso   1.000  N
  O1       1.0000 0.76790  0.51740  0.80495  Biso   1.000  O
  O2       1.0000 0.23210  0.48260  0.19505  Biso   1.000  O
  O3       1.0000 0.81030  0.65100  0.64540  Biso   1.000  O
  O4       1.0000 0.18970  0.34900  0.35460  Biso   1.000  O
  O5       1.0000 0.79340  0.14260  0.73117  Biso   1.000  O
  O6       1.0000 0.20660  0.85740  0.26883  Biso   1.000  O
  O7       1.0000 0.69630  0.23140  0.92690  Biso   1.000  O
  O8       1.0000 0.30370  0.76860  0.07310  Biso   1.000  O
  O9       1.0000 0.56510  0.43930  0.72960  Biso   1.000  O
  O10      1.0000 0.43490  0.56070  0.27040  Biso   1.000  O
  O11      1.0000 0.87340  0.38840  0.52590  Biso   1.000  O
  O12      1.0000 0.12660  0.61160  0.47410  Biso   1.000  O
  H1       1.0000 0.98010  0.35950  0.45890  Biso   1.000  H
  H2       1.0000 0.01990  0.64050  0.54110  Biso   1.000  H
  H3       1.0000 0.85180  0.48670  0.54070  Biso   1.000  H
  H4       1.0000 0.14820  0.51330  0.45930  Biso   1.000  H
  C1       1.0000 0.68240  0.83770  0.05540  Biso   1.000  C
  C2       1.0000 0.31760  0.16230  0.94460  Biso   1.000  C
  C3       1.0000 0.71260  0.72920  0.97080  Biso   1.000  C
  C4       1.0000 0.28740  0.27080  0.02920  Biso   1.000  C
  H5       1.0000 0.70540  0.64250  0.99850  Biso   1.000  H
  H6       1.0000 0.29460  0.35750  0.00150  Biso   1.000  H
  C5       1.0000 0.75350  0.74830  0.84550  Biso   1.000  C
  C6       1.0000 0.24650  0.25170  0.15450  Biso   1.000  C
  C7       1.0000 0.76590  0.87750  0.80420  Biso   1.000  C
  C8       1.0000 0.23410  0.12250  0.19580  Biso   1.000  C
  H7       1.0000 0.79580  0.89020  0.72010  Biso   1.000  H
  H8       1.0000 0.20420  0.10980  0.27990  Biso   1.000  H
  C9       1.0000 0.73390  0.98750  0.88840  Biso   1.000  C
  C10      1.0000 0.26610  0.01250  0.11160  Biso   1.000  C
  C11      1.0000 0.69200  0.96700  0.01270  Biso   1.000  C
  C12      1.0000 0.30800  0.03300  0.98730  Biso   1.000  C
  H9       1.0000 0.66990  0.04110  0.06890  Biso   1.000  H
  H10      1.0000 0.33010  0.95890  0.93110  Biso   1.000  H
  C13      1.0000 0.63170  0.81580  0.19150  Biso   1.000  C
  C14      1.0000 0.36830  0.18420  0.80850  Biso   1.000  C
  H11      1.0000 0.51250  0.88560  0.23580  Biso   1.000  H
  H12      1.0000 0.48750  0.11440  0.76420  Biso   1.000  H
  H13      1.0000 0.64450  0.71480  0.20110  Biso   1.000  H
  H14      1.0000 0.35550  0.28520  0.79890  Biso   1.000  H
  C15      1.0000 0.82980  0.91700  0.35310  Biso   1.000  C
  C16      1.0000 0.17020  0.08300  0.64690  Biso   1.000  C
  C17      1.0000 0.68890  0.95790  0.32440  Biso   1.000  C
  C18      1.0000 0.31110  0.04210  0.67560  Biso   1.000  C
  C19      1.0000 0.54110  0.09550  0.37150  Biso   1.000  C
  C20      1.0000 0.45890  0.90450  0.62850  Biso   1.000  C
  H15      1.0000 0.44800  0.12210  0.35080  Biso   1.000  H
  H16      1.0000 0.55200  0.87790  0.64920  Biso   1.000  H
  C21      1.0000 0.54200  0.18840  0.44970  Biso   1.000  C
  C22      1.0000 0.45800  0.81160  0.55030  Biso   1.000  C
  H17      1.0000 0.44780  0.28210  0.48140  Biso   1.000  H
  H18      1.0000 0.55220  0.71790  0.51860  Biso   1.000  H
  C23      1.0000 0.68180  0.14620  0.48380  Biso   1.000  C
  C24      1.0000 0.31820  0.85380  0.51620  Biso   1.000  C
  H19      1.0000 0.67550  0.21110  0.53970  Biso   1.000  H
  H20      1.0000 0.32450  0.78890  0.46030  Biso   1.000  H
  C25      1.0000 0.82700  0.01120  0.43620  Biso   1.000  C
  C26      1.0000 0.17300  0.98880  0.56380  Biso   1.000  C
  H21      1.0000 0.91910  0.98380  0.45820  Biso   1.000  H
  H22      1.0000 0.08090  0.01620  0.54180  Biso   1.000  H
  C27      1.0000 0.43910  0.53810  0.80900  Biso   1.000  C
  C28      1.0000 0.56090  0.46190  0.19100  Biso   1.000  C
  H23      1.0000 0.45130  0.56820  0.87610  Biso   1.000  H
  H24      1.0000 0.54870  0.43180  0.12390  Biso   1.000  H
  C29      1.0000 0.25900  0.56960  0.69930  Biso   1.000  C
  C30      1.0000 0.74100  0.43040  0.30070  Biso   1.000  C
  H25      1.0000 0.36640  0.50660  0.63450  Biso   1.000  H
  H26      1.0000 0.63360  0.49340  0.36550  Biso   1.000  H
  H27      1.0000 0.20110  0.66140  0.66850  Biso   1.000  H
  H28      1.0000 0.79890  0.33860  0.33150  Biso   1.000  H
  H29      1.0000 0.19060  0.51840  0.72580  Biso   1.000  H
  H30      1.0000 0.80940  0.48160  0.27420  Biso   1.000  H
  C31      1.0000 0.14130  0.71920  0.89990  Biso   1.000  C
  C32      1.0000 0.85870  0.28080  0.10010  Biso   1.000  C
  H31      1.0000 0.04720  0.69710  0.92550  Biso   1.000  H
  H32      1.0000 0.95280  0.30290  0.07450  Biso   1.000  H
  H33      1.0000 0.11110  0.81470  0.86760  Biso   1.000  H
  H34      1.0000 0.88890  0.18530  0.13240  Biso   1.000  H
  H35      1.0000 0.16870  0.72240  0.97000  Biso   1.000  H
  H36      1.0000 0.83130  0.27760  0.03000  Biso   1.000  H
  C33      1.0000 0.78110  0.63040  0.75630  Biso   1.000  C
  C34      1.0000 0.21890  0.36960  0.24370  Biso   1.000  C
  C35      1.0000 0.74110  0.13130  0.84720  Biso   1.000  C
  C36      1.0000 0.25890  0.86870  0.15280  Biso   1.000  C
