data_image0
_cell_length_a       10.3001
_cell_length_b       16.3346
_cell_length_c       16.4319
_cell_angle_alpha    74.329
_cell_angle_beta     86.389
_cell_angle_gamma    78.1

_symmetry_space_group_name_H-M    "P 1"
_symmetry_int_tables_number       1

loop_
  _symmetry_equiv_pos_as_xyz
  'x, y, z'

loop_
  _atom_site_label
  _atom_site_occupancy
  _atom_site_fract_x
  _atom_site_fract_y
  _atom_site_fract_z
  _atom_site_thermal_displace_type
  _atom_site_B_iso_or_equiv
  _atom_site_type_symbol
  Mo1      1.0000 0.28145  0.31325  0.29120  Biso   1.000  Mo
  Mo2      1.0000 0.71855  0.68675  0.70880  Biso   1.000  Mo
  C1       1.0000 0.33810  0.40790  0.18410  Biso   1.000  C
  C2       1.0000 0.66190  0.59210  0.81590  Biso   1.000  C
  N1       1.0000 0.37130  0.45750  0.12690  Biso   1.000  N
  N2       1.0000 0.62870  0.54250  0.87310  Biso   1.000  N
  C3       1.0000 0.10360  0.40560  0.24168  Biso   1.000  C
  C4       1.0000 0.89640  0.59440  0.75832  Biso   1.000  C
  N3       1.0000 0.01000  0.45750  0.21964  Biso   1.000  N
  N4       1.0000 0.99000  0.54250  0.78036  Biso   1.000  N
  C5       1.0000 0.40160  0.38340  0.33890  Biso   1.000  C
  C6       1.0000 0.59840  0.61660  0.66110  Biso   1.000  C
  N5       1.0000 0.46640  0.41890  0.36500  Biso   1.000  N
  N6       1.0000 0.53360  0.58110  0.63500  Biso   1.000  N
  C7       1.0000 0.17020  0.35140  0.39460  Biso   1.000  C
  C8       1.0000 0.82980  0.64860  0.60540  Biso   1.000  C
  N7       1.0000 0.10690  0.37460  0.44697  Biso   1.000  N
  N8       1.0000 0.89310  0.62540  0.55303  Biso   1.000  N
  C9       1.0000 0.14180  0.22770  0.32850  Biso   1.000  C
  C10      1.0000 0.85820  0.77230  0.67150  Biso   1.000  C
  N9       1.0000 0.06870  0.18280  0.35230  Biso   1.000  N
  N10      1.0000 0.93130  0.81720  0.64770  Biso   1.000  N
  C11      1.0000 0.36420  0.21470  0.40040  Biso   1.000  C
  C12      1.0000 0.63580  0.78530  0.59960  Biso   1.000  C
  N11      1.0000 0.40980  0.16070  0.45730  Biso   1.000  N
  N12      1.0000 0.59020  0.83930  0.54270  Biso   1.000  N
  C13      1.0000 0.47870  0.25450  0.25719  Biso   1.000  C
  C14      1.0000 0.52130  0.74550  0.74281  Biso   1.000  C
  N13      1.0000 0.58380  0.22340  0.23959  Biso   1.000  N
  N14      1.0000 0.41620  0.77660  0.76041  Biso   1.000  N
  C15      1.0000 0.25400  0.26330  0.18600  Biso   1.000  C
  C16      1.0000 0.74600  0.73670  0.81400  Biso   1.000  C
  N15      1.0000 0.24130  0.23420  0.13160  Biso   1.000  N
  N16      1.0000 0.75870  0.76580  0.86840  Biso   1.000  N
  Cu1      1.0000 0.50000  0.50000  0.00000  Biso   1.000  Cu
  N17      1.0000 0.39010  0.45960  0.92675  Biso   1.000  N
  N18      1.0000 0.60990  0.54040  0.07325  Biso   1.000  N
  H1       1.0000 0.42780  0.47120  0.87440  Biso   1.000  H
  H2       1.0000 0.57220  0.52880  0.12560  Biso   1.000  H
  N19      1.0000 0.40330  0.62730  0.96552  Biso   1.000  N
  N20      1.0000 0.59670  0.37270  0.03448  Biso   1.000  N
  H3       1.0000 0.44290  0.64990  0.91580  Biso   1.000  H
  H4       1.0000 0.55710  0.35010  0.08420  Biso   1.000  H
  C17      1.0000 0.36370  0.32090  0.89420  Biso   1.000  C
  C18      1.0000 0.63630  0.67910  0.10580  Biso   1.000  C
  H5       1.0000 0.26900  0.34090  0.88550  Biso   1.000  H
  H6       1.0000 0.73100  0.65910  0.11450  Biso   1.000  H
  H7       1.0000 0.40790  0.33800  0.84010  Biso   1.000  H
  H8       1.0000 0.59210  0.66200  0.15990  Biso   1.000  H
  C19      1.0000 0.40970  0.36350  0.95640  Biso   1.000  C
  C20      1.0000 0.59030  0.63650  0.04360  Biso   1.000  C
  H9       1.0000 0.35980  0.34850  0.00930  Biso   1.000  H
  H10      1.0000 0.64020  0.65150  0.99070  Biso   1.000  H
  C21      1.0000 0.25060  0.50300  0.91520  Biso   1.000  C
  C22      1.0000 0.74940  0.49700  0.08480  Biso   1.000  C
  H11      1.0000 0.20420  0.49010  0.96900  Biso   1.000  H
  H12      1.0000 0.79580  0.50990  0.03100  Biso   1.000  H
  H13      1.0000 0.21010  0.48060  0.87620  Biso   1.000  H
  H14      1.0000 0.78990  0.51940  0.12380  Biso   1.000  H
  C23      1.0000 0.23580  0.60070  0.88120  Biso   1.000  C
  C24      1.0000 0.76420  0.39930  0.11880  Biso   1.000  C
  H15      1.0000 0.29810  0.61230  0.83470  Biso   1.000  H
  H16      1.0000 0.70190  0.38770  0.16530  Biso   1.000  H
  H17      1.0000 0.14720  0.62410  0.85850  Biso   1.000  H
  H18      1.0000 0.85280  0.37590  0.14150  Biso   1.000  H
  C25      1.0000 0.25800  0.64900  0.94460  Biso   1.000  C
  C26      1.0000 0.74200  0.35100  0.05540  Biso   1.000  C
  H19      1.0000 0.23660  0.71110  0.91590  Biso   1.000  H
  H20      1.0000 0.76340  0.28890  0.08410  Biso   1.000  H
  C27      1.0000 0.16900  0.63420  0.02310  Biso   1.000  C
  C28      1.0000 0.83100  0.36580  0.97690  Biso   1.000  C
  H21      1.0000 0.17930  0.67370  0.05580  Biso   1.000  H
  H22      1.0000 0.82070  0.32630  0.94420  Biso   1.000  H
  H23      1.0000 0.19820  0.57550  0.05780  Biso   1.000  H
  H24      1.0000 0.80180  0.42450  0.94220  Biso   1.000  H
  C29      1.0000 0.02060  0.64740  0.00260  Biso   1.000  C
  C30      1.0000 0.97940  0.35260  0.99740  Biso   1.000  C
  H25      1.0000 0.99500  0.70080  0.95980  Biso   1.000  H
  H26      1.0000 0.00500  0.29920  0.04020  Biso   1.000  H
  H27      1.0000 0.96830  0.64970  0.05270  Biso   1.000  H
  H28      1.0000 0.03170  0.35030  0.94730  Biso   1.000  H
  H29      1.0000 0.00620  0.60000  0.98250  Biso   1.000  H
  H30      1.0000 0.99380  0.40000  0.01750  Biso   1.000  H
  C31      1.0000 0.44320  0.67220  0.02470  Biso   1.000  C
  C32      1.0000 0.55680  0.32780  0.97530  Biso   1.000  C
  H31      1.0000 0.39350  0.65680  0.07760  Biso   1.000  H
  H32      1.0000 0.60650  0.34320  0.92240  Biso   1.000  H
  C33      1.0000 0.41430  0.77050  0.99170  Biso   1.000  C
  C34      1.0000 0.58570  0.22950  0.00830  Biso   1.000  C
  H33      1.0000 0.45950  0.78700  0.93800  Biso   1.000  H
  H34      1.0000 0.54050  0.21300  0.06200  Biso   1.000  H
  H35      1.0000 0.31980  0.79100  0.98230  Biso   1.000  H
  H36      1.0000 0.68020  0.20900  0.01770  Biso   1.000  H
  C35      1.0000 0.45880  0.81290  0.05260  Biso   1.000  C
  C36      1.0000 0.54120  0.18710  0.94740  Biso   1.000  C
  H37      1.0000 0.40620  0.80240  0.10410  Biso   1.000  H
  H38      1.0000 0.59380  0.19760  0.89590  Biso   1.000  H
  H39      1.0000 0.44510  0.87510  0.02800  Biso   1.000  H
  H40      1.0000 0.55490  0.12490  0.97200  Biso   1.000  H
  C37      1.0000 0.39400  0.22300  0.92650  Biso   1.000  C
  C38      1.0000 0.60600  0.77700  0.07350  Biso   1.000  C
  H41      1.0000 0.34120  0.20580  0.97680  Biso   1.000  H
  H42      1.0000 0.65880  0.79420  0.02320  Biso   1.000  H
  H43      1.0000 0.36890  0.19800  0.88400  Biso   1.000  H
  H44      1.0000 0.63110  0.80200  0.11600  Biso   1.000  H
  Cu2      1.0000 1.00000  0.50000  0.50000  Biso   1.000  Cu
  N21      1.0000 0.03380  0.43585  0.62583  Biso   1.000  N
  N22      1.0000 0.96620  0.56415  0.37417  Biso   1.000  N
  H45      1.0000 0.00110  0.47720  0.65340  Biso   1.000  H
  H46      1.0000 0.99890  0.52280  0.34660  Biso   1.000  H
  N23      1.0000 0.16550  0.55136  0.48398  Biso   1.000  N
  N24      1.0000 0.83450  0.44864  0.51602  Biso   1.000  N
  H47      1.0000 0.14360  0.60080  0.50150  Biso   1.000  H
  H48      1.0000 0.85640  0.39920  0.49850  Biso   1.000  H
  C39      1.0000 0.82400  0.28080  0.76720  Biso   1.000  C
  C40      1.0000 0.17600  0.71920  0.23280  Biso   1.000  C
  H49      1.0000 0.85520  0.23030  0.74570  Biso   1.000  H
  H50      1.0000 0.14480  0.76970  0.25430  Biso   1.000  H
  H51      1.0000 0.81370  0.26110  0.82800  Biso   1.000  H
  H52      1.0000 0.18630  0.73890  0.17200  Biso   1.000  H
  C41      1.0000 0.92540  0.33970  0.74630  Biso   1.000  C
  C42      1.0000 0.07460  0.66030  0.25370  Biso   1.000  C
  H53      1.0000 0.01030  0.30760  0.77050  Biso   1.000  H
  H54      1.0000 0.98970  0.69240  0.22950  Biso   1.000  H
  H55      1.0000 0.89700  0.38800  0.77120  Biso   1.000  H
  H56      1.0000 0.10300  0.61200  0.22880  Biso   1.000  H
  C43      1.0000 0.94120  0.37420  0.65060  Biso   1.000  C
  C44      1.0000 0.05880  0.62580  0.34940  Biso   1.000  C
  H57      1.0000 0.97610  0.32460  0.62740  Biso   1.000  H
  H58      1.0000 0.02390  0.67540  0.37260  Biso   1.000  H
  C45      1.0000 0.17220  0.40100  0.65850  Biso   1.000  C
  C46      1.0000 0.82780  0.59900  0.34150  Biso   1.000  C
  H59      1.0000 0.16710  0.38790  0.72030  Biso   1.000  H
  H60      1.0000 0.83290  0.61210  0.27970  Biso   1.000  H
  C47      1.0000 0.23330  0.31630  0.63590  Biso   1.000  C
  C48      1.0000 0.76670  0.68370  0.36410  Biso   1.000  C
  H61      1.0000 0.18150  0.27270  0.66260  Biso   1.000  H
  H62      1.0000 0.81850  0.72730  0.33740  Biso   1.000  H
  H63      1.0000 0.22850  0.32550  0.57520  Biso   1.000  H
  H64      1.0000 0.77150  0.67450  0.42480  Biso   1.000  H
  C49      1.0000 0.37710  0.28220  0.66320  Biso   1.000  C
  C50      1.0000 0.62290  0.71780  0.33680  Biso   1.000  C
  H65      1.0000 0.43000  0.32340  0.63430  Biso   1.000  H
  H66      1.0000 0.57000  0.67660  0.36570  Biso   1.000  H
  H67      1.0000 0.40910  0.22800  0.64960  Biso   1.000  H
  H68      1.0000 0.59090  0.77200  0.35040  Biso   1.000  H
  H69      1.0000 0.38280  0.27380  0.72310  Biso   1.000  H
  H70      1.0000 0.61720  0.72620  0.27690  Biso   1.000  H
  C51      1.0000 0.25250  0.47260  0.62810  Biso   1.000  C
  C52      1.0000 0.74750  0.52740  0.37190  Biso   1.000  C
  H71      1.0000 0.20450  0.52370  0.64390  Biso   1.000  H
  H72      1.0000 0.79550  0.47630  0.35610  Biso   1.000  H
  H73      1.0000 0.33590  0.45400  0.65830  Biso   1.000  H
  H74      1.0000 0.66410  0.54600  0.34170  Biso   1.000  H
  C53      1.0000 0.28340  0.49860  0.53370  Biso   1.000  C
  C54      1.0000 0.71660  0.50140  0.46630  Biso   1.000  C
  H75      1.0000 0.35380  0.53160  0.52410  Biso   1.000  H
  H76      1.0000 0.64620  0.46840  0.47590  Biso   1.000  H
  H77      1.0000 0.31490  0.44680  0.51450  Biso   1.000  H
  H78      1.0000 0.68510  0.55320  0.48550  Biso   1.000  H
  C55      1.0000 0.19150  0.57970  0.39160  Biso   1.000  C
  C56      1.0000 0.80850  0.42030  0.60840  Biso   1.000  C
  H79      1.0000 0.22320  0.52770  0.37150  Biso   1.000  H
  H80      1.0000 0.77680  0.47230  0.62850  Biso   1.000  H
  C57      1.0000 0.29600  0.63650  0.36850  Biso   1.000  C
  C58      1.0000 0.70400  0.36350  0.63150  Biso   1.000  C
  H81      1.0000 0.38100  0.60300  0.39150  Biso   1.000  H
  H82      1.0000 0.61900  0.39700  0.60850  Biso   1.000  H
  H83      1.0000 0.27160  0.68500  0.39340  Biso   1.000  H
  H84      1.0000 0.72840  0.31500  0.60660  Biso   1.000  H
  C59      1.0000 0.69140  0.32940  0.72780  Biso   1.000  C
  C60      1.0000 0.30860  0.67060  0.27220  Biso   1.000  C
  H85      1.0000 0.62820  0.29100  0.74060  Biso   1.000  H
  H86      1.0000 0.37180  0.70900  0.25940  Biso   1.000  H
  H87      1.0000 0.65790  0.37770  0.75200  Biso   1.000  H
  H88      1.0000 0.34210  0.62230  0.24800  Biso   1.000  H
  Cu3      1.0000 0.50000  0.00000  0.50000  Biso   1.000  Cu
  N25      1.0000 0.42340  0.97927  0.62082  Biso   1.000  N
  N26      1.0000 0.57660  0.02073  0.37918  Biso   1.000  N
  H89      1.0000 0.44980  0.92120  0.64350  Biso   1.000  H
  H90      1.0000 0.55020  0.07880  0.35650  Biso   1.000  H
  N27      1.0000 0.64830  0.03479  0.54914  Biso   1.000  N
  N28      1.0000 0.35170  0.96521  0.45086  Biso   1.000  N
  H91      1.0000 0.62680  0.09360  0.53820  Biso   1.000  H
  H92      1.0000 0.37320  0.90640  0.46180  Biso   1.000  H
  C61      1.0000 0.06540  0.10940  0.62730  Biso   1.000  C
  C62      1.0000 0.93460  0.89060  0.37270  Biso   1.000  C
  H93      1.0000 0.02710  0.08750  0.58770  Biso   1.000  H
  H94      1.0000 0.97290  0.91250  0.41230  Biso   1.000  H
  H95      1.0000 0.03240  0.17070  0.61650  Biso   1.000  H
  H96      1.0000 0.96760  0.82930  0.38350  Biso   1.000  H
  H97      1.0000 0.04170  0.08100  0.68370  Biso   1.000  H
  H98      1.0000 0.95830  0.91900  0.31630  Biso   1.000  H
  C63      1.0000 0.21580  0.09190  0.61740  Biso   1.000  C
  C64      1.0000 0.78420  0.90810  0.38260  Biso   1.000  C
  H99      1.0000 0.25360  0.11580  0.65630  Biso   1.000  H
  H100     1.0000 0.74640  0.88420  0.34370  Biso   1.000  H
  H101     1.0000 0.23910  0.12120  0.56050  Biso   1.000  H
  H102     1.0000 0.76090  0.87880  0.43950  Biso   1.000  H
  C65      1.0000 0.27600  0.99550  0.63450  Biso   1.000  C
  C66      1.0000 0.72400  0.00450  0.36550  Biso   1.000  C
  H103     1.0000 0.25970  0.96880  0.69420  Biso   1.000  H
  H104     1.0000 0.74030  0.03120  0.30580  Biso   1.000  H
  C67      1.0000 0.49800  0.01890  0.66960  Biso   1.000  C
  C68      1.0000 0.50200  0.98110  0.33040  Biso   1.000  C
  H105     1.0000 0.46480  0.08170  0.65340  Biso   1.000  H
  H106     1.0000 0.53520  0.91830  0.34660  Biso   1.000  H
  C69      1.0000 0.48260  0.98660  0.76530  Biso   1.000  C
  C70      1.0000 0.51740  0.01340  0.23470  Biso   1.000  C
  H107     1.0000 0.51120  0.92410  0.78270  Biso   1.000  H
  H108     1.0000 0.48880  0.07590  0.21730  Biso   1.000  H
  H109     1.0000 0.38980  0.00050  0.78080  Biso   1.000  H
  H110     1.0000 0.61020  0.99950  0.21920  Biso   1.000  H
  C71      1.0000 0.56490  0.02830  0.81140  Biso   1.000  C
  C72      1.0000 0.43510  0.97170  0.18860  Biso   1.000  C
  H111     1.0000 0.53090  0.09040  0.79830  Biso   1.000  H
  H112     1.0000 0.46910  0.90960  0.20170  Biso   1.000  H
  H113     1.0000 0.55690  0.00480  0.87200  Biso   1.000  H
  H114     1.0000 0.44310  0.99520  0.12800  Biso   1.000  H
  C73      1.0000 0.70980  0.01140  0.78530  Biso   1.000  C
  C74      1.0000 0.29020  0.98860  0.21470  Biso   1.000  C
  H115     1.0000 0.74610  0.94970  0.80380  Biso   1.000  H
  H116     1.0000 0.25390  0.05030  0.19620  Biso   1.000  H
  H117     1.0000 0.75900  0.04090  0.81280  Biso   1.000  H
  H118     1.0000 0.24100  0.95910  0.18720  Biso   1.000  H
  C75      1.0000 0.72670  0.04310  0.68900  Biso   1.000  C
  C76      1.0000 0.27330  0.95690  0.31100  Biso   1.000  C
  H119     1.0000 0.69930  0.10570  0.67130  Biso   1.000  H
  H120     1.0000 0.30070  0.89430  0.32870  Biso   1.000  H
  H121     1.0000 0.81960  0.02830  0.67400  Biso   1.000  H
  H122     1.0000 0.18040  0.97170  0.32600  Biso   1.000  H
  C77      1.0000 0.64390  0.00190  0.64260  Biso   1.000  C
  C78      1.0000 0.35610  0.99810  0.35740  Biso   1.000  C
  H123     1.0000 0.67740  0.93910  0.65770  Biso   1.000  H
  H124     1.0000 0.32260  0.06090  0.34230  Biso   1.000  H
  C79      1.0000 0.78350  0.01520  0.51240  Biso   1.000  C
  C80      1.0000 0.21650  0.98480  0.48760  Biso   1.000  C
  H125     1.0000 0.81460  0.95290  0.52590  Biso   1.000  H
  H126     1.0000 0.18540  0.04710  0.47410  Biso   1.000  H
  H127     1.0000 0.84410  0.03950  0.53760  Biso   1.000  H
  H128     1.0000 0.15590  0.96050  0.46240  Biso   1.000  H
  C81      1.0000 0.21590  0.94770  0.58300  Biso   1.000  C
  C82      1.0000 0.78410  0.05230  0.41700  Biso   1.000  C
  H129     1.0000 0.12480  0.94690  0.60160  Biso   1.000  H
  H130     1.0000 0.87520  0.05310  0.39840  Biso   1.000  H
  H131     1.0000 0.26370  0.88810  0.59590  Biso   1.000  H
  H132     1.0000 0.73630  0.11190  0.40410  Biso   1.000  H
  C83      1.0000 0.78820  0.30700  0.34710  Biso   1.000  C
  C84      1.0000 0.21180  0.69300  0.65290  Biso   1.000  C
  O1       1.0000 0.83320  0.28270  0.43470  Biso   1.000  O
  O2       1.0000 0.16680  0.71730  0.56530  Biso   1.000  O
  O3       1.0000 0.92060  0.13630  0.19210  Biso   1.000  O
  O4       1.0000 0.07940  0.86370  0.80790  Biso   1.000  O
  O5       1.0000 0.36390  0.77430  0.48590  Biso   1.000  O
  O6       1.0000 0.63610  0.22570  0.51410  Biso   1.000  O
  O7       1.0000 0.84620  0.88590  0.14510  Biso   1.000  O
  O8       1.0000 0.15380  0.11410  0.85490  Biso   1.000  O
