data_image0
_cell_length_a       10.3034
_cell_length_b       16.2949
_cell_length_c       16.4554
_cell_angle_alpha    74.449
_cell_angle_beta     86.021
_cell_angle_gamma    78.316

_symmetry_space_group_name_H-M    "P 1"
_symmetry_int_tables_number       1

loop_
  _symmetry_equiv_pos_as_xyz
  'x, y, z'

loop_
  _atom_site_label
  _atom_site_occupancy
  _atom_site_fract_x
  _atom_site_fract_y
  _atom_site_fract_z
  _atom_site_thermal_displace_type
  _atom_site_B_iso_or_equiv
  _atom_site_type_symbol
  W1       1.0000 0.28207  0.31204  0.29112  Biso   1.000  W
  W2       1.0000 0.71793  0.68796  0.70888  Biso   1.000  W
  C1       1.0000 0.33840  0.40680  0.18290  Biso   1.000  C
  C2       1.0000 0.66160  0.59320  0.81710  Biso   1.000  C
  N1       1.0000 0.36950  0.45720  0.12590  Biso   1.000  N
  N2       1.0000 0.63050  0.54280  0.87410  Biso   1.000  N
  C3       1.0000 0.25460  0.26150  0.18640  Biso   1.000  C
  C4       1.0000 0.74540  0.73850  0.81360  Biso   1.000  C
  N3       1.0000 0.24160  0.23250  0.13200  Biso   1.000  N
  N4       1.0000 0.75840  0.76750  0.86800  Biso   1.000  N
  C5       1.0000 0.47960  0.25410  0.25590  Biso   1.000  C
  C6       1.0000 0.52040  0.74590  0.74410  Biso   1.000  C
  N5       1.0000 0.58360  0.22280  0.23770  Biso   1.000  N
  N6       1.0000 0.41640  0.77720  0.76230  Biso   1.000  N
  C7       1.0000 0.17120  0.35140  0.39440  Biso   1.000  C
  C8       1.0000 0.82880  0.64860  0.60560  Biso   1.000  C
  N7       1.0000 0.10840  0.37500  0.44740  Biso   1.000  N
  N8       1.0000 0.89160  0.62500  0.55260  Biso   1.000  N
  C9       1.0000 0.40260  0.38520  0.33640  Biso   1.000  C
  C10      1.0000 0.59740  0.61480  0.66360  Biso   1.000  C
  N9       1.0000 0.46620  0.42260  0.35990  Biso   1.000  N
  N10      1.0000 0.53380  0.57740  0.64010  Biso   1.000  N
  C11      1.0000 0.36660  0.21480  0.40060  Biso   1.000  C
  C12      1.0000 0.63340  0.78520  0.59940  Biso   1.000  C
  N11      1.0000 0.41360  0.16240  0.45710  Biso   1.000  N
  N12      1.0000 0.58640  0.83760  0.54290  Biso   1.000  N
  C13      1.0000 0.14410  0.22510  0.33200  Biso   1.000  C
  C14      1.0000 0.85590  0.77490  0.66800  Biso   1.000  C
  N13      1.0000 0.07000  0.18080  0.35620  Biso   1.000  N
  N14      1.0000 0.93000  0.81920  0.64380  Biso   1.000  N
  C15      1.0000 0.10260  0.40270  0.24220  Biso   1.000  C
  C16      1.0000 0.89740  0.59730  0.75780  Biso   1.000  C
  N15      1.0000 0.00910  0.45390  0.22040  Biso   1.000  N
  N16      1.0000 0.99090  0.54610  0.77960  Biso   1.000  N
  Cu1      1.0000 0.50000  0.50000  0.00000  Biso   1.000  Cu
  N17      1.0000 0.59750  0.37320  0.03420  Biso   1.000  N
  N18      1.0000 0.40250  0.62680  0.96580  Biso   1.000  N
  H1       1.0000 0.55770  0.35030  0.08390  Biso   1.000  H
  H2       1.0000 0.44230  0.64970  0.91610  Biso   1.000  H
  N19      1.0000 0.60820  0.54170  0.07280  Biso   1.000  N
  N20      1.0000 0.39180  0.45830  0.92720  Biso   1.000  N
  H3       1.0000 0.57040  0.52990  0.12530  Biso   1.000  H
  H4       1.0000 0.42960  0.47010  0.87470  Biso   1.000  H
  C17      1.0000 0.53940  0.18710  0.94640  Biso   1.000  C
  C18      1.0000 0.46060  0.81290  0.05360  Biso   1.000  C
  H5       1.0000 0.59160  0.19780  0.89470  Biso   1.000  H
  H6       1.0000 0.40840  0.80220  0.10530  Biso   1.000  H
  H7       1.0000 0.55230  0.12480  0.97030  Biso   1.000  H
  H8       1.0000 0.44770  0.87520  0.02970  Biso   1.000  H
  C19      1.0000 0.58780  0.22860  0.00830  Biso   1.000  C
  C20      1.0000 0.41220  0.77140  0.99170  Biso   1.000  C
  H9       1.0000 0.68240  0.20820  0.01590  Biso   1.000  H
  H10      1.0000 0.31760  0.79180  0.98410  Biso   1.000  H
  H11      1.0000 0.54400  0.21180  0.06260  Biso   1.000  H
  H12      1.0000 0.45600  0.78820  0.93740  Biso   1.000  H
  C21      1.0000 0.55820  0.32780  0.97510  Biso   1.000  C
  C22      1.0000 0.44180  0.67220  0.02490  Biso   1.000  C
  H13      1.0000 0.60820  0.34330  0.92210  Biso   1.000  H
  H14      1.0000 0.39180  0.65670  0.07790  Biso   1.000  H
  C23      1.0000 0.97980  0.35090  0.99490  Biso   1.000  C
  C24      1.0000 0.02020  0.64910  0.00510  Biso   1.000  C
  H15      1.0000 0.99430  0.39220  0.02370  Biso   1.000  H
  H16      1.0000 0.00570  0.60780  0.97630  Biso   1.000  H
  H17      1.0000 0.03010  0.35800  0.94290  Biso   1.000  H
  H18      1.0000 0.96990  0.64200  0.05710  Biso   1.000  H
  H19      1.0000 0.00740  0.29320  0.02980  Biso   1.000  H
  H20      1.0000 0.99260  0.70680  0.97020  Biso   1.000  H
  C25      1.0000 0.83140  0.36600  0.97580  Biso   1.000  C
  C26      1.0000 0.16860  0.63400  0.02420  Biso   1.000  C
  H21      1.0000 0.80360  0.42520  0.94230  Biso   1.000  H
  H22      1.0000 0.19640  0.57480  0.05770  Biso   1.000  H
  H23      1.0000 0.81880  0.32760  0.94230  Biso   1.000  H
  H24      1.0000 0.18120  0.67240  0.05770  Biso   1.000  H
  C27      1.0000 0.74370  0.35070  0.05460  Biso   1.000  C
  C28      1.0000 0.25630  0.64930  0.94540  Biso   1.000  C
  H25      1.0000 0.76480  0.28880  0.08350  Biso   1.000  H
  H26      1.0000 0.23520  0.71120  0.91650  Biso   1.000  H
  C29      1.0000 0.76420  0.40200  0.11780  Biso   1.000  C
  C30      1.0000 0.23580  0.59800  0.88220  Biso   1.000  C
  H27      1.0000 0.70160  0.39040  0.16440  Biso   1.000  H
  H28      1.0000 0.29840  0.60960  0.83560  Biso   1.000  H
  H29      1.0000 0.85250  0.37960  0.14060  Biso   1.000  H
  H30      1.0000 0.14750  0.62040  0.85940  Biso   1.000  H
  C31      1.0000 0.74860  0.49880  0.08360  Biso   1.000  C
  C32      1.0000 0.25140  0.50120  0.91640  Biso   1.000  C
  H31      1.0000 0.78920  0.52190  0.12180  Biso   1.000  H
  H32      1.0000 0.21080  0.47810  0.87820  Biso   1.000  H
  H33      1.0000 0.79470  0.51150  0.02960  Biso   1.000  H
  H34      1.0000 0.20530  0.48850  0.97040  Biso   1.000  H
  C33      1.0000 0.41120  0.36230  0.95640  Biso   1.000  C
  C34      1.0000 0.58880  0.63770  0.04360  Biso   1.000  C
  H35      1.0000 0.36100  0.34730  0.00930  Biso   1.000  H
  H36      1.0000 0.63900  0.65270  0.99070  Biso   1.000  H
  C35      1.0000 0.36660  0.31880  0.89460  Biso   1.000  C
  C36      1.0000 0.63340  0.68120  0.10540  Biso   1.000  C
  H37      1.0000 0.41200  0.33550  0.84080  Biso   1.000  H
  H38      1.0000 0.58800  0.66450  0.15920  Biso   1.000  H
  H39      1.0000 0.27220  0.33890  0.88550  Biso   1.000  H
  H40      1.0000 0.72780  0.66110  0.11450  Biso   1.000  H
  C37      1.0000 0.39490  0.22230  0.92650  Biso   1.000  C
  C38      1.0000 0.60510  0.77770  0.07350  Biso   1.000  C
  H41      1.0000 0.34180  0.20530  0.97700  Biso   1.000  H
  H42      1.0000 0.65820  0.79470  0.02300  Biso   1.000  H
  H43      1.0000 0.36960  0.19700  0.88430  Biso   1.000  H
  H44      1.0000 0.63040  0.80300  0.11570  Biso   1.000  H
  Cu2      1.0000 0.00000  0.50000  0.50000  Biso   1.000  Cu
  N21      1.0000 0.16600  0.55160  0.48390  Biso   1.000  N
  N22      1.0000 0.83400  0.44840  0.51610  Biso   1.000  N
  H45      1.0000 0.14410  0.60120  0.50150  Biso   1.000  H
  H46      1.0000 0.85590  0.39880  0.49850  Biso   1.000  H
  N23      1.0000 0.96830  0.56300  0.37450  Biso   1.000  N
  N24      1.0000 0.03170  0.43700  0.62550  Biso   1.000  N
  H47      1.0000 0.00130  0.52130  0.34710  Biso   1.000  H
  H48      1.0000 0.99870  0.47870  0.65290  Biso   1.000  H
  C39      1.0000 0.24990  0.47350  0.62790  Biso   1.000  C
  C40      1.0000 0.75010  0.52650  0.37210  Biso   1.000  C
  H49      1.0000 0.33270  0.45550  0.65820  Biso   1.000  H
  H50      1.0000 0.66730  0.54450  0.34180  Biso   1.000  H
  H51      1.0000 0.20160  0.52480  0.64350  Biso   1.000  H
  H52      1.0000 0.79840  0.47520  0.35650  Biso   1.000  H
  C41      1.0000 0.28280  0.49950  0.53290  Biso   1.000  C
  C42      1.0000 0.71720  0.50050  0.46710  Biso   1.000  C
  H53      1.0000 0.35310  0.53280  0.52340  Biso   1.000  H
  H54      1.0000 0.64690  0.46720  0.47660  Biso   1.000  H
  H55      1.0000 0.31440  0.44760  0.51360  Biso   1.000  H
  H56      1.0000 0.68560  0.55240  0.48640  Biso   1.000  H
  C43      1.0000 0.19290  0.57970  0.39160  Biso   1.000  C
  C44      1.0000 0.80710  0.42030  0.60840  Biso   1.000  C
  H57      1.0000 0.22560  0.52770  0.37150  Biso   1.000  H
  H58      1.0000 0.77440  0.47230  0.62850  Biso   1.000  H
  C45      1.0000 0.29630  0.63760  0.36870  Biso   1.000  C
  C46      1.0000 0.70370  0.36240  0.63130  Biso   1.000  C
  H59      1.0000 0.38080  0.60510  0.39250  Biso   1.000  H
  H60      1.0000 0.61920  0.39490  0.60750  Biso   1.000  H
  H61      1.0000 0.26980  0.68680  0.39270  Biso   1.000  H
  H62      1.0000 0.73020  0.31320  0.60730  Biso   1.000  H
  C47      1.0000 0.31160  0.66990  0.27290  Biso   1.000  C
  C48      1.0000 0.68840  0.33010  0.72710  Biso   1.000  C
  H63      1.0000 0.37500  0.70850  0.25980  Biso   1.000  H
  H64      1.0000 0.62500  0.29150  0.74020  Biso   1.000  H
  H65      1.0000 0.34560  0.62100  0.24950  Biso   1.000  H
  H66      1.0000 0.65440  0.37900  0.75050  Biso   1.000  H
  C49      1.0000 0.17880  0.71810  0.23300  Biso   1.000  C
  C50      1.0000 0.82120  0.28190  0.76700  Biso   1.000  C
  H67      1.0000 0.14710  0.76890  0.25390  Biso   1.000  H
  H68      1.0000 0.85290  0.23110  0.74610  Biso   1.000  H
  H69      1.0000 0.19020  0.73720  0.17230  Biso   1.000  H
  H70      1.0000 0.80980  0.26280  0.82770  Biso   1.000  H
  C51      1.0000 0.07810  0.65920  0.25390  Biso   1.000  C
  C52      1.0000 0.92190  0.34080  0.74610  Biso   1.000  C
  H71      1.0000 0.10690  0.61070  0.22910  Biso   1.000  H
  H72      1.0000 0.89310  0.38930  0.77090  Biso   1.000  H
  H73      1.0000 0.99360  0.69110  0.22970  Biso   1.000  H
  H74      1.0000 0.00640  0.30890  0.77030  Biso   1.000  H
  C53      1.0000 0.06090  0.62500  0.34960  Biso   1.000  C
  C54      1.0000 0.93910  0.37500  0.65040  Biso   1.000  C
  H75      1.0000 0.02560  0.67480  0.37270  Biso   1.000  H
  H76      1.0000 0.97440  0.32520  0.62730  Biso   1.000  H
  C55      1.0000 0.17000  0.40210  0.65850  Biso   1.000  C
  C56      1.0000 0.83000  0.59790  0.34150  Biso   1.000  C
  H77      1.0000 0.16380  0.38980  0.72010  Biso   1.000  H
  H78      1.0000 0.83620  0.61020  0.27990  Biso   1.000  H
  C57      1.0000 0.23090  0.31690  0.63680  Biso   1.000  C
  C58      1.0000 0.76910  0.68310  0.36320  Biso   1.000  C
  H79      1.0000 0.22650  0.32540  0.57630  Biso   1.000  H
  H80      1.0000 0.77350  0.67460  0.42370  Biso   1.000  H
  H81      1.0000 0.17880  0.27350  0.66410  Biso   1.000  H
  H82      1.0000 0.82120  0.72650  0.33590  Biso   1.000  H
  C59      1.0000 0.37420  0.28340  0.66380  Biso   1.000  C
  C60      1.0000 0.62580  0.71660  0.33620  Biso   1.000  C
  H83      1.0000 0.37840  0.26970  0.72420  Biso   1.000  H
  H84      1.0000 0.62160  0.73030  0.27580  Biso   1.000  H
  H85      1.0000 0.40910  0.23220  0.64510  Biso   1.000  H
  H86      1.0000 0.59090  0.76780  0.35490  Biso   1.000  H
  H87      1.0000 0.42560  0.32720  0.63910  Biso   1.000  H
  H88      1.0000 0.57440  0.67280  0.36090  Biso   1.000  H
  Cu3      1.0000 0.50000  0.00000  0.50000  Biso   1.000  Cu
  N25      1.0000 0.64800  0.03570  0.54850  Biso   1.000  N
  N26      1.0000 0.35200  0.96430  0.45150  Biso   1.000  N
  H89      1.0000 0.62660  0.09450  0.53750  Biso   1.000  H
  H90      1.0000 0.37340  0.90550  0.46250  Biso   1.000  H
  N27      1.0000 0.57770  0.02000  0.37960  Biso   1.000  N
  N28      1.0000 0.42230  0.98000  0.62040  Biso   1.000  N
  H91      1.0000 0.55200  0.07800  0.35690  Biso   1.000  H
  H92      1.0000 0.44800  0.92200  0.64310  Biso   1.000  H
  C61      1.0000 0.72440  0.04510  0.68800  Biso   1.000  C
  C62      1.0000 0.27560  0.95490  0.31200  Biso   1.000  C
  H93      1.0000 0.81730  0.03100  0.67260  Biso   1.000  H
  H94      1.0000 0.18270  0.96900  0.32740  Biso   1.000  H
  H95      1.0000 0.69660  0.10770  0.67050  Biso   1.000  H
  H96      1.0000 0.30340  0.89230  0.32950  Biso   1.000  H
  C63      1.0000 0.64260  0.00320  0.64200  Biso   1.000  C
  C64      1.0000 0.35740  0.99680  0.35800  Biso   1.000  C
  H97      1.0000 0.67590  0.94030  0.65730  Biso   1.000  H
  H98      1.0000 0.32410  0.05970  0.34270  Biso   1.000  H
  C65      1.0000 0.78310  0.01630  0.51180  Biso   1.000  C
  C66      1.0000 0.21690  0.98370  0.48820  Biso   1.000  C
  H99      1.0000 0.81420  0.95400  0.52550  Biso   1.000  H
  H100     1.0000 0.18580  0.04600  0.47450  Biso   1.000  H
  H101     1.0000 0.84330  0.04120  0.53670  Biso   1.000  H
  H102     1.0000 0.15670  0.95880  0.46330  Biso   1.000  H
  C67      1.0000 0.78450  0.05290  0.41630  Biso   1.000  C
  C68      1.0000 0.21550  0.94710  0.58370  Biso   1.000  C
  H103     1.0000 0.87560  0.05410  0.39750  Biso   1.000  H
  H104     1.0000 0.12440  0.94590  0.60250  Biso   1.000  H
  H105     1.0000 0.73640  0.11240  0.40310  Biso   1.000  H
  H106     1.0000 0.26360  0.88760  0.59690  Biso   1.000  H
  C69      1.0000 0.72520  0.00370  0.36580  Biso   1.000  C
  C70      1.0000 0.27480  0.99630  0.63420  Biso   1.000  C
  H107     1.0000 0.74200  0.02970  0.30600  Biso   1.000  H
  H108     1.0000 0.25800  0.97030  0.69400  Biso   1.000  H
  C71      1.0000 0.78400  0.90720  0.38330  Biso   1.000  C
  C72      1.0000 0.21600  0.09280  0.61670  Biso   1.000  C
  H109     1.0000 0.74750  0.88300  0.34420  Biso   1.000  H
  H110     1.0000 0.25250  0.11700  0.65580  Biso   1.000  H
  H111     1.0000 0.75880  0.87820  0.44000  Biso   1.000  H
  H112     1.0000 0.24120  0.12180  0.56000  Biso   1.000  H
  C73      1.0000 0.93510  0.88990  0.37450  Biso   1.000  C
  C74      1.0000 0.06490  0.11010  0.62550  Biso   1.000  C
  H113     1.0000 0.96050  0.91970  0.31890  Biso   1.000  H
  H114     1.0000 0.03950  0.08030  0.68110  Biso   1.000  H
  H115     1.0000 0.96770  0.82870  0.38370  Biso   1.000  H
  H116     1.0000 0.03230  0.17130  0.61630  Biso   1.000  H
  H117     1.0000 0.97190  0.91060  0.41550  Biso   1.000  H
  H118     1.0000 0.02810  0.08940  0.58450  Biso   1.000  H
  C75      1.0000 0.49660  0.02010  0.66930  Biso   1.000  C
  C76      1.0000 0.50340  0.97990  0.33070  Biso   1.000  C
  H119     1.0000 0.46380  0.08300  0.65280  Biso   1.000  H
  H120     1.0000 0.53620  0.91700  0.34720  Biso   1.000  H
  C77      1.0000 0.48000  0.98860  0.76480  Biso   1.000  C
  C78      1.0000 0.52000  0.01140  0.23520  Biso   1.000  C
  H121     1.0000 0.50810  0.92600  0.78240  Biso   1.000  H
  H122     1.0000 0.49190  0.07400  0.21760  Biso   1.000  H
  H123     1.0000 0.38720  0.00260  0.78030  Biso   1.000  H
  H124     1.0000 0.61280  0.99740  0.21970  Biso   1.000  H
  C79      1.0000 0.56150  0.03060  0.81030  Biso   1.000  C
  C80      1.0000 0.43850  0.96940  0.18970  Biso   1.000  C
  H125     1.0000 0.52790  0.09270  0.79700  Biso   1.000  H
  H126     1.0000 0.47210  0.90730  0.20300  Biso   1.000  H
  H127     1.0000 0.55290  0.00730  0.87080  Biso   1.000  H
  H128     1.0000 0.44710  0.99270  0.12920  Biso   1.000  H
  C81      1.0000 0.70750  0.01330  0.78370  Biso   1.000  C
  C82      1.0000 0.29250  0.98670  0.21630  Biso   1.000  C
  H129     1.0000 0.74310  0.95160  0.80190  Biso   1.000  H
  H130     1.0000 0.25690  0.04840  0.19810  Biso   1.000  H
  H131     1.0000 0.75690  0.04280  0.81120  Biso   1.000  H
  H132     1.0000 0.24310  0.95720  0.18880  Biso   1.000  H
  C83      1.0000 0.15600  0.71530  0.56400  Biso   1.000  C
  C84      1.0000 0.84400  0.28470  0.43600  Biso   1.000  C
  O1       1.0000 0.21560  0.69550  0.64770  Biso   1.000  O
  O2       1.0000 0.78440  0.30450  0.35230  Biso   1.000  O
  O3       1.0000 0.93880  0.13850  0.19880  Biso   1.000  O
  O4       1.0000 0.06120  0.86150  0.80120  Biso   1.000  O
  O5       1.0000 0.92200  0.10610  0.12560  Biso   1.000  O
  O6       1.0000 0.07800  0.89390  0.87440  Biso   1.000  O
  O7       1.0000 0.34420  0.77050  0.49070  Biso   1.000  O
  O8       1.0000 0.65580  0.22950  0.50930  Biso   1.000  O
  O9       1.0000 0.85010  0.86650  0.17690  Biso   1.000  O
  O10      1.0000 0.14990  0.13350  0.82310  Biso   1.000  O
  O11      1.0000 0.84730  0.90040  0.10820  Biso   1.000  O
  O12      1.0000 0.15270  0.09960  0.89180  Biso   1.000  O
