data_image0
_cell_length_a       13.0387
_cell_length_b       8.6569
_cell_length_c       17.6482
_cell_angle_alpha    90
_cell_angle_beta     126.492
_cell_angle_gamma    90

_symmetry_space_group_name_H-M    "P 1"
_symmetry_int_tables_number       1

loop_
  _symmetry_equiv_pos_as_xyz
  'x, y, z'

loop_
  _atom_site_label
  _atom_site_occupancy
  _atom_site_fract_x
  _atom_site_fract_y
  _atom_site_fract_z
  _atom_site_thermal_displace_type
  _atom_site_B_iso_or_equiv
  _atom_site_type_symbol
  Cu1      1.0000 0.42916  0.52767  0.60440  Biso   1.000  Cu
  Cu2      1.0000 0.57084  0.02767  0.89560  Biso   1.000  Cu
  Cu3      1.0000 0.57084  0.47233  0.39560  Biso   1.000  Cu
  Cu4      1.0000 0.42916  0.97233  0.10440  Biso   1.000  Cu
  N1       1.0000 0.44840  0.64450  0.72800  Biso   1.000  N
  N2       1.0000 0.55160  0.14450  0.77200  Biso   1.000  N
  N3       1.0000 0.55160  0.35550  0.27200  Biso   1.000  N
  N4       1.0000 0.44840  0.85550  0.22800  Biso   1.000  N
  N5       1.0000 0.51270  0.77700  0.76180  Biso   1.000  N
  N6       1.0000 0.48730  0.27700  0.73820  Biso   1.000  N
  N7       1.0000 0.48730  0.22300  0.23820  Biso   1.000  N
  N8       1.0000 0.51270  0.72300  0.26180  Biso   1.000  N
  N9       1.0000 0.50220  0.82580  0.82849  Biso   1.000  N
  N10      1.0000 0.49780  0.32580  0.67151  Biso   1.000  N
  N11      1.0000 0.49780  0.17420  0.17151  Biso   1.000  N
  N12      1.0000 0.50220  0.67420  0.32849  Biso   1.000  N
  N13      1.0000 0.43200  0.72950  0.83991  Biso   1.000  N
  N14      1.0000 0.56800  0.22950  0.66009  Biso   1.000  N
  N15      1.0000 0.56800  0.27050  0.16009  Biso   1.000  N
  N16      1.0000 0.43200  0.77050  0.33991  Biso   1.000  N
  N17      1.0000 0.25450  0.39410  0.75010  Biso   1.000  N
  N18      1.0000 0.74550  0.89410  0.74990  Biso   1.000  N
  N19      1.0000 0.74550  0.60590  0.24990  Biso   1.000  N
  N20      1.0000 0.25450  0.10590  0.25010  Biso   1.000  N
  N21      1.0000 0.60560  0.57560  0.64299  Biso   1.000  N
  N22      1.0000 0.39440  0.07560  0.85701  Biso   1.000  N
  N23      1.0000 0.39440  0.42440  0.35701  Biso   1.000  N
  N24      1.0000 0.60560  0.92440  0.14299  Biso   1.000  N
  N25      1.0000 0.62780  0.63570  0.58350  Biso   1.000  N
  N26      1.0000 0.37220  0.13570  0.91650  Biso   1.000  N
  N27      1.0000 0.37220  0.36430  0.41650  Biso   1.000  N
  N28      1.0000 0.62780  0.86430  0.08350  Biso   1.000  N
  N29      1.0000 0.75300  0.64070  0.62700  Biso   1.000  N
  N30      1.0000 0.24700  0.14070  0.87300  Biso   1.000  N
  N31      1.0000 0.24700  0.35930  0.37300  Biso   1.000  N
  N32      1.0000 0.75300  0.85930  0.12700  Biso   1.000  N
  N33      1.0000 0.81480  0.58200  0.71450  Biso   1.000  N
  N34      1.0000 0.18520  0.08200  0.78550  Biso   1.000  N
  N35      1.0000 0.18520  0.41800  0.28550  Biso   1.000  N
  N36      1.0000 0.81480  0.91800  0.21450  Biso   1.000  N
  N37      1.0000 0.77550  0.43150  0.87660  Biso   1.000  N
  N38      1.0000 0.22450  0.93150  0.62340  Biso   1.000  N
  N39      1.0000 0.22450  0.56850  0.12340  Biso   1.000  N
  N40      1.0000 0.77550  0.06850  0.37660  Biso   1.000  N
  N41      1.0000 0.24580  0.45740  0.53348  Biso   1.000  N
  N42      1.0000 0.75420  0.95740  0.96652  Biso   1.000  N
  N43      1.0000 0.75420  0.54260  0.46652  Biso   1.000  N
  N44      1.0000 0.24580  0.04260  0.03348  Biso   1.000  N
  N45      1.0000 0.34220  0.71350  0.52256  Biso   1.000  N
  N46      1.0000 0.65780  0.21350  0.97744  Biso   1.000  N
  N47      1.0000 0.65780  0.28650  0.47744  Biso   1.000  N
  N48      1.0000 0.34220  0.78650  0.02256  Biso   1.000  N
  C1       1.0000 0.40080  0.61910  0.77680  Biso   1.000  C
  C2       1.0000 0.59920  0.11910  0.72320  Biso   1.000  C
  C3       1.0000 0.59920  0.38090  0.22320  Biso   1.000  C
  C4       1.0000 0.40080  0.88090  0.27680  Biso   1.000  C
  C5       1.0000 0.32070  0.49240  0.76200  Biso   1.000  C
  C6       1.0000 0.67930  0.99240  0.73800  Biso   1.000  C
  C7       1.0000 0.67930  0.50760  0.23800  Biso   1.000  C
  C8       1.0000 0.32070  0.00760  0.26200  Biso   1.000  C
  C9       1.0000 0.72210  0.54470  0.72190  Biso   1.000  C
  C10      1.0000 0.27790  0.04470  0.77810  Biso   1.000  C
  C11      1.0000 0.27790  0.45530  0.27810  Biso   1.000  C
  C12      1.0000 0.72210  0.95530  0.22190  Biso   1.000  C
  C13      1.0000 0.74860  0.48180  0.80700  Biso   1.000  C
  C14      1.0000 0.25140  0.98180  0.69300  Biso   1.000  C
  C15      1.0000 0.25140  0.51820  0.19300  Biso   1.000  C
  C16      1.0000 0.74860  0.01820  0.30700  Biso   1.000  C
  C17      1.0000 0.20480  0.31940  0.54050  Biso   1.000  C
  C18      1.0000 0.79520  0.81940  0.95950  Biso   1.000  C
  C19      1.0000 0.79520  0.68060  0.45950  Biso   1.000  C
  C20      1.0000 0.20480  0.18060  0.04050  Biso   1.000  C
  H1       1.0000 0.26480  0.25100  0.58920  Biso   1.000  H
  H2       1.0000 0.73520  0.75100  0.91080  Biso   1.000  H
  H3       1.0000 0.73520  0.74900  0.41080  Biso   1.000  H
  H4       1.0000 0.26480  0.24900  0.08920  Biso   1.000  H
  C21      1.0000 0.07960  0.27330  0.47980  Biso   1.000  C
  C22      1.0000 0.92040  0.77330  0.02020  Biso   1.000  C
  C23      1.0000 0.92040  0.72670  0.52020  Biso   1.000  C
  C24      1.0000 0.07960  0.22670  0.97980  Biso   1.000  C
  H5       1.0000 0.05360  0.17520  0.48700  Biso   1.000  H
  H6       1.0000 0.94640  0.67520  0.01300  Biso   1.000  H
  H7       1.0000 0.94640  0.82480  0.51300  Biso   1.000  H
  H8       1.0000 0.05360  0.32480  0.98700  Biso   1.000  H
  C25      1.0000 0.99250  0.37180  0.40850  Biso   1.000  C
  C26      1.0000 0.00750  0.87180  0.09150  Biso   1.000  C
  C27      1.0000 0.00750  0.62820  0.59150  Biso   1.000  C
  C28      1.0000 0.99250  0.12820  0.90850  Biso   1.000  C
  H9       1.0000 0.90550  0.34240  0.36550  Biso   1.000  H
  H10      1.0000 0.09450  0.84240  0.13450  Biso   1.000  H
  H11      1.0000 0.09450  0.65760  0.63450  Biso   1.000  H
  H12      1.0000 0.90550  0.15760  0.86550  Biso   1.000  H
  C29      1.0000 0.03350  0.51430  0.40050  Biso   1.000  C
  C30      1.0000 0.96650  0.01430  0.09950  Biso   1.000  C
  C31      1.0000 0.96650  0.48570  0.59950  Biso   1.000  C
  C32      1.0000 0.03350  0.98570  0.90050  Biso   1.000  C
  H13      1.0000 0.97500  0.58410  0.35210  Biso   1.000  H
  H14      1.0000 0.02500  0.08410  0.14790  Biso   1.000  H
  H15      1.0000 0.02500  0.41590  0.64790  Biso   1.000  H
  H16      1.0000 0.97500  0.91590  0.85210  Biso   1.000  H
  C33      1.0000 0.16030  0.55360  0.46390  Biso   1.000  C
  C34      1.0000 0.83970  0.05360  0.03610  Biso   1.000  C
  C35      1.0000 0.83970  0.44640  0.53610  Biso   1.000  C
  C36      1.0000 0.16030  0.94640  0.96390  Biso   1.000  C
  C37      1.0000 0.21380  0.70240  0.46050  Biso   1.000  C
  C38      1.0000 0.78620  0.20240  0.03950  Biso   1.000  C
  C39      1.0000 0.78620  0.29760  0.53950  Biso   1.000  C
  C40      1.0000 0.21380  0.79760  0.96050  Biso   1.000  C
  C41      1.0000 0.14020  0.82410  0.40070  Biso   1.000  C
  C42      1.0000 0.85980  0.32410  0.09930  Biso   1.000  C
  C43      1.0000 0.85980  0.17590  0.59930  Biso   1.000  C
  C44      1.0000 0.14020  0.67590  0.90070  Biso   1.000  C
  H17      1.0000 0.05050  0.81310  0.35560  Biso   1.000  H
  H18      1.0000 0.94950  0.31310  0.14440  Biso   1.000  H
  H19      1.0000 0.94950  0.18690  0.64440  Biso   1.000  H
  H20      1.0000 0.05050  0.68690  0.85560  Biso   1.000  H
  C45      1.0000 0.19980  0.96110  0.40810  Biso   1.000  C
  C46      1.0000 0.80020  0.46110  0.09190  Biso   1.000  C
  C47      1.0000 0.80020  0.03890  0.59190  Biso   1.000  C
  C48      1.0000 0.19980  0.53890  0.90810  Biso   1.000  C
  H21      1.0000 0.15130  0.04570  0.36820  Biso   1.000  H
  H22      1.0000 0.84870  0.54570  0.13180  Biso   1.000  H
  H23      1.0000 0.84870  0.95430  0.63180  Biso   1.000  H
  H24      1.0000 0.15130  0.45430  0.86820  Biso   1.000  H
  C49      1.0000 0.33000  0.97440  0.47390  Biso   1.000  C
  C50      1.0000 0.67000  0.47440  0.02610  Biso   1.000  C
  C51      1.0000 0.67000  0.02560  0.52610  Biso   1.000  C
  C52      1.0000 0.33000  0.52560  0.97390  Biso   1.000  C
  H25      1.0000 0.37190  0.06890  0.48090  Biso   1.000  H
  H26      1.0000 0.62810  0.56890  0.01910  Biso   1.000  H
  H27      1.0000 0.62810  0.93110  0.51910  Biso   1.000  H
  H28      1.0000 0.37190  0.43110  0.98090  Biso   1.000  H
  C53      1.0000 0.39890  0.84830  0.52950  Biso   1.000  C
  C54      1.0000 0.60110  0.34830  0.97050  Biso   1.000  C
  C55      1.0000 0.60110  0.15170  0.47050  Biso   1.000  C
  C56      1.0000 0.39890  0.65170  0.02950  Biso   1.000  C
  H29      1.0000 0.48890  0.85700  0.57390  Biso   1.000  H
  H30      1.0000 0.51110  0.35700  0.92610  Biso   1.000  H
  H31      1.0000 0.51110  0.14300  0.42610  Biso   1.000  H
  H32      1.0000 0.48890  0.64300  0.07390  Biso   1.000  H
