data_image0
_cell_length_a       8.425
_cell_length_b       15.824
_cell_length_c       16.216
_cell_angle_alpha    90
_cell_angle_beta     90
_cell_angle_gamma    90

_symmetry_space_group_name_H-M    "P 1"
_symmetry_int_tables_number       1

loop_
  _symmetry_equiv_pos_as_xyz
  'x, y, z'

loop_
  _atom_site_label
  _atom_site_occupancy
  _atom_site_fract_x
  _atom_site_fract_y
  _atom_site_fract_z
  _atom_site_thermal_displace_type
  _atom_site_B_iso_or_equiv
  _atom_site_type_symbol
  Cu1      1.0000 0.59733  0.10773  0.03527  Biso   1.000  Cu
  Cu2      1.0000 0.90267  0.89227  0.53527  Biso   1.000  Cu
  Cu3      1.0000 0.09733  0.39227  0.96473  Biso   1.000  Cu
  Cu4      1.0000 0.40267  0.60773  0.46473  Biso   1.000  Cu
  Cu5      1.0000 0.40267  0.89227  0.96473  Biso   1.000  Cu
  Cu6      1.0000 0.09733  0.10773  0.46473  Biso   1.000  Cu
  Cu7      1.0000 0.90267  0.60773  0.03527  Biso   1.000  Cu
  Cu8      1.0000 0.59733  0.39227  0.53527  Biso   1.000  Cu
  O1       1.0000 0.83450  0.00130  0.07570  Biso   1.000  O
  O2       1.0000 0.66550  0.99870  0.57570  Biso   1.000  O
  O3       1.0000 0.33450  0.49870  0.92430  Biso   1.000  O
  O4       1.0000 0.16550  0.50130  0.42430  Biso   1.000  O
  O5       1.0000 0.16550  0.99870  0.92430  Biso   1.000  O
  O6       1.0000 0.33450  0.00130  0.42430  Biso   1.000  O
  O7       1.0000 0.66550  0.50130  0.07570  Biso   1.000  O
  O8       1.0000 0.83450  0.49870  0.57570  Biso   1.000  O
  H1       1.0000 0.77880  0.96390  0.09530  Biso   1.000  H
  H2       1.0000 0.72120  0.03610  0.59530  Biso   1.000  H
  H3       1.0000 0.27880  0.53610  0.90470  Biso   1.000  H
  H4       1.0000 0.22120  0.46390  0.40470  Biso   1.000  H
  H5       1.0000 0.22120  0.03610  0.90470  Biso   1.000  H
  H6       1.0000 0.27880  0.96390  0.40470  Biso   1.000  H
  H7       1.0000 0.72120  0.46390  0.09530  Biso   1.000  H
  H8       1.0000 0.77880  0.53610  0.59530  Biso   1.000  H
  N1       1.0000 0.59370  0.14720  0.15149  Biso   1.000  N
  N2       1.0000 0.90630  0.85280  0.65149  Biso   1.000  N
  N3       1.0000 0.09370  0.35280  0.84851  Biso   1.000  N
  N4       1.0000 0.40630  0.64720  0.34851  Biso   1.000  N
  N5       1.0000 0.40630  0.85280  0.84851  Biso   1.000  N
  N6       1.0000 0.09370  0.14720  0.34851  Biso   1.000  N
  N7       1.0000 0.90630  0.64720  0.15149  Biso   1.000  N
  N8       1.0000 0.59370  0.35280  0.65149  Biso   1.000  N
  N9       1.0000 0.46700  0.01521  0.09136  Biso   1.000  N
  N10      1.0000 0.03300  0.98479  0.59136  Biso   1.000  N
  N11      1.0000 0.96700  0.48479  0.90864  Biso   1.000  N
  N12      1.0000 0.53300  0.51521  0.40864  Biso   1.000  N
  N13      1.0000 0.53300  0.98479  0.90864  Biso   1.000  N
  N14      1.0000 0.96700  0.01521  0.40864  Biso   1.000  N
  N15      1.0000 0.03300  0.51521  0.09136  Biso   1.000  N
  N16      1.0000 0.46700  0.48479  0.59136  Biso   1.000  N
  N17      1.0000 0.30650  0.91980  0.13920  Biso   1.000  N
  N18      1.0000 0.19350  0.08020  0.63920  Biso   1.000  N
  N19      1.0000 0.80650  0.58020  0.86080  Biso   1.000  N
  N20      1.0000 0.69350  0.41980  0.36080  Biso   1.000  N
  N21      1.0000 0.69350  0.08020  0.86080  Biso   1.000  N
  N22      1.0000 0.80650  0.91980  0.36080  Biso   1.000  N
  N23      1.0000 0.19350  0.41980  0.13920  Biso   1.000  N
  N24      1.0000 0.30650  0.58020  0.63920  Biso   1.000  N
  N25      1.0000 0.75050  0.20633  0.02905  Biso   1.000  N
  N26      1.0000 0.74950  0.79367  0.52905  Biso   1.000  N
  N27      1.0000 0.25050  0.29367  0.97095  Biso   1.000  N
  N28      1.0000 0.24950  0.70633  0.47095  Biso   1.000  N
  N29      1.0000 0.24950  0.79367  0.97095  Biso   1.000  N
  N30      1.0000 0.25050  0.20633  0.47095  Biso   1.000  N
  N31      1.0000 0.74950  0.70633  0.02905  Biso   1.000  N
  N32      1.0000 0.75050  0.29367  0.52905  Biso   1.000  N
  N33      1.0000 0.84140  0.32150  0.08980  Biso   1.000  N
  N34      1.0000 0.65860  0.67850  0.58980  Biso   1.000  N
  N35      1.0000 0.34140  0.17850  0.91020  Biso   1.000  N
  N36      1.0000 0.15860  0.82150  0.41020  Biso   1.000  N
  N37      1.0000 0.15860  0.67850  0.91020  Biso   1.000  N
  N38      1.0000 0.34140  0.32150  0.41020  Biso   1.000  N
  N39      1.0000 0.65860  0.82150  0.08980  Biso   1.000  N
  N40      1.0000 0.84140  0.17850  0.58980  Biso   1.000  N
  N41      1.0000 0.83870  0.24830  0.97400  Biso   1.000  N
  N42      1.0000 0.66130  0.75170  0.47400  Biso   1.000  N
  N43      1.0000 0.33870  0.25170  0.02600  Biso   1.000  N
  N44      1.0000 0.16130  0.74830  0.52600  Biso   1.000  N
  N45      1.0000 0.16130  0.75170  0.02600  Biso   1.000  N
  N46      1.0000 0.33870  0.24830  0.52600  Biso   1.000  N
  N47      1.0000 0.66130  0.74830  0.97400  Biso   1.000  N
  N48      1.0000 0.83870  0.25170  0.47400  Biso   1.000  N
  N49      1.0000 0.89160  0.31700  0.01130  Biso   1.000  N
  N50      1.0000 0.60840  0.68300  0.51130  Biso   1.000  N
  N51      1.0000 0.39160  0.18300  0.98870  Biso   1.000  N
  N52      1.0000 0.10840  0.81700  0.48870  Biso   1.000  N
  N53      1.0000 0.10840  0.68300  0.98870  Biso   1.000  N
  N54      1.0000 0.39160  0.31700  0.48870  Biso   1.000  N
  N55      1.0000 0.60840  0.81700  0.01130  Biso   1.000  N
  N56      1.0000 0.89160  0.18300  0.51130  Biso   1.000  N
  N57      1.0000 0.38130  0.94675  0.07293  Biso   1.000  N
  N58      1.0000 0.11870  0.05325  0.57293  Biso   1.000  N
  N59      1.0000 0.88130  0.55325  0.92707  Biso   1.000  N
  N60      1.0000 0.61870  0.44675  0.42707  Biso   1.000  N
  N61      1.0000 0.61870  0.05325  0.92707  Biso   1.000  N
  N62      1.0000 0.88130  0.94675  0.42707  Biso   1.000  N
  N63      1.0000 0.11870  0.44675  0.07293  Biso   1.000  N
  N64      1.0000 0.38130  0.55325  0.57293  Biso   1.000  N
  N65      1.0000 0.34300  0.97050  0.20310  Biso   1.000  N
  N66      1.0000 0.15700  0.02950  0.70310  Biso   1.000  N
  N67      1.0000 0.84300  0.52950  0.79690  Biso   1.000  N
  N68      1.0000 0.65700  0.47050  0.29690  Biso   1.000  N
  N69      1.0000 0.65700  0.02950  0.79690  Biso   1.000  N
  N70      1.0000 0.84300  0.97050  0.29690  Biso   1.000  N
  N71      1.0000 0.15700  0.47050  0.20310  Biso   1.000  N
  N72      1.0000 0.34300  0.52950  0.70310  Biso   1.000  N
  C1       1.0000 0.67330  0.21790  0.17140  Biso   1.000  C
  C2       1.0000 0.82670  0.78210  0.67140  Biso   1.000  C
  C3       1.0000 0.17330  0.28210  0.82860  Biso   1.000  C
  C4       1.0000 0.32670  0.71790  0.32860  Biso   1.000  C
  C5       1.0000 0.32670  0.78210  0.82860  Biso   1.000  C
  C6       1.0000 0.17330  0.21790  0.32860  Biso   1.000  C
  C7       1.0000 0.82670  0.71790  0.17140  Biso   1.000  C
  C8       1.0000 0.67330  0.28210  0.67140  Biso   1.000  C
  C9       1.0000 0.75450  0.25230  0.09840  Biso   1.000  C
  C10      1.0000 0.74550  0.74770  0.59840  Biso   1.000  C
  C11      1.0000 0.25450  0.24770  0.90160  Biso   1.000  C
  C12      1.0000 0.24550  0.75230  0.40160  Biso   1.000  C
  C13      1.0000 0.24550  0.74770  0.90160  Biso   1.000  C
  C14      1.0000 0.25450  0.25230  0.40160  Biso   1.000  C
  C15      1.0000 0.74550  0.75230  0.09840  Biso   1.000  C
  C16      1.0000 0.75450  0.24770  0.59840  Biso   1.000  C
  C17      1.0000 0.52240  0.12480  0.29130  Biso   1.000  C
  C18      1.0000 0.97760  0.87520  0.79130  Biso   1.000  C
  C19      1.0000 0.02240  0.37520  0.70870  Biso   1.000  C
  C20      1.0000 0.47760  0.62480  0.20870  Biso   1.000  C
  C21      1.0000 0.47760  0.87520  0.70870  Biso   1.000  C
  C22      1.0000 0.02240  0.12480  0.20870  Biso   1.000  C
  C23      1.0000 0.97760  0.62480  0.29130  Biso   1.000  C
  C24      1.0000 0.52240  0.37520  0.79130  Biso   1.000  C
  H9       1.0000 0.47190  0.09250  0.33130  Biso   1.000  H
  H10      1.0000 0.02810  0.90750  0.83130  Biso   1.000  H
  H11      1.0000 0.97190  0.40750  0.66870  Biso   1.000  H
  H12      1.0000 0.52810  0.59250  0.16870  Biso   1.000  H
  H13      1.0000 0.52810  0.90750  0.66870  Biso   1.000  H
  H14      1.0000 0.97190  0.09250  0.16870  Biso   1.000  H
  H15      1.0000 0.02810  0.59250  0.33130  Biso   1.000  H
  H16      1.0000 0.47190  0.40750  0.83130  Biso   1.000  H
  C25      1.0000 0.68080  0.24610  0.25250  Biso   1.000  C
  C26      1.0000 0.81920  0.75390  0.75250  Biso   1.000  C
  C27      1.0000 0.18080  0.25390  0.74750  Biso   1.000  C
  C28      1.0000 0.31920  0.74610  0.24750  Biso   1.000  C
  C29      1.0000 0.31920  0.75390  0.74750  Biso   1.000  C
  C30      1.0000 0.18080  0.24610  0.24750  Biso   1.000  C
  C31      1.0000 0.81920  0.74610  0.25250  Biso   1.000  C
  C32      1.0000 0.68080  0.25390  0.75250  Biso   1.000  C
  H17      1.0000 0.73500  0.29530  0.26620  Biso   1.000  H
  H18      1.0000 0.76500  0.70470  0.76620  Biso   1.000  H
  H19      1.0000 0.23500  0.20470  0.73380  Biso   1.000  H
  H20      1.0000 0.26500  0.79530  0.23380  Biso   1.000  H
  H21      1.0000 0.26500  0.70470  0.73380  Biso   1.000  H
  H22      1.0000 0.23500  0.29530  0.23380  Biso   1.000  H
  H23      1.0000 0.76500  0.79530  0.26620  Biso   1.000  H
  H24      1.0000 0.73500  0.20470  0.76620  Biso   1.000  H
  C33      1.0000 0.60430  0.19820  0.31240  Biso   1.000  C
  C34      1.0000 0.89570  0.80180  0.81240  Biso   1.000  C
  C35      1.0000 0.10430  0.30180  0.68760  Biso   1.000  C
  C36      1.0000 0.39570  0.69820  0.18760  Biso   1.000  C
  C37      1.0000 0.39570  0.80180  0.68760  Biso   1.000  C
  C38      1.0000 0.10430  0.19820  0.18760  Biso   1.000  C
  C39      1.0000 0.89570  0.69820  0.31240  Biso   1.000  C
  C40      1.0000 0.60430  0.30180  0.81240  Biso   1.000  C
  H25      1.0000 0.60770  0.21540  0.36720  Biso   1.000  H
  H26      1.0000 0.89230  0.78460  0.86720  Biso   1.000  H
  H27      1.0000 0.10770  0.28460  0.63280  Biso   1.000  H
  H28      1.0000 0.39230  0.71540  0.13280  Biso   1.000  H
  H29      1.0000 0.39230  0.78460  0.63280  Biso   1.000  H
  H30      1.0000 0.10770  0.21540  0.13280  Biso   1.000  H
  H31      1.0000 0.89230  0.71540  0.36720  Biso   1.000  H
  H32      1.0000 0.60770  0.28460  0.86720  Biso   1.000  H
  C41      1.0000 0.44130  0.02800  0.17160  Biso   1.000  C
  C42      1.0000 0.05870  0.97200  0.67160  Biso   1.000  C
  C43      1.0000 0.94130  0.47200  0.82840  Biso   1.000  C
  C44      1.0000 0.55870  0.52800  0.32840  Biso   1.000  C
  C45      1.0000 0.55870  0.97200  0.82840  Biso   1.000  C
  C46      1.0000 0.94130  0.02800  0.32840  Biso   1.000  C
  C47      1.0000 0.05870  0.52800  0.17160  Biso   1.000  C
  C48      1.0000 0.44130  0.47200  0.67160  Biso   1.000  C
  C49      1.0000 0.51870  0.10160  0.20900  Biso   1.000  C
  C50      1.0000 0.98130  0.89840  0.70900  Biso   1.000  C
  C51      1.0000 0.01870  0.39840  0.79100  Biso   1.000  C
  C52      1.0000 0.48130  0.60160  0.29100  Biso   1.000  C
  C53      1.0000 0.48130  0.89840  0.79100  Biso   1.000  C
  C54      1.0000 0.01870  0.10160  0.29100  Biso   1.000  C
  C55      1.0000 0.98130  0.60160  0.20900  Biso   1.000  C
  C56      1.0000 0.51870  0.39840  0.70900  Biso   1.000  C
  C57      1.0000 0.94930  0.96440  0.01650  Biso   1.000  C
  C58      1.0000 0.55070  0.03560  0.51650  Biso   1.000  C
  C59      1.0000 0.44930  0.53560  0.98350  Biso   1.000  C
  C60      1.0000 0.05070  0.46440  0.48350  Biso   1.000  C
  C61      1.0000 0.05070  0.03560  0.98350  Biso   1.000  C
  C62      1.0000 0.44930  0.96440  0.48350  Biso   1.000  C
  C63      1.0000 0.55070  0.46440  0.01650  Biso   1.000  C
  C64      1.0000 0.94930  0.53560  0.51650  Biso   1.000  C
  H33      1.0000 0.89330  0.93680  0.97170  Biso   1.000  H
  H34      1.0000 0.60670  0.06320  0.47170  Biso   1.000  H
  H35      1.0000 0.39330  0.56320  0.02830  Biso   1.000  H
  H36      1.0000 0.10670  0.43680  0.52830  Biso   1.000  H
  H37      1.0000 0.10670  0.06320  0.02830  Biso   1.000  H
  H38      1.0000 0.39330  0.93680  0.52830  Biso   1.000  H
  H39      1.0000 0.60670  0.43680  0.97170  Biso   1.000  H
  H40      1.0000 0.89330  0.56320  0.47170  Biso   1.000  H
  H41      1.0000 0.01520  0.92280  0.04400  Biso   1.000  H
  H42      1.0000 0.48480  0.07720  0.54400  Biso   1.000  H
  H43      1.0000 0.51520  0.57720  0.95600  Biso   1.000  H
  H44      1.0000 0.98480  0.42280  0.45600  Biso   1.000  H
  H45      1.0000 0.98480  0.07720  0.95600  Biso   1.000  H
  H46      1.0000 0.51520  0.92280  0.45600  Biso   1.000  H
  H47      1.0000 0.48480  0.42280  0.04400  Biso   1.000  H
  H48      1.0000 0.01520  0.57720  0.54400  Biso   1.000  H
