data_image0
_cell_length_a       13.8151
_cell_length_b       18.351
_cell_length_c       7.05807
_cell_angle_alpha    90
_cell_angle_beta     100.163
_cell_angle_gamma    90

_symmetry_space_group_name_H-M    "P 1"
_symmetry_int_tables_number       1

loop_
  _symmetry_equiv_pos_as_xyz
  'x, y, z'

loop_
  _atom_site_label
  _atom_site_occupancy
  _atom_site_fract_x
  _atom_site_fract_y
  _atom_site_fract_z
  _atom_site_thermal_displace_type
  _atom_site_B_iso_or_equiv
  _atom_site_type_symbol
  Cu1      1.0000 0.77631  0.18767  0.26975  Biso   1.000  Cu
  Cu2      1.0000 0.22369  0.68767  0.23025  Biso   1.000  Cu
  Cu3      1.0000 0.22369  0.81233  0.73025  Biso   1.000  Cu
  Cu4      1.0000 0.77631  0.31233  0.76975  Biso   1.000  Cu
  Cl1      1.0000 0.84159  0.29283  0.15531  Biso   1.000  Cl
  Cl2      1.0000 0.15841  0.79283  0.34469  Biso   1.000  Cl
  Cl3      1.0000 0.15841  0.70717  0.84469  Biso   1.000  Cl
  Cl4      1.0000 0.84159  0.20717  0.65531  Biso   1.000  Cl
  Cl5      1.0000 0.70172  0.07551  0.27839  Biso   1.000  Cl
  Cl6      1.0000 0.29828  0.57551  0.22161  Biso   1.000  Cl
  Cl7      1.0000 0.29828  0.92449  0.72161  Biso   1.000  Cl
  Cl8      1.0000 0.70172  0.42449  0.77839  Biso   1.000  Cl
  N1       1.0000 0.53673  0.32164  0.27250  Biso   1.000  N
  N2       1.0000 0.46327  0.82164  0.22750  Biso   1.000  N
  N3       1.0000 0.46327  0.67836  0.72750  Biso   1.000  N
  N4       1.0000 0.53673  0.17836  0.77250  Biso   1.000  N
  N5       1.0000 0.49307  0.25717  0.30530  Biso   1.000  N
  N6       1.0000 0.50693  0.75717  0.19470  Biso   1.000  N
  N7       1.0000 0.50693  0.74283  0.69470  Biso   1.000  N
  N8       1.0000 0.49307  0.24283  0.80530  Biso   1.000  N
  C1       1.0000 0.56393  0.20965  0.30690  Biso   1.000  C
  C2       1.0000 0.43607  0.70965  0.19310  Biso   1.000  C
  C3       1.0000 0.43607  0.79035  0.69310  Biso   1.000  C
  C4       1.0000 0.56393  0.29035  0.80690  Biso   1.000  C
  H1       1.0000 0.55555  0.15902  0.32697  Biso   1.000  H
  H2       1.0000 0.44445  0.65902  0.17303  Biso   1.000  H
  H3       1.0000 0.44445  0.84098  0.67303  Biso   1.000  H
  H4       1.0000 0.55555  0.34098  0.82697  Biso   1.000  H
  N9       1.0000 0.65080  0.23896  0.27726  Biso   1.000  N
  N10      1.0000 0.34920  0.73896  0.22274  Biso   1.000  N
  N11      1.0000 0.34920  0.76104  0.72274  Biso   1.000  N
  N12      1.0000 0.65080  0.26104  0.77726  Biso   1.000  N
  C5       1.0000 0.63045  0.30962  0.25640  Biso   1.000  C
  C6       1.0000 0.36955  0.80962  0.24360  Biso   1.000  C
  C7       1.0000 0.36955  0.69038  0.74360  Biso   1.000  C
  C8       1.0000 0.63045  0.19038  0.75640  Biso   1.000  C
  H5       1.0000 0.67572  0.34615  0.23339  Biso   1.000  H
  H6       1.0000 0.32428  0.84615  0.26661  Biso   1.000  H
  H7       1.0000 0.32428  0.65385  0.76661  Biso   1.000  H
  H8       1.0000 0.67572  0.15385  0.73339  Biso   1.000  H
  C9       1.0000 0.47881  0.39043  0.25220  Biso   1.000  C
  C10      1.0000 0.52119  0.89043  0.24780  Biso   1.000  C
  C11      1.0000 0.52119  0.60957  0.74780  Biso   1.000  C
  C12      1.0000 0.47881  0.10957  0.75220  Biso   1.000  C
  C13      1.0000 0.43927  0.40198  0.43870  Biso   1.000  C
  C14      1.0000 0.56073  0.90198  0.06130  Biso   1.000  C
  C15      1.0000 0.56073  0.59802  0.56130  Biso   1.000  C
  C16      1.0000 0.43927  0.09802  0.93870  Biso   1.000  C
  H9       1.0000 0.40147  0.35906  0.46465  Biso   1.000  H
  H10      1.0000 0.59853  0.85906  0.03535  Biso   1.000  H
  H11      1.0000 0.59853  0.64094  0.53535  Biso   1.000  H
  H12      1.0000 0.40147  0.14094  0.96465  Biso   1.000  H
  H13      1.0000 0.39662  0.44502  0.42589  Biso   1.000  H
  H14      1.0000 0.60338  0.94502  0.07411  Biso   1.000  H
  H15      1.0000 0.60338  0.55498  0.57411  Biso   1.000  H
  H16      1.0000 0.39662  0.05498  0.92589  Biso   1.000  H
  H17      1.0000 0.49434  0.40927  0.54524  Biso   1.000  H
  H18      1.0000 0.50566  0.90927  0.95476  Biso   1.000  H
  H19      1.0000 0.50566  0.59073  0.45476  Biso   1.000  H
  H20      1.0000 0.49434  0.09073  0.04524  Biso   1.000  H
  C17      1.0000 0.39399  0.38169  0.08360  Biso   1.000  C
  C18      1.0000 0.60601  0.88169  0.41640  Biso   1.000  C
  C19      1.0000 0.60601  0.61831  0.91640  Biso   1.000  C
  C20      1.0000 0.39399  0.11831  0.58360  Biso   1.000  C
  H21      1.0000 0.42023  0.37390  0.96492  Biso   1.000  H
  H22      1.0000 0.57977  0.87390  0.53508  Biso   1.000  H
  H23      1.0000 0.57977  0.62610  0.03508  Biso   1.000  H
  H24      1.0000 0.42023  0.12610  0.46492  Biso   1.000  H
  H25      1.0000 0.35344  0.42583  0.07076  Biso   1.000  H
  H26      1.0000 0.64656  0.92583  0.42924  Biso   1.000  H
  H27      1.0000 0.64656  0.57417  0.92924  Biso   1.000  H
  H28      1.0000 0.35344  0.07417  0.57076  Biso   1.000  H
  H29      1.0000 0.35377  0.33972  0.10664  Biso   1.000  H
  H30      1.0000 0.64623  0.83972  0.39336  Biso   1.000  H
  H31      1.0000 0.64623  0.66028  0.89336  Biso   1.000  H
  H32      1.0000 0.35377  0.16028  0.60664  Biso   1.000  H
  C21      1.0000 0.54720  0.45191  0.21920  Biso   1.000  C
  C22      1.0000 0.45280  0.95191  0.28080  Biso   1.000  C
  C23      1.0000 0.45280  0.54809  0.78080  Biso   1.000  C
  C24      1.0000 0.54720  0.04809  0.71920  Biso   1.000  C
  H33      1.0000 0.60138  0.45515  0.32904  Biso   1.000  H
  H34      1.0000 0.39862  0.95515  0.17096  Biso   1.000  H
  H35      1.0000 0.39862  0.54485  0.67096  Biso   1.000  H
  H36      1.0000 0.60138  0.04485  0.82904  Biso   1.000  H
  H37      1.0000 0.51072  0.49796  0.20548  Biso   1.000  H
  H38      1.0000 0.48928  0.99796  0.29452  Biso   1.000  H
  H39      1.0000 0.48928  0.50204  0.79452  Biso   1.000  H
  H40      1.0000 0.51072  0.00204  0.70548  Biso   1.000  H
  H41      1.0000 0.57372  0.44235  0.10162  Biso   1.000  H
  H42      1.0000 0.42628  0.94235  0.39838  Biso   1.000  H
  H43      1.0000 0.42628  0.55765  0.89838  Biso   1.000  H
  H44      1.0000 0.57372  0.05765  0.60162  Biso   1.000  H
  N13      1.0000 0.03769  0.10321  0.17080  Biso   1.000  N
  N14      1.0000 0.96231  0.60321  0.32920  Biso   1.000  N
  N15      1.0000 0.96231  0.89679  0.82920  Biso   1.000  N
  N16      1.0000 0.03769  0.39679  0.67080  Biso   1.000  N
  N17      1.0000 0.02965  0.06221  0.32890  Biso   1.000  N
  N18      1.0000 0.97035  0.56221  0.17110  Biso   1.000  N
  N19      1.0000 0.97035  0.93779  0.67110  Biso   1.000  N
  N20      1.0000 0.02965  0.43779  0.82890  Biso   1.000  N
  C25      1.0000 0.94565  0.08409  0.37220  Biso   1.000  C
  C26      1.0000 0.05435  0.58409  0.12780  Biso   1.000  C
  C27      1.0000 0.05435  0.91591  0.62780  Biso   1.000  C
  C28      1.0000 0.94565  0.41591  0.87220  Biso   1.000  C
  H45      1.0000 0.91891  0.06467  0.47659  Biso   1.000  H
  H46      1.0000 0.08109  0.56467  0.02341  Biso   1.000  H
  H47      1.0000 0.08109  0.93533  0.52341  Biso   1.000  H
  H48      1.0000 0.91891  0.43533  0.97659  Biso   1.000  H
  N21      1.0000 0.90045  0.13715  0.25370  Biso   1.000  N
  N22      1.0000 0.09955  0.63715  0.24630  Biso   1.000  N
  N23      1.0000 0.09955  0.86285  0.74630  Biso   1.000  N
  N24      1.0000 0.90045  0.36285  0.75370  Biso   1.000  N
  C29      1.0000 0.96081  0.14733  0.12890  Biso   1.000  C
  C30      1.0000 0.03919  0.64733  0.37110  Biso   1.000  C
  C31      1.0000 0.03919  0.85267  0.87110  Biso   1.000  C
  C32      1.0000 0.96081  0.35267  0.62890  Biso   1.000  C
  H49      1.0000 0.95049  0.18111  0.02532  Biso   1.000  H
  H50      1.0000 0.04951  0.68111  0.47468  Biso   1.000  H
  H51      1.0000 0.04951  0.81889  0.97468  Biso   1.000  H
  H52      1.0000 0.95049  0.31889  0.52532  Biso   1.000  H
  C33      1.0000 0.12849  0.10036  0.08260  Biso   1.000  C
  C34      1.0000 0.87151  0.60036  0.41740  Biso   1.000  C
  C35      1.0000 0.87151  0.89964  0.91740  Biso   1.000  C
  C36      1.0000 0.12849  0.39964  0.58260  Biso   1.000  C
  C37      1.0000 0.09914  0.11433  0.86900  Biso   1.000  C
  C38      1.0000 0.90086  0.61433  0.63100  Biso   1.000  C
  C39      1.0000 0.90086  0.88567  0.13100  Biso   1.000  C
  C40      1.0000 0.09914  0.38567  0.36900  Biso   1.000  C
  H53      1.0000 0.04872  0.07909  0.81347  Biso   1.000  H
  H54      1.0000 0.95128  0.57909  0.68653  Biso   1.000  H
  H55      1.0000 0.95128  0.92091  0.18653  Biso   1.000  H
  H56      1.0000 0.04872  0.42091  0.31347  Biso   1.000  H
  H57      1.0000 0.15684  0.10909  0.80684  Biso   1.000  H
  H58      1.0000 0.84316  0.60909  0.69316  Biso   1.000  H
  H59      1.0000 0.84316  0.89091  0.19316  Biso   1.000  H
  H60      1.0000 0.15684  0.39091  0.30684  Biso   1.000  H
  H61      1.0000 0.07283  0.16384  0.84820  Biso   1.000  H
  H62      1.0000 0.92717  0.66384  0.65180  Biso   1.000  H
  H63      1.0000 0.92717  0.83616  0.15180  Biso   1.000  H
  H64      1.0000 0.07283  0.33616  0.34820  Biso   1.000  H
  C41      1.0000 0.19743  0.15905  0.18160  Biso   1.000  C
  C42      1.0000 0.80257  0.65905  0.31840  Biso   1.000  C
  C43      1.0000 0.80257  0.84095  0.81840  Biso   1.000  C
  C44      1.0000 0.19743  0.34095  0.68160  Biso   1.000  C
  H65      1.0000 0.16688  0.20701  0.15479  Biso   1.000  H
  H66      1.0000 0.83312  0.70701  0.34521  Biso   1.000  H
  H67      1.0000 0.83312  0.79299  0.84521  Biso   1.000  H
  H68      1.0000 0.16688  0.29299  0.65479  Biso   1.000  H
  H69      1.0000 0.25957  0.15745  0.13281  Biso   1.000  H
  H70      1.0000 0.74043  0.65745  0.36719  Biso   1.000  H
  H71      1.0000 0.74043  0.84255  0.86719  Biso   1.000  H
  H72      1.0000 0.25957  0.34255  0.63281  Biso   1.000  H
  H73      1.0000 0.21021  0.15045  0.32079  Biso   1.000  H
  H74      1.0000 0.78979  0.65045  0.17921  Biso   1.000  H
  H75      1.0000 0.78979  0.84955  0.67921  Biso   1.000  H
  H76      1.0000 0.21021  0.34955  0.82079  Biso   1.000  H
  C45      1.0000 0.17390  0.02480  0.11760  Biso   1.000  C
  C46      1.0000 0.82610  0.52480  0.38240  Biso   1.000  C
  C47      1.0000 0.82610  0.97520  0.88240  Biso   1.000  C
  C48      1.0000 0.17390  0.47520  0.61760  Biso   1.000  C
  H77      1.0000 0.19570  0.01740  0.25608  Biso   1.000  H
  H78      1.0000 0.80430  0.51740  0.24392  Biso   1.000  H
  H79      1.0000 0.80430  0.98260  0.74392  Biso   1.000  H
  H80      1.0000 0.19570  0.48260  0.75608  Biso   1.000  H
  H81      1.0000 0.23035  0.02062  0.05152  Biso   1.000  H
  H82      1.0000 0.76965  0.52062  0.44848  Biso   1.000  H
  H83      1.0000 0.76965  0.97938  0.94848  Biso   1.000  H
  H84      1.0000 0.23035  0.47938  0.55152  Biso   1.000  H
  H85      1.0000 0.12480  0.98780  0.06779  Biso   1.000  H
  H86      1.0000 0.87520  0.48780  0.43221  Biso   1.000  H
  H87      1.0000 0.87520  0.01220  0.93221  Biso   1.000  H
  H88      1.0000 0.12480  0.51220  0.56779  Biso   1.000  H
