data_image0
_cell_length_a       12.864
_cell_length_b       12.4016
_cell_length_c       15.417
_cell_angle_alpha    90
_cell_angle_beta     109.29
_cell_angle_gamma    90

_symmetry_space_group_name_H-M    "P 1"
_symmetry_int_tables_number       1

loop_
  _symmetry_equiv_pos_as_xyz
  'x, y, z'

loop_
  _atom_site_label
  _atom_site_occupancy
  _atom_site_fract_x
  _atom_site_fract_y
  _atom_site_fract_z
  _atom_site_thermal_displace_type
  _atom_site_B_iso_or_equiv
  _atom_site_type_symbol
  Cu1      1.0000 0.02360  0.20800  0.01730  Biso   1.000  Cu
  Cu2      1.0000 0.47640  0.70800  0.98270  Biso   1.000  Cu
  Cu3      1.0000 0.97640  0.79200  0.98270  Biso   1.000  Cu
  Cu4      1.0000 0.52360  0.29200  0.01730  Biso   1.000  Cu
  Cu5      1.0000 0.62640  0.24620  0.71870  Biso   1.000  Cu
  Cu6      1.0000 0.87360  0.74620  0.28130  Biso   1.000  Cu
  Cu7      1.0000 0.37360  0.75380  0.28130  Biso   1.000  Cu
  Cu8      1.0000 0.12640  0.25380  0.71870  Biso   1.000  Cu
  Cl1      1.0000 0.34030  0.16900  0.38160  Biso   1.000  Cl
  Cl2      1.0000 0.15970  0.66900  0.61840  Biso   1.000  Cl
  Cl3      1.0000 0.65970  0.83100  0.61840  Biso   1.000  Cl
  Cl4      1.0000 0.84030  0.33100  0.38160  Biso   1.000  Cl
  O1       1.0000 0.00920  0.31930  0.92100  Biso   1.000  O
  O2       1.0000 0.49080  0.81930  0.07900  Biso   1.000  O
  O3       1.0000 0.99080  0.68070  0.07900  Biso   1.000  O
  O4       1.0000 0.50920  0.18070  0.92100  Biso   1.000  O
  O5       1.0000 0.03990  0.33540  0.78670  Biso   1.000  O
  O6       1.0000 0.46010  0.83540  0.21330  Biso   1.000  O
  O7       1.0000 0.96010  0.66460  0.21330  Biso   1.000  O
  O8       1.0000 0.53990  0.16460  0.78670  Biso   1.000  O
  O9       1.0000 0.10130  0.12260  0.94440  Biso   1.000  O
  O10      1.0000 0.39870  0.62260  0.05560  Biso   1.000  O
  O11      1.0000 0.89870  0.87740  0.05560  Biso   1.000  O
  O12      1.0000 0.60130  0.37740  0.94440  Biso   1.000  O
  O13      1.0000 0.14690  0.14580  0.81840  Biso   1.000  O
  O14      1.0000 0.35310  0.64580  0.18160  Biso   1.000  O
  O15      1.0000 0.85310  0.85420  0.18160  Biso   1.000  O
  O16      1.0000 0.64690  0.35420  0.81840  Biso   1.000  O
  N1       1.0000 0.86410  0.13390  0.94280  Biso   1.000  N
  N2       1.0000 0.63590  0.63390  0.05720  Biso   1.000  N
  N3       1.0000 0.13590  0.86610  0.05720  Biso   1.000  N
  N4       1.0000 0.36410  0.36610  0.94280  Biso   1.000  N
  N5       1.0000 0.82280  0.14940  0.86280  Biso   1.000  N
  N6       1.0000 0.67720  0.64940  0.13720  Biso   1.000  N
  N7       1.0000 0.17720  0.85060  0.13720  Biso   1.000  N
  N8       1.0000 0.32280  0.35060  0.86280  Biso   1.000  N
  N9       1.0000 0.78650  0.16380  0.78440  Biso   1.000  N
  N10      1.0000 0.71350  0.66380  0.21560  Biso   1.000  N
  N11      1.0000 0.21350  0.83620  0.21560  Biso   1.000  N
  N12      1.0000 0.28650  0.33620  0.78440  Biso   1.000  N
  N13      1.0000 0.99770  0.31560  0.10730  Biso   1.000  N
  N14      1.0000 0.50230  0.81560  0.89270  Biso   1.000  N
  N15      1.0000 0.00230  0.68440  0.89270  Biso   1.000  N
  N16      1.0000 0.49770  0.18440  0.10730  Biso   1.000  N
  N17      1.0000 0.05450  0.09980  0.11870  Biso   1.000  N
  N18      1.0000 0.44550  0.59980  0.88130  Biso   1.000  N
  N19      1.0000 0.94550  0.90020  0.88130  Biso   1.000  N
  N20      1.0000 0.55450  0.40020  0.11870  Biso   1.000  N
  N21      1.0000 0.15220  0.13970  0.63340  Biso   1.000  N
  N22      1.0000 0.34780  0.63970  0.36660  Biso   1.000  N
  N23      1.0000 0.84780  0.86030  0.36660  Biso   1.000  N
  N24      1.0000 0.65220  0.36030  0.63340  Biso   1.000  N
  N25      1.0000 0.09080  0.35360  0.61270  Biso   1.000  N
  N26      1.0000 0.40920  0.85360  0.38730  Biso   1.000  N
  N27      1.0000 0.90920  0.64640  0.38730  Biso   1.000  N
  N28      1.0000 0.59080  0.14640  0.61270  Biso   1.000  N
  C1       1.0000 0.04740  0.28690  0.86060  Biso   1.000  C
  C2       1.0000 0.45260  0.78690  0.13940  Biso   1.000  C
  C3       1.0000 0.95260  0.71310  0.13940  Biso   1.000  C
  C4       1.0000 0.54740  0.21310  0.86060  Biso   1.000  C
  C5       1.0000 0.10010  0.17520  0.87450  Biso   1.000  C
  C6       1.0000 0.39990  0.67520  0.12550  Biso   1.000  C
  C7       1.0000 0.89990  0.82480  0.12550  Biso   1.000  C
  C8       1.0000 0.60010  0.32480  0.87450  Biso   1.000  C
  C9       1.0000 0.02440  0.25790  0.19710  Biso   1.000  C
  C10      1.0000 0.47560  0.75790  0.80290  Biso   1.000  C
  C11      1.0000 0.97560  0.74210  0.80290  Biso   1.000  C
  C12      1.0000 0.52440  0.24210  0.19710  Biso   1.000  C
  C13      1.0000 0.99330  0.13840  0.17810  Biso   1.000  C
  C14      1.0000 0.50670  0.63840  0.82190  Biso   1.000  C
  C15      1.0000 0.00670  0.86160  0.82190  Biso   1.000  C
  C16      1.0000 0.49330  0.36160  0.17810  Biso   1.000  C
  C17      1.0000 0.88080  0.34790  0.06730  Biso   1.000  C
  C18      1.0000 0.61920  0.84790  0.93270  Biso   1.000  C
  C19      1.0000 0.11920  0.65210  0.93270  Biso   1.000  C
  C20      1.0000 0.38080  0.15210  0.06730  Biso   1.000  C
  C21      1.0000 0.83620  0.43070  0.11770  Biso   1.000  C
  C22      1.0000 0.66380  0.93070  0.88230  Biso   1.000  C
  C23      1.0000 0.16380  0.56930  0.88230  Biso   1.000  C
  C24      1.0000 0.33620  0.06930  0.11770  Biso   1.000  C
  C25      1.0000 0.06870  0.41260  0.11810  Biso   1.000  C
  C26      1.0000 0.43130  0.91260  0.88190  Biso   1.000  C
  C27      1.0000 0.93130  0.58740  0.88190  Biso   1.000  C
  C28      1.0000 0.56870  0.08740  0.11810  Biso   1.000  C
  C29      1.0000 0.18550  0.38920  0.12570  Biso   1.000  C
  C30      1.0000 0.31450  0.88920  0.87430  Biso   1.000  C
  C31      1.0000 0.81450  0.61080  0.87430  Biso   1.000  C
  C32      1.0000 0.68550  0.11080  0.12570  Biso   1.000  C
  C33      1.0000 0.12680  0.19190  0.54130  Biso   1.000  C
  C34      1.0000 0.37320  0.69190  0.45870  Biso   1.000  C
  C35      1.0000 0.87320  0.80810  0.45870  Biso   1.000  C
  C36      1.0000 0.62680  0.30810  0.54130  Biso   1.000  C
  C37      1.0000 0.15100  0.31050  0.55290  Biso   1.000  C
  C38      1.0000 0.34900  0.81050  0.44710  Biso   1.000  C
  C39      1.0000 0.84900  0.68950  0.44710  Biso   1.000  C
  C40      1.0000 0.65100  0.18950  0.55290  Biso   1.000  C
  C41      1.0000 0.08180  0.04480  0.63010  Biso   1.000  C
  C42      1.0000 0.41820  0.54480  0.36990  Biso   1.000  C
  C43      1.0000 0.91820  0.95520  0.36990  Biso   1.000  C
  C44      1.0000 0.58180  0.45520  0.63010  Biso   1.000  C
  C45      1.0000 0.96240  0.07390  0.61870  Biso   1.000  C
  C46      1.0000 0.53760  0.57390  0.38130  Biso   1.000  C
  C47      1.0000 0.03760  0.92610  0.38130  Biso   1.000  C
  C48      1.0000 0.46240  0.42610  0.61870  Biso   1.000  C
  C49      1.0000 0.27110  0.10820  0.67170  Biso   1.000  C
  C50      1.0000 0.22890  0.60820  0.32830  Biso   1.000  C
  C51      1.0000 0.72890  0.89180  0.32830  Biso   1.000  C
  C52      1.0000 0.77110  0.39180  0.67170  Biso   1.000  C
  C53      1.0000 0.30640  0.01320  0.62400  Biso   1.000  C
  C54      1.0000 0.19360  0.51320  0.37600  Biso   1.000  C
  C55      1.0000 0.69360  0.98680  0.37600  Biso   1.000  C
  C56      1.0000 0.80640  0.48680  0.62400  Biso   1.000  C
  O17      1.0000 0.42960  0.10200  0.38170  Biso   1.000  O
  O18      1.0000 0.07040  0.60200  0.61830  Biso   1.000  O
  O19      1.0000 0.57040  0.89800  0.61830  Biso   1.000  O
  O20      1.0000 0.92960  0.39800  0.38170  Biso   1.000  O
  O21      1.0000 0.35820  0.20240  0.47440  Biso   1.000  O
  O22      1.0000 0.14180  0.70240  0.52560  Biso   1.000  O
  O23      1.0000 0.64180  0.79760  0.52560  Biso   1.000  O
  O24      1.0000 0.85820  0.29760  0.47440  Biso   1.000  O
  O25      1.0000 0.33910  0.25980  0.32780  Biso   1.000  O
  O26      1.0000 0.16090  0.75980  0.67220  Biso   1.000  O
  O27      1.0000 0.66090  0.74020  0.67220  Biso   1.000  O
  O28      1.0000 0.83910  0.24020  0.32780  Biso   1.000  O
  O29      1.0000 0.24170  0.11180  0.34590  Biso   1.000  O
  O30      1.0000 0.25830  0.61180  0.65410  Biso   1.000  O
  O31      1.0000 0.75830  0.88820  0.65410  Biso   1.000  O
  O32      1.0000 0.74170  0.38820  0.34590  Biso   1.000  O
  H1       1.0000 0.03100  0.03390  0.09620  Biso   1.000  H
  H2       1.0000 0.46900  0.53390  0.90380  Biso   1.000  H
  H3       1.0000 0.96900  0.96610  0.90380  Biso   1.000  H
  H4       1.0000 0.53100  0.46610  0.09620  Biso   1.000  H
  H5       1.0000 0.12710  0.09650  0.15000  Biso   1.000  H
  H6       1.0000 0.37290  0.59650  0.85000  Biso   1.000  H
  H7       1.0000 0.87290  0.90350  0.85000  Biso   1.000  H
  H8       1.0000 0.62710  0.40350  0.15000  Biso   1.000  H
  H9       1.0000 0.11340  0.42100  0.63140  Biso   1.000  H
  H10      1.0000 0.38660  0.92100  0.36860  Biso   1.000  H
  H11      1.0000 0.88660  0.57900  0.36860  Biso   1.000  H
  H12      1.0000 0.61340  0.07900  0.63140  Biso   1.000  H
  H13      1.0000 0.01780  0.35470  0.58250  Biso   1.000  H
  H14      1.0000 0.48220  0.85470  0.41750  Biso   1.000  H
  H15      1.0000 0.98220  0.64530  0.41750  Biso   1.000  H
  H16      1.0000 0.51780  0.14530  0.58250  Biso   1.000  H
  H17      1.0000 0.98350  0.28940  0.23360  Biso   1.000  H
  H18      1.0000 0.51650  0.78940  0.76640  Biso   1.000  H
  H19      1.0000 0.01650  0.71060  0.76640  Biso   1.000  H
  H20      1.0000 0.48350  0.21060  0.23360  Biso   1.000  H
  H21      1.0000 0.10240  0.26440  0.23120  Biso   1.000  H
  H22      1.0000 0.39760  0.76440  0.76880  Biso   1.000  H
  H23      1.0000 0.89760  0.73560  0.76880  Biso   1.000  H
  H24      1.0000 0.60240  0.23560  0.23120  Biso   1.000  H
  H25      1.0000 0.01400  0.09780  0.23510  Biso   1.000  H
  H26      1.0000 0.48600  0.59780  0.76490  Biso   1.000  H
  H27      1.0000 0.98600  0.90220  0.76490  Biso   1.000  H
  H28      1.0000 0.51400  0.40220  0.23510  Biso   1.000  H
  H29      1.0000 0.91460  0.13080  0.14750  Biso   1.000  H
  H30      1.0000 0.58540  0.63080  0.85250  Biso   1.000  H
  H31      1.0000 0.08540  0.86920  0.85250  Biso   1.000  H
  H32      1.0000 0.41460  0.36920  0.14750  Biso   1.000  H
  H33      1.0000 0.83620  0.28340  0.06070  Biso   1.000  H
  H34      1.0000 0.66380  0.78340  0.93930  Biso   1.000  H
  H35      1.0000 0.16380  0.71660  0.93930  Biso   1.000  H
  H36      1.0000 0.33620  0.21660  0.06070  Biso   1.000  H
  H37      1.0000 0.86960  0.37540  0.00600  Biso   1.000  H
  H38      1.0000 0.63040  0.87540  0.99400  Biso   1.000  H
  H39      1.0000 0.13040  0.62460  0.99400  Biso   1.000  H
  H40      1.0000 0.36960  0.12460  0.00600  Biso   1.000  H
  H41      1.0000 0.75990  0.44380  0.08420  Biso   1.000  H
  H42      1.0000 0.74010  0.94380  0.91580  Biso   1.000  H
  H43      1.0000 0.24010  0.55620  0.91580  Biso   1.000  H
  H44      1.0000 0.25990  0.05620  0.08420  Biso   1.000  H
  H45      1.0000 0.87690  0.49670  0.12290  Biso   1.000  H
  H46      1.0000 0.62310  0.99670  0.87710  Biso   1.000  H
  H47      1.0000 0.12310  0.50330  0.87710  Biso   1.000  H
  H48      1.0000 0.37690  0.00330  0.12290  Biso   1.000  H
  H49      1.0000 0.84340  0.40430  0.17790  Biso   1.000  H
  H50      1.0000 0.65660  0.90430  0.82210  Biso   1.000  H
  H51      1.0000 0.15660  0.59570  0.82210  Biso   1.000  H
  H52      1.0000 0.34340  0.09570  0.17790  Biso   1.000  H
  H53      1.0000 0.06840  0.45130  0.17270  Biso   1.000  H
  H54      1.0000 0.43160  0.95130  0.82730  Biso   1.000  H
  H55      1.0000 0.93160  0.54870  0.82730  Biso   1.000  H
  H56      1.0000 0.56840  0.04870  0.17270  Biso   1.000  H
  H57      1.0000 0.03690  0.45970  0.06580  Biso   1.000  H
  H58      1.0000 0.46310  0.95970  0.93420  Biso   1.000  H
  H59      1.0000 0.96310  0.54030  0.93420  Biso   1.000  H
  H60      1.0000 0.53690  0.04030  0.06580  Biso   1.000  H
  H61      1.0000 0.22570  0.45570  0.13250  Biso   1.000  H
  H62      1.0000 0.27430  0.95570  0.86750  Biso   1.000  H
  H63      1.0000 0.77430  0.54430  0.86750  Biso   1.000  H
  H64      1.0000 0.72570  0.04430  0.13250  Biso   1.000  H
  H65      1.0000 0.18710  0.35280  0.07130  Biso   1.000  H
  H66      1.0000 0.31290  0.85280  0.92870  Biso   1.000  H
  H67      1.0000 0.81290  0.64720  0.92870  Biso   1.000  H
  H68      1.0000 0.68710  0.14720  0.07130  Biso   1.000  H
  H69      1.0000 0.21870  0.34430  0.17830  Biso   1.000  H
  H70      1.0000 0.28130  0.84430  0.82170  Biso   1.000  H
  H71      1.0000 0.78130  0.65570  0.82170  Biso   1.000  H
  H72      1.0000 0.71870  0.15570  0.17830  Biso   1.000  H
  H73      1.0000 0.17100  0.15920  0.50820  Biso   1.000  H
  H74      1.0000 0.32900  0.65920  0.49180  Biso   1.000  H
  H75      1.0000 0.82900  0.84080  0.49180  Biso   1.000  H
  H76      1.0000 0.67100  0.34080  0.50820  Biso   1.000  H
  H77      1.0000 0.04980  0.18090  0.50580  Biso   1.000  H
  H78      1.0000 0.45020  0.68090  0.49420  Biso   1.000  H
  H79      1.0000 0.95020  0.81910  0.49420  Biso   1.000  H
  H80      1.0000 0.54980  0.31910  0.50580  Biso   1.000  H
  H81      1.0000 0.12660  0.34630  0.49360  Biso   1.000  H
  H82      1.0000 0.37340  0.84630  0.50640  Biso   1.000  H
  H83      1.0000 0.87340  0.65370  0.50640  Biso   1.000  H
  H84      1.0000 0.62660  0.15370  0.49360  Biso   1.000  H
  H85      1.0000 0.22950  0.32230  0.58110  Biso   1.000  H
  H86      1.0000 0.27050  0.82230  0.41890  Biso   1.000  H
  H87      1.0000 0.77050  0.67770  0.41890  Biso   1.000  H
  H88      1.0000 0.72950  0.17770  0.58110  Biso   1.000  H
  H89      1.0000 0.08260  0.99910  0.57930  Biso   1.000  H
  H90      1.0000 0.41740  0.49910  0.42070  Biso   1.000  H
  H91      1.0000 0.91740  0.00090  0.42070  Biso   1.000  H
  H92      1.0000 0.58260  0.50090  0.57930  Biso   1.000  H
  H93      1.0000 0.11250  0.00380  0.68640  Biso   1.000  H
  H94      1.0000 0.38750  0.50380  0.31360  Biso   1.000  H
  H95      1.0000 0.88750  0.99620  0.31360  Biso   1.000  H
  H96      1.0000 0.61250  0.49620  0.68640  Biso   1.000  H
  H97      1.0000 0.92090  0.00910  0.61700  Biso   1.000  H
  H98      1.0000 0.57910  0.50910  0.38300  Biso   1.000  H
  H99      1.0000 0.07910  0.99090  0.38300  Biso   1.000  H
  H100     1.0000 0.42090  0.49090  0.61700  Biso   1.000  H
  H101     1.0000 0.96060  0.11770  0.66960  Biso   1.000  H
  H102     1.0000 0.53940  0.61770  0.33040  Biso   1.000  H
  H103     1.0000 0.03940  0.88230  0.33040  Biso   1.000  H
  H104     1.0000 0.46060  0.38230  0.66960  Biso   1.000  H
  H105     1.0000 0.93070  0.11310  0.56250  Biso   1.000  H
  H106     1.0000 0.56930  0.61310  0.43750  Biso   1.000  H
  H107     1.0000 0.06930  0.88690  0.43750  Biso   1.000  H
  H108     1.0000 0.43070  0.38690  0.56250  Biso   1.000  H
  H109     1.0000 0.31550  0.17030  0.66860  Biso   1.000  H
  H110     1.0000 0.18450  0.67030  0.33140  Biso   1.000  H
  H111     1.0000 0.68450  0.82970  0.33140  Biso   1.000  H
  H112     1.0000 0.81550  0.32970  0.66860  Biso   1.000  H
  H113     1.0000 0.28770  0.09020  0.73610  Biso   1.000  H
  H114     1.0000 0.21230  0.59020  0.26390  Biso   1.000  H
  H115     1.0000 0.71230  0.90980  0.26390  Biso   1.000  H
  H116     1.0000 0.78770  0.40980  0.73610  Biso   1.000  H
  H117     1.0000 0.38350  0.99950  0.65340  Biso   1.000  H
  H118     1.0000 0.11650  0.49950  0.34660  Biso   1.000  H
  H119     1.0000 0.61650  0.00050  0.34660  Biso   1.000  H
  H120     1.0000 0.88350  0.50050  0.65340  Biso   1.000  H
  H121     1.0000 0.26500  0.95020  0.62820  Biso   1.000  H
  H122     1.0000 0.23500  0.45020  0.37180  Biso   1.000  H
  H123     1.0000 0.73500  0.04980  0.37180  Biso   1.000  H
  H124     1.0000 0.76500  0.54980  0.62820  Biso   1.000  H
  H125     1.0000 0.29280  0.03060  0.56050  Biso   1.000  H
  H126     1.0000 0.20720  0.53060  0.43950  Biso   1.000  H
  H127     1.0000 0.70720  0.96940  0.43950  Biso   1.000  H
  H128     1.0000 0.79280  0.46940  0.56050  Biso   1.000  H
