data_image0
_cell_length_a       9.3604
_cell_length_b       10.8601
_cell_length_c       11.3165
_cell_angle_alpha    63.858
_cell_angle_beta     74.334
_cell_angle_gamma    82.932

_symmetry_space_group_name_H-M    "P 1"
_symmetry_int_tables_number       1

loop_
  _symmetry_equiv_pos_as_xyz
  'x, y, z'

loop_
  _atom_site_label
  _atom_site_occupancy
  _atom_site_fract_x
  _atom_site_fract_y
  _atom_site_fract_z
  _atom_site_thermal_displace_type
  _atom_site_B_iso_or_equiv
  _atom_site_type_symbol
  C1       1.0000 0.58860  0.36760  0.16540  Biso   1.000  C
  C2       1.0000 0.41140  0.63240  0.83460  Biso   1.000  C
  C3       1.0000 0.69280  0.36390  0.24760  Biso   1.000  C
  C4       1.0000 0.30720  0.63610  0.75240  Biso   1.000  C
  C5       1.0000 0.40750  0.25150  0.13470  Biso   1.000  C
  C6       1.0000 0.59250  0.74850  0.86530  Biso   1.000  C
  C7       1.0000 0.32380  0.12240  0.17910  Biso   1.000  C
  C8       1.0000 0.67620  0.87760  0.82090  Biso   1.000  C
  C9       1.0000 0.64710  0.13700  0.16720  Biso   1.000  C
  C10      1.0000 0.35290  0.86300  0.83280  Biso   1.000  C
  C11      1.0000 0.62960  0.99280  0.27930  Biso   1.000  C
  C12      1.0000 0.37040  0.00720  0.72070  Biso   1.000  C
  C13      1.0000 0.08130  0.45710  0.59540  Biso   1.000  C
  C14      1.0000 0.91870  0.54290  0.40460  Biso   1.000  C
  C15      1.0000 0.13540  0.43270  0.48080  Biso   1.000  C
  C16      1.0000 0.86460  0.56730  0.51920  Biso   1.000  C
  C17      1.0000 0.28060  0.35720  0.46730  Biso   1.000  C
  C18      1.0000 0.71940  0.64280  0.53270  Biso   1.000  C
  C19      1.0000 0.94720  0.52250  0.61750  Biso   1.000  C
  C20      1.0000 0.05280  0.47750  0.38250  Biso   1.000  C
  C21      1.0000 0.89320  0.53390  0.75130  Biso   1.000  C
  C22      1.0000 0.10680  0.46610  0.24870  Biso   1.000  C
  N1       1.0000 0.52890  0.23020  0.20360  Biso   1.000  N
  N2       1.0000 0.47110  0.76980  0.79640  Biso   1.000  N
  O1       1.0000 0.63100  0.29600  0.39040  Biso   1.000  O
  O2       1.0000 0.36900  0.70400  0.60960  Biso   1.000  O
  H1       1.0000 0.55530  0.33620  0.41130  Biso   1.000  H
  H2       1.0000 0.44470  0.66380  0.58870  Biso   1.000  H
  O3       1.0000 0.27060  0.06530  0.32330  Biso   1.000  O
  O4       1.0000 0.72940  0.93470  0.67670  Biso   1.000  O
  O5       1.0000 0.08430  0.97300  0.62460  Biso   1.000  O
  O6       1.0000 0.91570  0.02700  0.37540  Biso   1.000  O
  O7       1.0000 0.61030  0.00300  0.40390  Biso   1.000  O
  O8       1.0000 0.38970  0.99700  0.59610  Biso   1.000  O
  O9       1.0000 0.81710  0.19910  0.55920  Biso   1.000  O
  O10      1.0000 0.18290  0.80090  0.44080  Biso   1.000  O
  O11      1.0000 0.02410  0.34240  0.01630  Biso   1.000  O
  O12      1.0000 0.97590  0.65760  0.98370  Biso   1.000  O
  O13      1.0000 0.28690  0.26840  0.42070  Biso   1.000  O
  O14      1.0000 0.71310  0.73160  0.57930  Biso   1.000  O
  O15      1.0000 0.38220  0.38540  0.50120  Biso   1.000  O
  O16      1.0000 0.61780  0.61460  0.49880  Biso   1.000  O
  O17      1.0000 0.80340  0.44730  0.84260  Biso   1.000  O
  O18      1.0000 0.19660  0.55270  0.15740  Biso   1.000  O
  O19      1.0000 0.94870  0.62620  0.76230  Biso   1.000  O
  O20      1.0000 0.05130  0.37380  0.23770  Biso   1.000  O
  O21      1.0000 0.14810  0.16300  0.91780  Biso   1.000  O
  O22      1.0000 0.85190  0.83700  0.08220  Biso   1.000  O
  O23      1.0000 0.42380  0.30270  0.77000  Biso   1.000  O
  O24      1.0000 0.57620  0.69730  0.23000  Biso   1.000  O
  O25      1.0000 0.28540  0.74630  0.21060  Biso   1.000  O
  O26      1.0000 0.71460  0.25370  0.78940  Biso   1.000  O
  O27      1.0000 0.94650  0.06520  0.83440  Biso   1.000  O
  O28      1.0000 0.05350  0.93480  0.16560  Biso   1.000  O
  Na1      1.0000 0.05276  0.16696  0.42225  Biso   1.000  Na
  Na2      1.0000 0.94724  0.83304  0.57775  Biso   1.000  Na
  Cu1      1.0000 0.45185  0.13681  0.41017  Biso   1.000  Cu
  Cu2      1.0000 0.54815  0.86319  0.58983  Biso   1.000  Cu
  H3       1.0000 0.63600  0.40600  0.07600  Biso   1.000  H
  H4       1.0000 0.36400  0.59400  0.92400  Biso   1.000  H
  H5       1.0000 0.50100  0.42800  0.18200  Biso   1.000  H
  H6       1.0000 0.49900  0.57200  0.81800  Biso   1.000  H
  H7       1.0000 0.77100  0.30500  0.23600  Biso   1.000  H
  H8       1.0000 0.22900  0.69500  0.76400  Biso   1.000  H
  H9       1.0000 0.72500  0.45900  0.22000  Biso   1.000  H
  H10      1.0000 0.27500  0.54100  0.78000  Biso   1.000  H
  H11      1.0000 0.44900  0.28900  0.03600  Biso   1.000  H
  H12      1.0000 0.55100  0.71100  0.96400  Biso   1.000  H
  H13      1.0000 0.34000  0.31700  0.15700  Biso   1.000  H
  H14      1.0000 0.66000  0.68300  0.84300  Biso   1.000  H
  H15      1.0000 0.24900  0.98500  0.35000  Biso   1.000  H
  H16      1.0000 0.75100  0.01500  0.65000  Biso   1.000  H
  H17      1.0000 0.24200  0.14400  0.13900  Biso   1.000  H
  H18      1.0000 0.75800  0.85600  0.86100  Biso   1.000  H
  H19      1.0000 0.39500  0.05200  0.14800  Biso   1.000  H
  H20      1.0000 0.60500  0.94800  0.85200  Biso   1.000  H
  H21      1.0000 0.65100  0.14100  0.07900  Biso   1.000  H
  H22      1.0000 0.34900  0.85900  0.92100  Biso   1.000  H
  H23      1.0000 0.73300  0.17400  0.15600  Biso   1.000  H
  H24      1.0000 0.26700  0.82600  0.84400  Biso   1.000  H
  H25      1.0000 0.54500  0.94900  0.27900  Biso   1.000  H
  H26      1.0000 0.45500  0.05100  0.72100  Biso   1.000  H
  H27      1.0000 0.72100  0.93800  0.26200  Biso   1.000  H
  H28      1.0000 0.27900  0.06200  0.73800  Biso   1.000  H
  H29      1.0000 0.74830  0.24820  0.51530  Biso   1.000  H
  H30      1.0000 0.25170  0.75180  0.48470  Biso   1.000  H
  H31      1.0000 0.78350  0.22700  0.61980  Biso   1.000  H
  H32      1.0000 0.21650  0.77300  0.38020  Biso   1.000  H
  H33      1.0000 0.13800  0.42400  0.66200  Biso   1.000  H
  H34      1.0000 0.86200  0.57600  0.33800  Biso   1.000  H
  H35      1.0000 0.95500  0.41060  0.97490  Biso   1.000  H
  H36      1.0000 0.04500  0.58940  0.02510  Biso   1.000  H
  H37      1.0000 0.03200  0.36370  0.08400  Biso   1.000  H
  H38      1.0000 0.96800  0.63630  0.91600  Biso   1.000  H
  H39      1.0000 0.09550  0.21670  0.95350  Biso   1.000  H
  H40      1.0000 0.90450  0.78330  0.04650  Biso   1.000  H
  H41      1.0000 0.10860  0.15960  0.87120  Biso   1.000  H
  H42      1.0000 0.89140  0.84040  0.12880  Biso   1.000  H
  H43      1.0000 0.43470  0.32210  0.68670  Biso   1.000  H
  H44      1.0000 0.56530  0.67790  0.31330  Biso   1.000  H
  H45      1.0000 0.33270  0.26250  0.83850  Biso   1.000  H
  H46      1.0000 0.66730  0.73750  0.16150  Biso   1.000  H
  H47      1.0000 0.38780  0.73410  0.21220  Biso   1.000  H
  H48      1.0000 0.61220  0.26590  0.78780  Biso   1.000  H
  H49      1.0000 0.26790  0.69850  0.18360  Biso   1.000  H
  H50      1.0000 0.73210  0.30150  0.81640  Biso   1.000  H
  H51      1.0000 0.91600  0.99760  0.91600  Biso   1.000  H
  H52      1.0000 0.08400  0.00240  0.08400  Biso   1.000  H
  H53      1.0000 0.86590  0.13210  0.81300  Biso   1.000  H
  H54      1.0000 0.13410  0.86790  0.18700  Biso   1.000  H
  H55      1.0000 0.17940  0.98010  0.62110  Biso   1.000  H
  H56      1.0000 0.82060  0.01990  0.37890  Biso   1.000  H
  H57      1.0000 0.04150  0.99490  0.68290  Biso   1.000  H
  H58      1.0000 0.95850  0.00510  0.31710  Biso   1.000  H
