data_image0
_cell_length_a       14.1995
_cell_length_b       11.3316
_cell_length_c       9.7483
_cell_angle_alpha    90
_cell_angle_beta     106.453
_cell_angle_gamma    90

_symmetry_space_group_name_H-M    "P 1"
_symmetry_int_tables_number       1

loop_
  _symmetry_equiv_pos_as_xyz
  'x, y, z'

loop_
  _atom_site_label
  _atom_site_occupancy
  _atom_site_fract_x
  _atom_site_fract_y
  _atom_site_fract_z
  _atom_site_thermal_displace_type
  _atom_site_B_iso_or_equiv
  _atom_site_type_symbol
  Cu1      1.0000 0.23211  0.09006  0.14839  Biso   1.000  Cu
  Cu2      1.0000 0.76789  0.59006  0.35161  Biso   1.000  Cu
  Cu3      1.0000 0.76789  0.90994  0.85161  Biso   1.000  Cu
  Cu4      1.0000 0.23211  0.40994  0.64839  Biso   1.000  Cu
  O1       1.0000 0.14506  0.01040  0.23670  Biso   1.000  O
  O2       1.0000 0.85494  0.51040  0.26330  Biso   1.000  O
  O3       1.0000 0.85494  0.98960  0.76330  Biso   1.000  O
  O4       1.0000 0.14506  0.48960  0.73670  Biso   1.000  O
  N1       1.0000 0.12558  0.18100  0.02520  Biso   1.000  N
  N2       1.0000 0.87442  0.68100  0.47480  Biso   1.000  N
  N3       1.0000 0.87442  0.81900  0.97480  Biso   1.000  N
  N4       1.0000 0.12558  0.31900  0.52520  Biso   1.000  N
  C1       1.0000 0.05150  0.03040  0.21900  Biso   1.000  C
  C2       1.0000 0.94850  0.53040  0.28100  Biso   1.000  C
  C3       1.0000 0.94850  0.96960  0.78100  Biso   1.000  C
  C4       1.0000 0.05150  0.46960  0.71900  Biso   1.000  C
  O5       1.0000 0.30478  0.14790  0.01610  Biso   1.000  O
  O6       1.0000 0.69522  0.64790  0.48390  Biso   1.000  O
  O7       1.0000 0.69522  0.85210  0.98390  Biso   1.000  O
  O8       1.0000 0.30478  0.35210  0.51610  Biso   1.000  O
  N5       1.0000 0.34630  0.98780  0.25230  Biso   1.000  N
  N6       1.0000 0.65370  0.48780  0.24770  Biso   1.000  N
  N7       1.0000 0.65370  0.01220  0.74770  Biso   1.000  N
  N8       1.0000 0.34630  0.51220  0.75230  Biso   1.000  N
  C5       1.0000 0.00330  0.97240  0.30710  Biso   1.000  C
  C6       1.0000 0.99670  0.47240  0.19290  Biso   1.000  C
  C7       1.0000 0.99670  0.02760  0.69290  Biso   1.000  C
  C8       1.0000 0.00330  0.52760  0.80710  Biso   1.000  C
  H1       1.0000 0.03850  0.91920  0.37520  Biso   1.000  H
  H2       1.0000 0.96150  0.41920  0.12480  Biso   1.000  H
  H3       1.0000 0.96150  0.08080  0.62480  Biso   1.000  H
  H4       1.0000 0.03850  0.58080  0.87520  Biso   1.000  H
  C9       1.0000 0.90700  0.99120  0.29630  Biso   1.000  C
  C10      1.0000 0.09300  0.49120  0.20370  Biso   1.000  C
  C11      1.0000 0.09300  0.00880  0.70370  Biso   1.000  C
  C12      1.0000 0.90700  0.50880  0.79630  Biso   1.000  C
  H5       1.0000 0.87840  0.95280  0.35870  Biso   1.000  H
  H6       1.0000 0.12160  0.45280  0.14130  Biso   1.000  H
  H7       1.0000 0.12160  0.04720  0.64130  Biso   1.000  H
  H8       1.0000 0.87840  0.54720  0.85870  Biso   1.000  H
  O9       1.0000 0.29164  0.23870  0.32510  Biso   1.000  O
  O10      1.0000 0.70836  0.73870  0.17490  Biso   1.000  O
  O11      1.0000 0.70836  0.76130  0.67490  Biso   1.000  O
  O12      1.0000 0.29164  0.26130  0.82510  Biso   1.000  O
  C13      1.0000 0.85060  0.06720  0.19340  Biso   1.000  C
  C14      1.0000 0.14940  0.56720  0.30660  Biso   1.000  C
  C15      1.0000 0.14940  0.93280  0.80660  Biso   1.000  C
  C16      1.0000 0.85060  0.43280  0.69340  Biso   1.000  C
  H9       1.0000 0.78430  0.07850  0.18510  Biso   1.000  H
  H10      1.0000 0.21570  0.57850  0.31490  Biso   1.000  H
  H11      1.0000 0.21570  0.92150  0.81490  Biso   1.000  H
  H12      1.0000 0.78430  0.42150  0.68510  Biso   1.000  H
  C17      1.0000 0.89410  0.12460  0.10500  Biso   1.000  C
  C18      1.0000 0.10590  0.62460  0.39500  Biso   1.000  C
  C19      1.0000 0.10590  0.87540  0.89500  Biso   1.000  C
  C20      1.0000 0.89410  0.37540  0.60500  Biso   1.000  C
  H13      1.0000 0.85650  0.17520  0.03580  Biso   1.000  H
  H14      1.0000 0.14350  0.67520  0.46420  Biso   1.000  H
  H15      1.0000 0.14350  0.82480  0.96420  Biso   1.000  H
  H16      1.0000 0.85650  0.32480  0.53580  Biso   1.000  H
  C21      1.0000 0.99430  0.11010  0.11460  Biso   1.000  C
  C22      1.0000 0.00570  0.61010  0.38540  Biso   1.000  C
  C23      1.0000 0.00570  0.88990  0.88540  Biso   1.000  C
  C24      1.0000 0.99430  0.38990  0.61460  Biso   1.000  C
  C25      1.0000 0.03400  0.17690  0.01940  Biso   1.000  C
  C26      1.0000 0.96600  0.67690  0.48060  Biso   1.000  C
  C27      1.0000 0.96600  0.82310  0.98060  Biso   1.000  C
  C28      1.0000 0.03400  0.32310  0.51940  Biso   1.000  C
  H17      1.0000 0.99050  0.22060  0.94830  Biso   1.000  H
  H18      1.0000 0.00950  0.72060  0.55170  Biso   1.000  H
  H19      1.0000 0.00950  0.77940  0.05170  Biso   1.000  H
  H20      1.0000 0.99050  0.27940  0.44830  Biso   1.000  H
  C29      1.0000 0.15660  0.25330  0.92240  Biso   1.000  C
  C30      1.0000 0.84340  0.75330  0.57760  Biso   1.000  C
  C31      1.0000 0.84340  0.74670  0.07760  Biso   1.000  C
  C32      1.0000 0.15660  0.24670  0.42240  Biso   1.000  C
  H21      1.0000 0.15640  0.33580  0.94890  Biso   1.000  H
  H22      1.0000 0.84360  0.83580  0.55110  Biso   1.000  H
  H23      1.0000 0.84360  0.66420  0.05110  Biso   1.000  H
  H24      1.0000 0.15640  0.16420  0.44890  Biso   1.000  H
  H25      1.0000 0.11080  0.24350  0.82810  Biso   1.000  H
  H26      1.0000 0.88920  0.74350  0.67190  Biso   1.000  H
  H27      1.0000 0.88920  0.75650  0.17190  Biso   1.000  H
  H28      1.0000 0.11080  0.25650  0.32810  Biso   1.000  H
  C33      1.0000 0.25820  0.21830  0.91850  Biso   1.000  C
  C34      1.0000 0.74180  0.71830  0.58150  Biso   1.000  C
  C35      1.0000 0.74180  0.78170  0.08150  Biso   1.000  C
  C36      1.0000 0.25820  0.28170  0.41850  Biso   1.000  C
  C37      1.0000 0.43740  0.01350  0.24460  Biso   1.000  C
  C38      1.0000 0.56260  0.51350  0.25540  Biso   1.000  C
  C39      1.0000 0.56260  0.98650  0.75540  Biso   1.000  C
  C40      1.0000 0.43740  0.48650  0.74460  Biso   1.000  C
  H29      1.0000 0.44520  0.07680  0.18790  Biso   1.000  H
  H30      1.0000 0.55480  0.57680  0.31210  Biso   1.000  H
  H31      1.0000 0.55480  0.92320  0.81210  Biso   1.000  H
  H32      1.0000 0.44520  0.42320  0.68790  Biso   1.000  H
  C41      1.0000 0.51930  0.95080  0.31630  Biso   1.000  C
  C42      1.0000 0.48070  0.45080  0.18370  Biso   1.000  C
  C43      1.0000 0.48070  0.04920  0.68370  Biso   1.000  C
  C44      1.0000 0.51930  0.54920  0.81630  Biso   1.000  C
  C45      1.0000 0.50660  0.85780  0.40260  Biso   1.000  C
  C46      1.0000 0.49340  0.35780  0.09740  Biso   1.000  C
  C47      1.0000 0.49340  0.14220  0.59740  Biso   1.000  C
  C48      1.0000 0.50660  0.64220  0.90260  Biso   1.000  C
  H33      1.0000 0.56060  0.81410  0.45360  Biso   1.000  H
  H34      1.0000 0.43940  0.31410  0.04640  Biso   1.000  H
  H35      1.0000 0.43940  0.18590  0.54640  Biso   1.000  H
  H36      1.0000 0.56060  0.68590  0.95360  Biso   1.000  H
  C49      1.0000 0.41420  0.83040  0.41270  Biso   1.000  C
  C50      1.0000 0.58580  0.33040  0.08730  Biso   1.000  C
  C51      1.0000 0.58580  0.16960  0.58730  Biso   1.000  C
  C52      1.0000 0.41420  0.66960  0.91270  Biso   1.000  C
  C53      1.0000 0.33630  0.89740  0.33510  Biso   1.000  C
  C54      1.0000 0.66370  0.39740  0.16490  Biso   1.000  C
  C55      1.0000 0.66370  0.10260  0.66490  Biso   1.000  C
  C56      1.0000 0.33630  0.60260  0.83510  Biso   1.000  C
  H37      1.0000 0.27370  0.87870  0.34060  Biso   1.000  H
  H38      1.0000 0.72630  0.37870  0.15940  Biso   1.000  H
  H39      1.0000 0.72630  0.12130  0.65940  Biso   1.000  H
  H40      1.0000 0.27370  0.62130  0.84060  Biso   1.000  H
  C57      1.0000 0.61940  0.98130  0.30060  Biso   1.000  C
  C58      1.0000 0.38060  0.48130  0.19940  Biso   1.000  C
  C59      1.0000 0.38060  0.01870  0.69940  Biso   1.000  C
  C60      1.0000 0.61940  0.51870  0.80060  Biso   1.000  C
  H41      1.0000 0.62250  0.06440  0.28330  Biso   1.000  H
  H42      1.0000 0.37750  0.56440  0.21670  Biso   1.000  H
  H43      1.0000 0.37750  0.93560  0.71670  Biso   1.000  H
  H44      1.0000 0.62250  0.43560  0.78330  Biso   1.000  H
  H45      1.0000 0.63020  0.93820  0.22160  Biso   1.000  H
  H46      1.0000 0.36980  0.43820  0.27840  Biso   1.000  H
  H47      1.0000 0.36980  0.06180  0.77840  Biso   1.000  H
  H48      1.0000 0.63020  0.56180  0.72160  Biso   1.000  H
  H49      1.0000 0.66900  0.96070  0.38680  Biso   1.000  H
  H50      1.0000 0.33100  0.46070  0.11320  Biso   1.000  H
  H51      1.0000 0.33100  0.03930  0.61320  Biso   1.000  H
  H52      1.0000 0.66900  0.53930  0.88680  Biso   1.000  H
  C61      1.0000 0.39970  0.73170  0.50940  Biso   1.000  C
  C62      1.0000 0.60030  0.23170  0.99060  Biso   1.000  C
  C63      1.0000 0.60030  0.26830  0.49060  Biso   1.000  C
  C64      1.0000 0.39970  0.76830  0.00940  Biso   1.000  C
  H53      1.0000 0.43760  0.74770  0.60590  Biso   1.000  H
  H54      1.0000 0.56240  0.24770  0.89410  Biso   1.000  H
  H55      1.0000 0.56240  0.25230  0.39410  Biso   1.000  H
  H56      1.0000 0.43760  0.75230  0.10590  Biso   1.000  H
  H57      1.0000 0.42090  0.65840  0.47840  Biso   1.000  H
  H58      1.0000 0.57910  0.15840  0.02160  Biso   1.000  H
  H59      1.0000 0.57910  0.34160  0.52160  Biso   1.000  H
  H60      1.0000 0.42090  0.84160  0.97840  Biso   1.000  H
  H61      1.0000 0.33150  0.72630  0.50510  Biso   1.000  H
  H62      1.0000 0.66850  0.22630  0.99490  Biso   1.000  H
  H63      1.0000 0.66850  0.27370  0.49490  Biso   1.000  H
  H64      1.0000 0.33150  0.77370  0.00510  Biso   1.000  H
