data_image0
_cell_length_a       8.7177
_cell_length_b       22.8785
_cell_length_c       13.3318
_cell_angle_alpha    90
_cell_angle_beta     91.452
_cell_angle_gamma    90

_symmetry_space_group_name_H-M    "P 1"
_symmetry_int_tables_number       1

loop_
  _symmetry_equiv_pos_as_xyz
  'x, y, z'

loop_
  _atom_site_label
  _atom_site_occupancy
  _atom_site_fract_x
  _atom_site_fract_y
  _atom_site_fract_z
  _atom_site_thermal_displace_type
  _atom_site_B_iso_or_equiv
  _atom_site_type_symbol
  Cu1      1.0000 0.96370  0.49389  0.00650  Biso   1.000  Cu
  Cu2      1.0000 0.53630  0.99389  0.49350  Biso   1.000  Cu
  Cu3      1.0000 0.03630  0.50611  0.99350  Biso   1.000  Cu
  Cu4      1.0000 0.46370  0.00611  0.50650  Biso   1.000  Cu
  Cl1      1.0000 0.70164  0.45069  0.07487  Biso   1.000  Cl
  Cl2      1.0000 0.79836  0.95069  0.42513  Biso   1.000  Cl
  Cl3      1.0000 0.29836  0.54931  0.92513  Biso   1.000  Cl
  Cl4      1.0000 0.20164  0.04931  0.57487  Biso   1.000  Cl
  O1       1.0000 0.47810  0.32848  0.82012  Biso   1.000  O
  O2       1.0000 0.02190  0.82848  0.67988  Biso   1.000  O
  O3       1.0000 0.52190  0.67152  0.17988  Biso   1.000  O
  O4       1.0000 0.97810  0.17152  0.32012  Biso   1.000  O
  C1       1.0000 0.54430  0.38495  0.83700  Biso   1.000  C
  C2       1.0000 0.95570  0.88495  0.66300  Biso   1.000  C
  C3       1.0000 0.45570  0.61505  0.16300  Biso   1.000  C
  C4       1.0000 0.04430  0.11505  0.33700  Biso   1.000  C
  H1       1.0000 0.60270  0.38560  0.90160  Biso   1.000  H
  H2       1.0000 0.89730  0.88560  0.59840  Biso   1.000  H
  H3       1.0000 0.39730  0.61440  0.09840  Biso   1.000  H
  H4       1.0000 0.10270  0.11440  0.40160  Biso   1.000  H
  H5       1.0000 0.46280  0.41500  0.83920  Biso   1.000  H
  H6       1.0000 0.03720  0.91500  0.66080  Biso   1.000  H
  H7       1.0000 0.53720  0.58500  0.16080  Biso   1.000  H
  H8       1.0000 0.96280  0.08500  0.33920  Biso   1.000  H
  C5       1.0000 0.64920  0.39699  0.75168  Biso   1.000  C
  C6       1.0000 0.85080  0.89699  0.74832  Biso   1.000  C
  C7       1.0000 0.35080  0.60301  0.24832  Biso   1.000  C
  C8       1.0000 0.14920  0.10301  0.25168  Biso   1.000  C
  H9       1.0000 0.71110  0.43240  0.76650  Biso   1.000  H
  H10      1.0000 0.78890  0.93240  0.73350  Biso   1.000  H
  H11      1.0000 0.28890  0.56760  0.23350  Biso   1.000  H
  H12      1.0000 0.21110  0.06760  0.26650  Biso   1.000  H
  H13      1.0000 0.72030  0.36370  0.74340  Biso   1.000  H
  H14      1.0000 0.77970  0.86370  0.75660  Biso   1.000  H
  H15      1.0000 0.27970  0.63630  0.25660  Biso   1.000  H
  H16      1.0000 0.22030  0.13630  0.24340  Biso   1.000  H
  O5       1.0000 0.56060  0.40547  0.66124  Biso   1.000  O
  O6       1.0000 0.93940  0.90547  0.83876  Biso   1.000  O
  O7       1.0000 0.43940  0.59453  0.33876  Biso   1.000  O
  O8       1.0000 0.06060  0.09453  0.16124  Biso   1.000  O
  C9       1.0000 0.64110  0.41792  0.57625  Biso   1.000  C
  C10      1.0000 0.85890  0.91792  0.92375  Biso   1.000  C
  C11      1.0000 0.35890  0.58208  0.42375  Biso   1.000  C
  C12      1.0000 0.14110  0.08208  0.07625  Biso   1.000  C
  C13      1.0000 0.55480  0.42971  0.48865  Biso   1.000  C
  C14      1.0000 0.94520  0.92971  0.01135  Biso   1.000  C
  C15      1.0000 0.44520  0.57029  0.51135  Biso   1.000  C
  C16      1.0000 0.05480  0.07029  0.98865  Biso   1.000  C
  C17      1.0000 0.37980  0.42780  0.48320  Biso   1.000  C
  C18      1.0000 0.12020  0.92780  0.01680  Biso   1.000  C
  C19      1.0000 0.62020  0.57220  0.51680  Biso   1.000  C
  C20      1.0000 0.87980  0.07220  0.98320  Biso   1.000  C
  H17      1.0000 0.34140  0.43610  0.55100  Biso   1.000  H
  H18      1.0000 0.15860  0.93610  0.94900  Biso   1.000  H
  H19      1.0000 0.65860  0.56390  0.44900  Biso   1.000  H
  H20      1.0000 0.84140  0.06390  0.05100  Biso   1.000  H
  H21      1.0000 0.34350  0.45970  0.43840  Biso   1.000  H
  H22      1.0000 0.15650  0.95970  0.06160  Biso   1.000  H
  H23      1.0000 0.65650  0.54030  0.56160  Biso   1.000  H
  H24      1.0000 0.84350  0.04030  0.93840  Biso   1.000  H
  N1       1.0000 0.31010  0.37295  0.44767  Biso   1.000  N
  N2       1.0000 0.18990  0.87295  0.05233  Biso   1.000  N
  N3       1.0000 0.68990  0.62705  0.55233  Biso   1.000  N
  N4       1.0000 0.81010  0.12705  0.94767  Biso   1.000  N
  C21      1.0000 0.34020  0.32426  0.51611  Biso   1.000  C
  C22      1.0000 0.15980  0.82426  0.98389  Biso   1.000  C
  C23      1.0000 0.65980  0.67574  0.48389  Biso   1.000  C
  C24      1.0000 0.84020  0.17574  0.01611  Biso   1.000  C
  H25      1.0000 0.35520  0.33970  0.58500  Biso   1.000  H
  H26      1.0000 0.14480  0.83970  0.91500  Biso   1.000  H
  H27      1.0000 0.64480  0.66030  0.41500  Biso   1.000  H
  H28      1.0000 0.85520  0.16030  0.08500  Biso   1.000  H
  H29      1.0000 0.43650  0.30470  0.49710  Biso   1.000  H
  H30      1.0000 0.06350  0.80470  0.00290  Biso   1.000  H
  H31      1.0000 0.56350  0.69530  0.50290  Biso   1.000  H
  H32      1.0000 0.93650  0.19530  0.99710  Biso   1.000  H
  C25      1.0000 0.21090  0.27943  0.51545  Biso   1.000  C
  C26      1.0000 0.28910  0.77943  0.98455  Biso   1.000  C
  C27      1.0000 0.78910  0.72057  0.48455  Biso   1.000  C
  C28      1.0000 0.71090  0.22057  0.01545  Biso   1.000  C
  H33      1.0000 0.11190  0.29930  0.52650  Biso   1.000  H
  H34      1.0000 0.38810  0.79930  0.97350  Biso   1.000  H
  H35      1.0000 0.88810  0.70070  0.47350  Biso   1.000  H
  H36      1.0000 0.61190  0.20070  0.02650  Biso   1.000  H
  H37      1.0000 0.20440  0.25970  0.44940  Biso   1.000  H
  H38      1.0000 0.29560  0.75970  0.05060  Biso   1.000  H
  H39      1.0000 0.79560  0.74030  0.55060  Biso   1.000  H
  H40      1.0000 0.70440  0.24030  0.94940  Biso   1.000  H
  C29      1.0000 0.24050  0.23439  0.59761  Biso   1.000  C
  C30      1.0000 0.25950  0.73439  0.90239  Biso   1.000  C
  C31      1.0000 0.75950  0.76561  0.40239  Biso   1.000  C
  C32      1.0000 0.74050  0.26561  0.09761  Biso   1.000  C
  H41      1.0000 0.16020  0.20380  0.59350  Biso   1.000  H
  H42      1.0000 0.33980  0.70380  0.90650  Biso   1.000  H
  H43      1.0000 0.83980  0.79620  0.40650  Biso   1.000  H
  H44      1.0000 0.66020  0.29620  0.09350  Biso   1.000  H
  H45      1.0000 0.34100  0.21540  0.58740  Biso   1.000  H
  H46      1.0000 0.15900  0.71540  0.91260  Biso   1.000  H
  H47      1.0000 0.65900  0.78460  0.41260  Biso   1.000  H
  H48      1.0000 0.84100  0.28460  0.08740  Biso   1.000  H
  N5       1.0000 0.24030  0.26161  0.69725  Biso   1.000  N
  N6       1.0000 0.25970  0.76161  0.80275  Biso   1.000  N
  N7       1.0000 0.75970  0.73839  0.30275  Biso   1.000  N
  N8       1.0000 0.74030  0.23839  0.19725  Biso   1.000  N
  C33      1.0000 0.33140  0.22566  0.76829  Biso   1.000  C
  C34      1.0000 0.16860  0.72566  0.73171  Biso   1.000  C
  C35      1.0000 0.66860  0.77434  0.23171  Biso   1.000  C
  C36      1.0000 0.83140  0.27434  0.26829  Biso   1.000  C
  H49      1.0000 0.43860  0.22370  0.74580  Biso   1.000  H
  H50      1.0000 0.06140  0.72370  0.75420  Biso   1.000  H
  H51      1.0000 0.56140  0.77630  0.25420  Biso   1.000  H
  H52      1.0000 0.93860  0.27630  0.24580  Biso   1.000  H
  H53      1.0000 0.28980  0.18540  0.76830  Biso   1.000  H
  H54      1.0000 0.21020  0.68540  0.73170  Biso   1.000  H
  H55      1.0000 0.71020  0.81460  0.23170  Biso   1.000  H
  H56      1.0000 0.78980  0.31460  0.26830  Biso   1.000  H
  C37      1.0000 0.33010  0.24966  0.87338  Biso   1.000  C
  C38      1.0000 0.16990  0.74966  0.62662  Biso   1.000  C
  C39      1.0000 0.66990  0.75034  0.12662  Biso   1.000  C
  C40      1.0000 0.83010  0.25034  0.37338  Biso   1.000  C
  C41      1.0000 0.39840  0.30365  0.89608  Biso   1.000  C
  C42      1.0000 0.10160  0.80365  0.60392  Biso   1.000  C
  C43      1.0000 0.60160  0.69635  0.10392  Biso   1.000  C
  C44      1.0000 0.89840  0.19635  0.39608  Biso   1.000  C
  C45      1.0000 0.38340  0.32866  0.99042  Biso   1.000  C
  C46      1.0000 0.11660  0.82866  0.50958  Biso   1.000  C
  C47      1.0000 0.61660  0.67134  0.00958  Biso   1.000  C
  C48      1.0000 0.88340  0.17134  0.49042  Biso   1.000  C
  H57      1.0000 0.42740  0.36580  0.00520  Biso   1.000  H
  H58      1.0000 0.07260  0.86580  0.49480  Biso   1.000  H
  H59      1.0000 0.57260  0.63420  0.99480  Biso   1.000  H
  H60      1.0000 0.92740  0.13420  0.50520  Biso   1.000  H
  C49      1.0000 0.30270  0.29826  0.06310  Biso   1.000  C
  C50      1.0000 0.19730  0.79826  0.43690  Biso   1.000  C
  C51      1.0000 0.69730  0.70174  0.93690  Biso   1.000  C
  C52      1.0000 0.80270  0.20174  0.56310  Biso   1.000  C
  H61      1.0000 0.28980  0.31550  0.12710  Biso   1.000  H
  H62      1.0000 0.21020  0.81550  0.37290  Biso   1.000  H
  H63      1.0000 0.71020  0.68450  0.87290  Biso   1.000  H
  H64      1.0000 0.78980  0.18450  0.62710  Biso   1.000  H
  C53      1.0000 0.24140  0.24384  0.04370  Biso   1.000  C
  C54      1.0000 0.25860  0.74384  0.45630  Biso   1.000  C
  C55      1.0000 0.75860  0.75616  0.95630  Biso   1.000  C
  C56      1.0000 0.74140  0.25616  0.54370  Biso   1.000  C
  H65      1.0000 0.19020  0.22300  0.09460  Biso   1.000  H
  H66      1.0000 0.30980  0.72300  0.40540  Biso   1.000  H
  H67      1.0000 0.80980  0.77700  0.90540  Biso   1.000  H
  H68      1.0000 0.69020  0.27700  0.59460  Biso   1.000  H
  C57      1.0000 0.25550  0.21978  0.94866  Biso   1.000  C
  C58      1.0000 0.24450  0.71978  0.55134  Biso   1.000  C
  C59      1.0000 0.74450  0.78022  0.05134  Biso   1.000  C
  C60      1.0000 0.75550  0.28022  0.44866  Biso   1.000  C
  H69      1.0000 0.21340  0.18220  0.93490  Biso   1.000  H
  H70      1.0000 0.28660  0.68220  0.56510  Biso   1.000  H
  H71      1.0000 0.78660  0.81780  0.06510  Biso   1.000  H
  H72      1.0000 0.71340  0.31780  0.43490  Biso   1.000  H
  C61      1.0000 0.80200  0.41991  0.57660  Biso   1.000  C
  C62      1.0000 0.69800  0.91991  0.92340  Biso   1.000  C
  C63      1.0000 0.19800  0.58009  0.42340  Biso   1.000  C
  C64      1.0000 0.30200  0.08009  0.07660  Biso   1.000  C
  H73      1.0000 0.85960  0.41120  0.63620  Biso   1.000  H
  H74      1.0000 0.64040  0.91120  0.86380  Biso   1.000  H
  H75      1.0000 0.14040  0.58880  0.36380  Biso   1.000  H
  H76      1.0000 0.35960  0.08880  0.13620  Biso   1.000  H
  C65      1.0000 0.87650  0.43468  0.48930  Biso   1.000  C
  C66      1.0000 0.62350  0.93468  0.01070  Biso   1.000  C
  C67      1.0000 0.12350  0.56532  0.51070  Biso   1.000  C
  C68      1.0000 0.37650  0.06532  0.98930  Biso   1.000  C
  H77      1.0000 0.98540  0.43530  0.48890  Biso   1.000  H
  H78      1.0000 0.51460  0.93530  0.01110  Biso   1.000  H
  H79      1.0000 0.01460  0.56470  0.51110  Biso   1.000  H
  H80      1.0000 0.48540  0.06470  0.98890  Biso   1.000  H
  C69      1.0000 0.79390  0.44846  0.40330  Biso   1.000  C
  C70      1.0000 0.70610  0.94846  0.09670  Biso   1.000  C
  C71      1.0000 0.20610  0.55154  0.59670  Biso   1.000  C
  C72      1.0000 0.29390  0.05154  0.90330  Biso   1.000  C
  H81      1.0000 0.84520  0.45970  0.34430  Biso   1.000  H
  H82      1.0000 0.65480  0.95970  0.15570  Biso   1.000  H
  H83      1.0000 0.15480  0.54030  0.65570  Biso   1.000  H
  H84      1.0000 0.34520  0.04030  0.84430  Biso   1.000  H
  C73      1.0000 0.63440  0.44577  0.40360  Biso   1.000  C
  C74      1.0000 0.86560  0.94577  0.09640  Biso   1.000  C
  C75      1.0000 0.36560  0.55423  0.59640  Biso   1.000  C
  C76      1.0000 0.13440  0.05423  0.90360  Biso   1.000  C
  H85      1.0000 0.57800  0.45520  0.34390  Biso   1.000  H
  H86      1.0000 0.92200  0.95520  0.15610  Biso   1.000  H
  H87      1.0000 0.42200  0.54480  0.65610  Biso   1.000  H
  H88      1.0000 0.07800  0.04480  0.84390  Biso   1.000  H
  C77      1.0000 0.34890  0.35840  0.34484  Biso   1.000  C
  C78      1.0000 0.15110  0.85840  0.15516  Biso   1.000  C
  C79      1.0000 0.65110  0.64160  0.65516  Biso   1.000  C
  C80      1.0000 0.84890  0.14160  0.84484  Biso   1.000  C
  H89      1.0000 0.31940  0.31730  0.33100  Biso   1.000  H
  H90      1.0000 0.18060  0.81730  0.16900  Biso   1.000  H
  H91      1.0000 0.68060  0.68270  0.66900  Biso   1.000  H
  H92      1.0000 0.81940  0.18270  0.83100  Biso   1.000  H
  H93      1.0000 0.46140  0.36160  0.33780  Biso   1.000  H
  H94      1.0000 0.03860  0.86160  0.16220  Biso   1.000  H
  H95      1.0000 0.53860  0.63840  0.66220  Biso   1.000  H
  H96      1.0000 0.96140  0.13840  0.83780  Biso   1.000  H
  C81      1.0000 0.27050  0.39740  0.26848  Biso   1.000  C
  C82      1.0000 0.22950  0.89740  0.23152  Biso   1.000  C
  C83      1.0000 0.72950  0.60260  0.73152  Biso   1.000  C
  C84      1.0000 0.77050  0.10260  0.76848  Biso   1.000  C
  C85      1.0000 0.34990  0.42672  0.19450  Biso   1.000  C
  C86      1.0000 0.15010  0.92672  0.30550  Biso   1.000  C
  C87      1.0000 0.65010  0.57328  0.80550  Biso   1.000  C
  C88      1.0000 0.84990  0.07328  0.69450  Biso   1.000  C
  H97      1.0000 0.45880  0.42590  0.19490  Biso   1.000  H
  H98      1.0000 0.04120  0.92590  0.30510  Biso   1.000  H
  H99      1.0000 0.54120  0.57410  0.80510  Biso   1.000  H
  H100     1.0000 0.95880  0.07410  0.69490  Biso   1.000  H
  C89      1.0000 0.26970  0.45705  0.12030  Biso   1.000  C
  C90      1.0000 0.23030  0.95705  0.37970  Biso   1.000  C
  C91      1.0000 0.73030  0.54295  0.87970  Biso   1.000  C
  C92      1.0000 0.76970  0.04295  0.62030  Biso   1.000  C
  H101     1.0000 0.32560  0.47700  0.07050  Biso   1.000  H
  H102     1.0000 0.17440  0.97700  0.42950  Biso   1.000  H
  H103     1.0000 0.67440  0.52300  0.92950  Biso   1.000  H
  H104     1.0000 0.82560  0.02300  0.57050  Biso   1.000  H
  N9       1.0000 0.11980  0.45921  0.11617  Biso   1.000  N
  N10      1.0000 0.38020  0.95921  0.38383  Biso   1.000  N
  N11      1.0000 0.88020  0.54079  0.88383  Biso   1.000  N
  N12      1.0000 0.61980  0.04079  0.61617  Biso   1.000  N
  C93      1.0000 0.04030  0.43105  0.18710  Biso   1.000  C
  C94      1.0000 0.45970  0.93105  0.31290  Biso   1.000  C
  C95      1.0000 0.95970  0.56895  0.81290  Biso   1.000  C
  C96      1.0000 0.54030  0.06895  0.68710  Biso   1.000  C
  H105     1.0000 0.93130  0.43200  0.18360  Biso   1.000  H
  H106     1.0000 0.56870  0.93200  0.31640  Biso   1.000  H
  H107     1.0000 0.06870  0.56800  0.81640  Biso   1.000  H
  H108     1.0000 0.43130  0.06800  0.68360  Biso   1.000  H
  C97      1.0000 0.11240  0.40089  0.26457  Biso   1.000  C
  C98      1.0000 0.38760  0.90089  0.23543  Biso   1.000  C
  C99      1.0000 0.88760  0.59911  0.73543  Biso   1.000  C
  C100     1.0000 0.61240  0.09911  0.76457  Biso   1.000  C
  H109     1.0000 0.05360  0.38270  0.31480  Biso   1.000  H
  H110     1.0000 0.44640  0.88270  0.18520  Biso   1.000  H
  H111     1.0000 0.94640  0.61730  0.68520  Biso   1.000  H
  H112     1.0000 0.55360  0.11730  0.81480  Biso   1.000  H
  C101     1.0000 0.08420  0.27221  0.73111  Biso   1.000  C
  C102     1.0000 0.41580  0.77221  0.76889  Biso   1.000  C
  C103     1.0000 0.91580  0.72779  0.26889  Biso   1.000  C
  C104     1.0000 0.58420  0.22779  0.23111  Biso   1.000  C
  H113     1.0000 0.05020  0.23790  0.76990  Biso   1.000  H
  H114     1.0000 0.44980  0.73790  0.73010  Biso   1.000  H
  H115     1.0000 0.94980  0.76210  0.23010  Biso   1.000  H
  H116     1.0000 0.55020  0.26210  0.26990  Biso   1.000  H
  H117     1.0000 0.01470  0.27610  0.67160  Biso   1.000  H
  H118     1.0000 0.48530  0.77610  0.82840  Biso   1.000  H
  H119     1.0000 0.98530  0.72390  0.32840  Biso   1.000  H
  H120     1.0000 0.51470  0.22390  0.17160  Biso   1.000  H
  C105     1.0000 0.06940  0.32642  0.79563  Biso   1.000  C
  C106     1.0000 0.43060  0.82642  0.70437  Biso   1.000  C
  C107     1.0000 0.93060  0.67358  0.20437  Biso   1.000  C
  C108     1.0000 0.56940  0.17358  0.29563  Biso   1.000  C
  C109     1.0000 0.13780  0.37905  0.77093  Biso   1.000  C
  C110     1.0000 0.36220  0.87905  0.72907  Biso   1.000  C
  C111     1.0000 0.86220  0.62095  0.22907  Biso   1.000  C
  C112     1.0000 0.63780  0.12095  0.27093  Biso   1.000  C
  H121     1.0000 0.19960  0.38160  0.71340  Biso   1.000  H
  H122     1.0000 0.30040  0.88160  0.78660  Biso   1.000  H
  H123     1.0000 0.80040  0.61840  0.28660  Biso   1.000  H
  H124     1.0000 0.69960  0.11840  0.21340  Biso   1.000  H
  C113     1.0000 0.11580  0.42793  0.83020  Biso   1.000  C
  C114     1.0000 0.38420  0.92793  0.66980  Biso   1.000  C
  C115     1.0000 0.88420  0.57207  0.16980  Biso   1.000  C
  C116     1.0000 0.61580  0.07207  0.33020  Biso   1.000  C
  H125     1.0000 0.16400  0.46350  0.81220  Biso   1.000  H
  H126     1.0000 0.33600  0.96350  0.68780  Biso   1.000  H
  H127     1.0000 0.83600  0.53650  0.18780  Biso   1.000  H
  H128     1.0000 0.66400  0.03650  0.31220  Biso   1.000  H
  N13      1.0000 0.02940  0.42718  0.91189  Biso   1.000  N
  N14      1.0000 0.47060  0.92718  0.58811  Biso   1.000  N
  N15      1.0000 0.97060  0.57282  0.08811  Biso   1.000  N
  N16      1.0000 0.52940  0.07282  0.41189  Biso   1.000  N
  C117     1.0000 0.96420  0.37742  0.93580  Biso   1.000  C
  C118     1.0000 0.53580  0.87742  0.56420  Biso   1.000  C
  C119     1.0000 0.03580  0.62258  0.06420  Biso   1.000  C
  C120     1.0000 0.46420  0.12258  0.43580  Biso   1.000  C
  H129     1.0000 0.90300  0.37640  0.99370  Biso   1.000  H
  H130     1.0000 0.59700  0.87640  0.50630  Biso   1.000  H
  H131     1.0000 0.09700  0.62360  0.00630  Biso   1.000  H
  H132     1.0000 0.40300  0.12360  0.49370  Biso   1.000  H
  C121     1.0000 0.98040  0.32613  0.88073  Biso   1.000  C
  C122     1.0000 0.51960  0.82613  0.61927  Biso   1.000  C
  C123     1.0000 0.01960  0.67387  0.11927  Biso   1.000  C
  C124     1.0000 0.48040  0.17387  0.38073  Biso   1.000  C
  H133     1.0000 0.93100  0.29120  0.90110  Biso   1.000  H
  H134     1.0000 0.56900  0.79120  0.59890  Biso   1.000  H
  H135     1.0000 0.06900  0.70880  0.09890  Biso   1.000  H
  H136     1.0000 0.43100  0.20880  0.40110  Biso   1.000  H
