data_image0
_cell_length_a       5.602
_cell_length_b       8.314
_cell_length_c       21.283
_cell_angle_alpha    83.02
_cell_angle_beta     85.87
_cell_angle_gamma    81.85

_symmetry_space_group_name_H-M    "P 1"
_symmetry_int_tables_number       1

loop_
  _symmetry_equiv_pos_as_xyz
  'x, y, z'

loop_
  _atom_site_label
  _atom_site_occupancy
  _atom_site_fract_x
  _atom_site_fract_y
  _atom_site_fract_z
  _atom_site_thermal_displace_type
  _atom_site_B_iso_or_equiv
  _atom_site_type_symbol
  Cu1      1.0000 0.50000  0.50000  0.00000  Biso   1.000  Cu
  Cu2      1.0000 0.04680  0.35146  0.04689  Biso   1.000  Cu
  Cu3      1.0000 0.95320  0.64854  0.95311  Biso   1.000  Cu
  S1       1.0000 0.48740  0.17790  0.91629  Biso   1.000  S
  S2       1.0000 0.51260  0.82210  0.08371  Biso   1.000  S
  O1       1.0000 0.41600  0.02140  0.91950  Biso   1.000  O
  O2       1.0000 0.58400  0.97860  0.08050  Biso   1.000  O
  O3       1.0000 0.98100  0.12900  0.05400  Biso   1.000  O
  O4       1.0000 0.01900  0.87100  0.94600  Biso   1.000  O
  O5       1.0000 0.84470  0.43490  0.97650  Biso   1.000  O
  O6       1.0000 0.15530  0.56510  0.02350  Biso   1.000  O
  O7       1.0000 0.22100  0.30110  0.12110  Biso   1.000  O
  O8       1.0000 0.77900  0.69890  0.87890  Biso   1.000  O
  O9       1.0000 0.56800  0.37770  0.08190  Biso   1.000  O
  O10      1.0000 0.43200  0.62230  0.91810  Biso   1.000  O
  O11      1.0000 0.74400  0.17040  0.91750  Biso   1.000  O
  O12      1.0000 0.25600  0.82960  0.08250  Biso   1.000  O
  C1       1.0000 0.21800  0.31600  0.82760  Biso   1.000  C
  C2       1.0000 0.78200  0.68400  0.17240  Biso   1.000  C
  O13      1.0000 0.45000  0.26300  0.84720  Biso   1.000  O
  O14      1.0000 0.55000  0.73700  0.15280  Biso   1.000  O
  O15      1.0000 0.36300  0.28150  0.95960  Biso   1.000  O
  O16      1.0000 0.63700  0.71850  0.04040  Biso   1.000  O
  C3       1.0000 0.44800  0.31170  0.12500  Biso   1.000  C
  C4       1.0000 0.55200  0.68830  0.87500  Biso   1.000  C
  C5       1.0000 0.55500  0.24140  0.18470  Biso   1.000  C
  C6       1.0000 0.44500  0.75860  0.81530  Biso   1.000  C
  C7       1.0000 0.21000  0.37100  0.76010  Biso   1.000  C
  C8       1.0000 0.79000  0.62900  0.23990  Biso   1.000  C
  C9       1.0000 0.98000  0.45100  0.73540  Biso   1.000  C
  C10      1.0000 0.02000  0.54900  0.26460  Biso   1.000  C
  C11      1.0000 0.96900  0.51100  0.66760  Biso   1.000  C
  C12      1.0000 0.03100  0.48900  0.33240  Biso   1.000  C
  C13      1.0000 0.74800  0.58100  0.63850  Biso   1.000  C
  C14      1.0000 0.25200  0.41900  0.36150  Biso   1.000  C
  C15      1.0000 0.75300  0.64300  0.56980  Biso   1.000  C
  C16      1.0000 0.24700  0.35700  0.43020  Biso   1.000  C
  C17      1.0000 0.51700  0.70800  0.54340  Biso   1.000  C
  C18      1.0000 0.48300  0.29200  0.45660  Biso   1.000  C
  C19      1.0000 0.51800  0.76900  0.47600  Biso   1.000  C
  C20      1.0000 0.48200  0.23100  0.52400  Biso   1.000  C
  C21      1.0000 0.28900  0.84000  0.44720  Biso   1.000  C
  C22      1.0000 0.71100  0.16000  0.55280  Biso   1.000  C
  C23      1.0000 0.28200  0.90000  0.37960  Biso   1.000  C
  C24      1.0000 0.71800  0.10000  0.62040  Biso   1.000  C
  C25      1.0000 0.05400  0.96500  0.35510  Biso   1.000  C
  C26      1.0000 0.94600  0.03500  0.64490  Biso   1.000  C
  C27      1.0000 0.04800  0.02200  0.28710  Biso   1.000  C
  C28      1.0000 0.95200  0.97800  0.71290  Biso   1.000  C
  H1       1.0000 0.48745  0.30538  0.21799  Biso   1.000  H
  H2       1.0000 0.51255  0.69462  0.78201  Biso   1.000  H
  H3       1.0000 0.51983  0.13114  0.19493  Biso   1.000  H
  H4       1.0000 0.48017  0.86886  0.80507  Biso   1.000  H
  H5       1.0000 0.72626  0.24166  0.18041  Biso   1.000  H
  H6       1.0000 0.27374  0.75834  0.81959  Biso   1.000  H
  H7       1.0000 0.14355  0.40280  0.85131  Biso   1.000  H
  H8       1.0000 0.85645  0.59720  0.14869  Biso   1.000  H
  H9       1.0000 0.11981  0.22959  0.83819  Biso   1.000  H
  H10      1.0000 0.88019  0.77041  0.16181  Biso   1.000  H
  H11      1.0000 0.27192  0.28137  0.73633  Biso   1.000  H
  H12      1.0000 0.72808  0.71863  0.26367  Biso   1.000  H
  H13      1.0000 0.33384  0.43935  0.74768  Biso   1.000  H
  H14      1.0000 0.66616  0.56065  0.25232  Biso   1.000  H
  H15      1.0000 0.91555  0.53826  0.76016  Biso   1.000  H
  H16      1.0000 0.08445  0.46174  0.23984  Biso   1.000  H
  H17      1.0000 0.85711  0.38264  0.74743  Biso   1.000  H
  H18      1.0000 0.14289  0.61736  0.25257  Biso   1.000  H
  H19      1.0000 0.09009  0.58245  0.65573  Biso   1.000  H
  H20      1.0000 0.90991  0.41755  0.34427  Biso   1.000  H
  H21      1.0000 0.05490  0.43007  0.64287  Biso   1.000  H
  H22      1.0000 0.94510  0.56993  0.35713  Biso   1.000  H
  H23      1.0000 0.66448  0.66441  0.66248  Biso   1.000  H
  H24      1.0000 0.33552  0.33559  0.33752  Biso   1.000  H
  H25      1.0000 0.63130  0.50553  0.64733  Biso   1.000  H
  H26      1.0000 0.36870  0.49447  0.35267  Biso   1.000  H
  H27      1.0000 0.86076  0.72404  0.56149  Biso   1.000  H
  H28      1.0000 0.13924  0.27596  0.43851  Biso   1.000  H
  H29      1.0000 0.83293  0.55808  0.54567  Biso   1.000  H
  H30      1.0000 0.16707  0.44192  0.45433  Biso   1.000  H
  H31      1.0000 0.43716  0.79189  0.56781  Biso   1.000  H
  H32      1.0000 0.56284  0.20811  0.43219  Biso   1.000  H
  H33      1.0000 0.40914  0.62748  0.55240  Biso   1.000  H
  H34      1.0000 0.59086  0.37252  0.44760  Biso   1.000  H
  H35      1.0000 0.60030  0.68583  0.45170  Biso   1.000  H
  H36      1.0000 0.39970  0.31417  0.54830  Biso   1.000  H
  H37      1.0000 0.63387  0.84453  0.46654  Biso   1.000  H
  H38      1.0000 0.36613  0.15547  0.53346  Biso   1.000  H
  H39      1.0000 0.17090  0.76597  0.45804  Biso   1.000  H
  H40      1.0000 0.82910  0.23403  0.54196  Biso   1.000  H
  H41      1.0000 0.20564  0.92204  0.47175  Biso   1.000  H
  H42      1.0000 0.79436  0.07796  0.52825  Biso   1.000  H
  H43      1.0000 0.39271  0.97850  0.36923  Biso   1.000  H
  H44      1.0000 0.60729  0.02150  0.63077  Biso   1.000  H
  H45      1.0000 0.35899  0.81578  0.35491  Biso   1.000  H
  H46      1.0000 0.64101  0.18422  0.64509  Biso   1.000  H
  H47      1.0000 0.97822  0.05083  0.37912  Biso   1.000  H
  H48      1.0000 0.02178  0.94917  0.62088  Biso   1.000  H
  H49      1.0000 0.94223  0.88679  0.36587  Biso   1.000  H
  H50      1.0000 0.05777  0.11321  0.63413  Biso   1.000  H
  H51      1.0000 0.17851  0.96170  0.26451  Biso   1.000  H
  H52      1.0000 0.82149  0.03830  0.73549  Biso   1.000  H
  H53      1.0000 0.89722  0.00640  0.27179  Biso   1.000  H
  H54      1.0000 0.10278  0.99360  0.72821  Biso   1.000  H
  H55      1.0000 0.06557  0.13653  0.28053  Biso   1.000  H
  H56      1.0000 0.93443  0.86347  0.71947  Biso   1.000  H
  H57      1.0000 0.92233  0.09562  0.02466  Biso   1.000  H
  H58      1.0000 0.07767  0.90438  0.97534  Biso   1.000  H
  H59      1.0000 0.01101  0.06757  0.08644  Biso   1.000  H
  H60      1.0000 0.98899  0.93243  0.91356  Biso   1.000  H
  H61      1.0000 0.85508  0.36616  0.95156  Biso   1.000  H
  H62      1.0000 0.14492  0.63384  0.04844  Biso   1.000  H
