data_image0
_cell_length_a       13.711
_cell_length_b       19.1598
_cell_length_c       8.9327
_cell_angle_alpha    90
_cell_angle_beta     90
_cell_angle_gamma    90

_symmetry_space_group_name_H-M    "P 1"
_symmetry_int_tables_number       1

loop_
  _symmetry_equiv_pos_as_xyz
  'x, y, z'

loop_
  _atom_site_label
  _atom_site_occupancy
  _atom_site_fract_x
  _atom_site_fract_y
  _atom_site_fract_z
  _atom_site_thermal_displace_type
  _atom_site_B_iso_or_equiv
  _atom_site_type_symbol
  C1       1.0000 0.16240  0.90465  0.84460  Biso   1.000  C
  C2       1.0000 0.83760  0.09535  0.84460  Biso   1.000  C
  C3       1.0000 0.33760  0.40465  0.84460  Biso   1.000  C
  C4       1.0000 0.66240  0.59535  0.84460  Biso   1.000  C
  H1       1.0000 0.12985  0.89543  0.93379  Biso   1.000  H
  H2       1.0000 0.87015  0.10457  0.93379  Biso   1.000  H
  H3       1.0000 0.37015  0.39543  0.93379  Biso   1.000  H
  H4       1.0000 0.62985  0.60457  0.93379  Biso   1.000  H
  C5       1.0000 0.19500  0.94757  0.63470  Biso   1.000  C
  C6       1.0000 0.80500  0.05243  0.63470  Biso   1.000  C
  C7       1.0000 0.30500  0.44757  0.63470  Biso   1.000  C
  C8       1.0000 0.69500  0.55243  0.63470  Biso   1.000  C
  H5       1.0000 0.19280  0.97316  0.54629  Biso   1.000  H
  H6       1.0000 0.80720  0.02684  0.54629  Biso   1.000  H
  H7       1.0000 0.30720  0.47316  0.54629  Biso   1.000  H
  H8       1.0000 0.69280  0.52684  0.54629  Biso   1.000  H
  C9       1.0000 0.35110  0.88320  0.58860  Biso   1.000  C
  C10      1.0000 0.64890  0.11680  0.58860  Biso   1.000  C
  C11      1.0000 0.14890  0.38320  0.58860  Biso   1.000  C
  C12      1.0000 0.85110  0.61680  0.58860  Biso   1.000  C
  H9       1.0000 0.35655  0.91220  0.49998  Biso   1.000  H
  H10      1.0000 0.64345  0.08780  0.49998  Biso   1.000  H
  H11      1.0000 0.14345  0.41220  0.49998  Biso   1.000  H
  H12      1.0000 0.85655  0.58780  0.49998  Biso   1.000  H
  H13      1.0000 0.34307  0.83525  0.55616  Biso   1.000  H
  H14      1.0000 0.65693  0.16475  0.55616  Biso   1.000  H
  H15      1.0000 0.15693  0.33525  0.55616  Biso   1.000  H
  H16      1.0000 0.84307  0.66475  0.55616  Biso   1.000  H
  C13      1.0000 0.44390  0.88930  0.67920  Biso   1.000  C
  C14      1.0000 0.55610  0.11070  0.67920  Biso   1.000  C
  C15      1.0000 0.05610  0.38930  0.67920  Biso   1.000  C
  C16      1.0000 0.94390  0.61070  0.67920  Biso   1.000  C
  H17      1.0000 0.44290  0.85545  0.76002  Biso   1.000  H
  H18      1.0000 0.55710  0.14455  0.76002  Biso   1.000  H
  H19      1.0000 0.05710  0.35545  0.76002  Biso   1.000  H
  H20      1.0000 0.94290  0.64455  0.76002  Biso   1.000  H
  H21      1.0000 0.44804  0.93552  0.72299  Biso   1.000  H
  H22      1.0000 0.55196  0.06448  0.72299  Biso   1.000  H
  H23      1.0000 0.05196  0.43552  0.72299  Biso   1.000  H
  H24      1.0000 0.94804  0.56448  0.72299  Biso   1.000  H
  C17      1.0000 0.53260  0.87640  0.57970  Biso   1.000  C
  C18      1.0000 0.46740  0.12360  0.57970  Biso   1.000  C
  C19      1.0000 0.96740  0.37640  0.57970  Biso   1.000  C
  C20      1.0000 0.03260  0.62360  0.57970  Biso   1.000  C
  H25      1.0000 0.53804  0.91390  0.50734  Biso   1.000  H
  H26      1.0000 0.46196  0.08610  0.50734  Biso   1.000  H
  H27      1.0000 0.96196  0.41390  0.50734  Biso   1.000  H
  H28      1.0000 0.03804  0.58610  0.50734  Biso   1.000  H
  H29      1.0000 0.52345  0.83312  0.52495  Biso   1.000  H
  H30      1.0000 0.47655  0.16688  0.52495  Biso   1.000  H
  H31      1.0000 0.97655  0.33312  0.52495  Biso   1.000  H
  H32      1.0000 0.02345  0.66688  0.52495  Biso   1.000  H
  C21      1.0000 0.62740  0.87190  0.67060  Biso   1.000  C
  C22      1.0000 0.37260  0.12810  0.67060  Biso   1.000  C
  C23      1.0000 0.87260  0.37190  0.67060  Biso   1.000  C
  C24      1.0000 0.12740  0.62810  0.67060  Biso   1.000  C
  H33      1.0000 0.68158  0.88496  0.60660  Biso   1.000  H
  H34      1.0000 0.31842  0.11504  0.60660  Biso   1.000  H
  H35      1.0000 0.81842  0.38496  0.60660  Biso   1.000  H
  H36      1.0000 0.18158  0.61504  0.60660  Biso   1.000  H
  H37      1.0000 0.62433  0.90535  0.75192  Biso   1.000  H
  H38      1.0000 0.37567  0.09465  0.75192  Biso   1.000  H
  H39      1.0000 0.87567  0.40535  0.75192  Biso   1.000  H
  H40      1.0000 0.12433  0.59465  0.75192  Biso   1.000  H
  C25      1.0000 0.64690  0.80038  0.73480  Biso   1.000  C
  C26      1.0000 0.35310  0.19962  0.73480  Biso   1.000  C
  C27      1.0000 0.85310  0.30038  0.73480  Biso   1.000  C
  C28      1.0000 0.14690  0.69962  0.73480  Biso   1.000  C
  H41      1.0000 0.66247  0.76875  0.65345  Biso   1.000  H
  H42      1.0000 0.33753  0.23125  0.65345  Biso   1.000  H
  H43      1.0000 0.83753  0.26875  0.65345  Biso   1.000  H
  H44      1.0000 0.16247  0.73125  0.65345  Biso   1.000  H
  H45      1.0000 0.58777  0.78348  0.78225  Biso   1.000  H
  H46      1.0000 0.41223  0.21652  0.78225  Biso   1.000  H
  H47      1.0000 0.91223  0.28348  0.78225  Biso   1.000  H
  H48      1.0000 0.08777  0.71652  0.78225  Biso   1.000  H
  C29      1.0000 0.72920  0.79852  0.84820  Biso   1.000  C
  C30      1.0000 0.27080  0.20148  0.84820  Biso   1.000  C
  C31      1.0000 0.77080  0.29852  0.84820  Biso   1.000  C
  C32      1.0000 0.22920  0.70148  0.84820  Biso   1.000  C
  H49      1.0000 0.70869  0.82249  0.93855  Biso   1.000  H
  H50      1.0000 0.29131  0.17751  0.93855  Biso   1.000  H
  H51      1.0000 0.79131  0.32249  0.93855  Biso   1.000  H
  H52      1.0000 0.20869  0.67751  0.93855  Biso   1.000  H
  H53      1.0000 0.74311  0.75040  0.87426  Biso   1.000  H
  H54      1.0000 0.25689  0.24960  0.87426  Biso   1.000  H
  H55      1.0000 0.75689  0.25040  0.87426  Biso   1.000  H
  H56      1.0000 0.24311  0.74960  0.87426  Biso   1.000  H
  C33      1.0000 0.94130  0.84857  0.65970  Biso   1.000  C
  C34      1.0000 0.05870  0.15143  0.65970  Biso   1.000  C
  C35      1.0000 0.55870  0.34857  0.65970  Biso   1.000  C
  C36      1.0000 0.44130  0.65143  0.65970  Biso   1.000  C
  H57      1.0000 0.99183  0.84240  0.59162  Biso   1.000  H
  H58      1.0000 0.00817  0.15760  0.59162  Biso   1.000  H
  H59      1.0000 0.50817  0.34240  0.59162  Biso   1.000  H
  H60      1.0000 0.49183  0.65760  0.59162  Biso   1.000  H
  C37      1.0000 0.84970  0.89557  0.81730  Biso   1.000  C
  C38      1.0000 0.15030  0.10443  0.81730  Biso   1.000  C
  C39      1.0000 0.65030  0.39557  0.81730  Biso   1.000  C
  C40      1.0000 0.34970  0.60443  0.81730  Biso   1.000  C
  H61      1.0000 0.82019  0.92712  0.88216  Biso   1.000  H
  H62      1.0000 0.17981  0.07288  0.88216  Biso   1.000  H
  H63      1.0000 0.67981  0.42712  0.88216  Biso   1.000  H
  H64      1.0000 0.32019  0.57288  0.88216  Biso   1.000  H
  Cu1      1.0000 0.00000  0.00000  0.73657  Biso   1.000  Cu
  Cu2      1.0000 0.50000  0.50000  0.73657  Biso   1.000  Cu
  N1       1.0000 0.12802  0.94891  0.74040  Biso   1.000  N
  N2       1.0000 0.87198  0.05109  0.74040  Biso   1.000  N
  N3       1.0000 0.37198  0.44891  0.74040  Biso   1.000  N
  N4       1.0000 0.62802  0.55109  0.74040  Biso   1.000  N
  N5       1.0000 0.24540  0.87580  0.80940  Biso   1.000  N
  N6       1.0000 0.75460  0.12420  0.80940  Biso   1.000  N
  N7       1.0000 0.25460  0.37580  0.80940  Biso   1.000  N
  N8       1.0000 0.74540  0.62420  0.80940  Biso   1.000  N
  N9       1.0000 0.26582  0.90431  0.67330  Biso   1.000  N
  N10      1.0000 0.73418  0.09569  0.67330  Biso   1.000  N
  N11      1.0000 0.23418  0.40431  0.67330  Biso   1.000  N
  N12      1.0000 0.76582  0.59569  0.67330  Biso   1.000  N
  N13      1.0000 0.81759  0.83127  0.79080  Biso   1.000  N
  N14      1.0000 0.18241  0.16873  0.79080  Biso   1.000  N
  N15      1.0000 0.68241  0.33127  0.79080  Biso   1.000  N
  N16      1.0000 0.31759  0.66873  0.79080  Biso   1.000  N
  N17      1.0000 0.87570  0.80055  0.68800  Biso   1.000  N
  N18      1.0000 0.12430  0.19945  0.68800  Biso   1.000  N
  N19      1.0000 0.62430  0.30055  0.68800  Biso   1.000  N
  N20      1.0000 0.37570  0.69945  0.68800  Biso   1.000  N
  N21      1.0000 0.92825  0.90826  0.73950  Biso   1.000  N
  N22      1.0000 0.07175  0.09174  0.73950  Biso   1.000  N
  N23      1.0000 0.57175  0.40826  0.73950  Biso   1.000  N
  N24      1.0000 0.42825  0.59174  0.73950  Biso   1.000  N
  O1       1.0000 0.00000  0.00000  0.01200  Biso   1.000  O
  O2       1.0000 0.50000  0.50000  0.01200  Biso   1.000  O
  H65      1.0000 0.97640  0.97120  0.07432  Biso   1.000  H
  H66      1.0000 0.02360  0.02880  0.07432  Biso   1.000  H
  H67      1.0000 0.52360  0.47120  0.07432  Biso   1.000  H
  H68      1.0000 0.47640  0.52880  0.07432  Biso   1.000  H
  O3       1.0000 0.00000  0.00000  0.47740  Biso   1.000  O
  O4       1.0000 0.50000  0.50000  0.47740  Biso   1.000  O
  H69      1.0000 0.97370  0.96850  0.42497  Biso   1.000  H
  H70      1.0000 0.02630  0.03150  0.42497  Biso   1.000  H
  H71      1.0000 0.52630  0.46850  0.42497  Biso   1.000  H
  H72      1.0000 0.47370  0.53150  0.42497  Biso   1.000  H
  C41      1.0000 0.82150  0.68972  0.20550  Biso   1.000  C
  C42      1.0000 0.17850  0.31028  0.20550  Biso   1.000  C
  C43      1.0000 0.67850  0.18972  0.20550  Biso   1.000  C
  C44      1.0000 0.32150  0.81028  0.20550  Biso   1.000  C
  C45      1.0000 0.72370  0.67469  0.24230  Biso   1.000  C
  C46      1.0000 0.27630  0.32531  0.24230  Biso   1.000  C
  C47      1.0000 0.77630  0.17469  0.24230  Biso   1.000  C
  C48      1.0000 0.22370  0.82531  0.24230  Biso   1.000  C
  C49      1.0000 0.66310  0.73038  0.28210  Biso   1.000  C
  C50      1.0000 0.33690  0.26962  0.28210  Biso   1.000  C
  C51      1.0000 0.83690  0.23038  0.28210  Biso   1.000  C
  C52      1.0000 0.16310  0.76962  0.28210  Biso   1.000  C
  H73      1.0000 0.59794  0.72176  0.30408  Biso   1.000  H
  H74      1.0000 0.40206  0.27824  0.30408  Biso   1.000  H
  H75      1.0000 0.90206  0.22176  0.30408  Biso   1.000  H
  H76      1.0000 0.09794  0.77824  0.30408  Biso   1.000  H
  C53      1.0000 0.69750  0.79707  0.28930  Biso   1.000  C
  C54      1.0000 0.30250  0.20293  0.28930  Biso   1.000  C
  C55      1.0000 0.80250  0.29707  0.28930  Biso   1.000  C
  C56      1.0000 0.19750  0.70293  0.28930  Biso   1.000  C
  H77      1.0000 0.65607  0.83310  0.31790  Biso   1.000  H
  H78      1.0000 0.34393  0.16690  0.31790  Biso   1.000  H
  H79      1.0000 0.84393  0.33310  0.31790  Biso   1.000  H
  H80      1.0000 0.15607  0.66690  0.31790  Biso   1.000  H
  C57      1.0000 0.79500  0.81165  0.25390  Biso   1.000  C
  C58      1.0000 0.20500  0.18835  0.25390  Biso   1.000  C
  C59      1.0000 0.70500  0.31165  0.25390  Biso   1.000  C
  C60      1.0000 0.29500  0.68835  0.25390  Biso   1.000  C
  C61      1.0000 0.85510  0.75859  0.21100  Biso   1.000  C
  C62      1.0000 0.14490  0.24141  0.21100  Biso   1.000  C
  C63      1.0000 0.64490  0.25859  0.21100  Biso   1.000  C
  C64      1.0000 0.35510  0.74141  0.21100  Biso   1.000  C
  H81      1.0000 0.91932  0.76835  0.18490  Biso   1.000  H
  H82      1.0000 0.08068  0.23165  0.18490  Biso   1.000  H
  H83      1.0000 0.58068  0.26835  0.18490  Biso   1.000  H
  H84      1.0000 0.41932  0.73165  0.18490  Biso   1.000  H
  C65      1.0000 0.89040  0.63429  0.16290  Biso   1.000  C
  C66      1.0000 0.10960  0.36571  0.16290  Biso   1.000  C
  C67      1.0000 0.60960  0.13429  0.16290  Biso   1.000  C
  C68      1.0000 0.39040  0.86571  0.16290  Biso   1.000  C
  N25      1.0000 0.68520  0.60838  0.24100  Biso   1.000  N
  N26      1.0000 0.31480  0.39162  0.24100  Biso   1.000  N
  N27      1.0000 0.81480  0.10838  0.24100  Biso   1.000  N
  N28      1.0000 0.18520  0.89162  0.24100  Biso   1.000  N
  H85      1.0000 0.62511  0.60187  0.26490  Biso   1.000  H
  H86      1.0000 0.37489  0.39813  0.26490  Biso   1.000  H
  H87      1.0000 0.87489  0.10187  0.26490  Biso   1.000  H
  H88      1.0000 0.12511  0.89813  0.26490  Biso   1.000  H
  H89      1.0000 0.72121  0.57347  0.21670  Biso   1.000  H
  H90      1.0000 0.27879  0.42653  0.21670  Biso   1.000  H
  H91      1.0000 0.77879  0.07347  0.21670  Biso   1.000  H
  H92      1.0000 0.22121  0.92653  0.21670  Biso   1.000  H
  O5       1.0000 0.87130  0.57288  0.17210  Biso   1.000  O
  O6       1.0000 0.12870  0.42712  0.17210  Biso   1.000  O
  O7       1.0000 0.62870  0.07288  0.17210  Biso   1.000  O
  O8       1.0000 0.37130  0.92712  0.17210  Biso   1.000  O
  O9       1.0000 0.97580  0.65620  0.11840  Biso   1.000  O
  O10      1.0000 0.02420  0.34380  0.11840  Biso   1.000  O
  O11      1.0000 0.52420  0.15620  0.11840  Biso   1.000  O
  O12      1.0000 0.47580  0.84380  0.11840  Biso   1.000  O
  H93      1.0000 0.01064  0.62250  0.09991  Biso   1.000  H
  H94      1.0000 0.98936  0.37750  0.09991  Biso   1.000  H
  H95      1.0000 0.48936  0.12250  0.09991  Biso   1.000  H
  H96      1.0000 0.51064  0.87750  0.09991  Biso   1.000  H
  O13      1.0000 0.80470  0.92748  0.40130  Biso   1.000  O
  O14      1.0000 0.19530  0.07252  0.40130  Biso   1.000  O
  O15      1.0000 0.69530  0.42748  0.40130  Biso   1.000  O
  O16      1.0000 0.30470  0.57252  0.40130  Biso   1.000  O
  O17      1.0000 0.94143  0.89604  0.24590  Biso   1.000  O
  O18      1.0000 0.05857  0.10396  0.24590  Biso   1.000  O
  O19      1.0000 0.55857  0.39604  0.24590  Biso   1.000  O
  O20      1.0000 0.44143  0.60396  0.24590  Biso   1.000  O
  O21      1.0000 0.79170  0.93515  0.13660  Biso   1.000  O
  O22      1.0000 0.20830  0.06485  0.13660  Biso   1.000  O
  O23      1.0000 0.70830  0.43515  0.13660  Biso   1.000  O
  O24      1.0000 0.29170  0.56485  0.13660  Biso   1.000  O
  S1       1.0000 0.83731  0.89868  0.26184  Biso   1.000  S
  S2       1.0000 0.16269  0.10132  0.26184  Biso   1.000  S
  S3       1.0000 0.66269  0.39868  0.26184  Biso   1.000  S
  S4       1.0000 0.33731  0.60132  0.26184  Biso   1.000  S
  O25      1.0000 0.09960  0.55755  0.05460  Biso   1.000  O
  O26      1.0000 0.90040  0.44245  0.05460  Biso   1.000  O
  O27      1.0000 0.40040  0.05755  0.05460  Biso   1.000  O
  O28      1.0000 0.59960  0.94245  0.05460  Biso   1.000  O
  H97      1.0000 0.08880  0.51421  0.04902  Biso   1.000  H
  H98      1.0000 0.91120  0.48579  0.04902  Biso   1.000  H
  H99      1.0000 0.41120  0.01421  0.04902  Biso   1.000  H
  H100     1.0000 0.58880  0.98579  0.04902  Biso   1.000  H
  H101     1.0000 0.15810  0.56511  0.08071  Biso   1.000  H
  H102     1.0000 0.84190  0.43489  0.08071  Biso   1.000  H
  H103     1.0000 0.34190  0.06511  0.08071  Biso   1.000  H
  H104     1.0000 0.65810  0.93489  0.08071  Biso   1.000  H
