data_image0
_cell_length_a       3.6846
_cell_length_b       8.755
_cell_length_c       12.244
_cell_angle_alpha    73.02
_cell_angle_beta     85.062
_cell_angle_gamma    83.034

_symmetry_space_group_name_H-M    "P 1"
_symmetry_int_tables_number       1

loop_
  _symmetry_equiv_pos_as_xyz
  'x, y, z'

loop_
  _atom_site_label
  _atom_site_occupancy
  _atom_site_fract_x
  _atom_site_fract_y
  _atom_site_fract_z
  _atom_site_thermal_displace_type
  _atom_site_B_iso_or_equiv
  _atom_site_type_symbol
  Cu1      1.0000 0.50000  0.50000  0.50000  Biso   1.000  Cu
  N1       1.0000 0.90590  0.32860  0.56534  Biso   1.000  N
  N2       1.0000 0.09410  0.67140  0.43466  Biso   1.000  N
  N3       1.0000 0.85590  0.22500  0.65243  Biso   1.000  N
  N4       1.0000 0.14410  0.77500  0.34757  Biso   1.000  N
  N5       1.0000 0.82060  0.12550  0.73790  Biso   1.000  N
  N6       1.0000 0.17940  0.87450  0.26210  Biso   1.000  N
  N7       1.0000 0.43870  0.56890  0.64352  Biso   1.000  N
  N8       1.0000 0.56130  0.43110  0.35648  Biso   1.000  N
  O1       1.0000 0.27050  0.70580  0.94125  Biso   1.000  O
  O2       1.0000 0.72950  0.29420  0.05875  Biso   1.000  O
  C1       1.0000 0.30840  0.47260  0.74286  Biso   1.000  C
  C2       1.0000 0.69160  0.52740  0.25714  Biso   1.000  C
  H1       1.0000 0.25308  0.36874  0.74440  Biso   1.000  H
  H2       1.0000 0.74692  0.63126  0.25560  Biso   1.000  H
  C3       1.0000 0.25230  0.51770  0.84176  Biso   1.000  C
  C4       1.0000 0.74770  0.48230  0.15824  Biso   1.000  C
  H3       1.0000 0.15998  0.44626  0.90999  Biso   1.000  H
  H4       1.0000 0.84002  0.55374  0.09001  Biso   1.000  H
  C5       1.0000 0.33210  0.66900  0.84099  Biso   1.000  C
  C6       1.0000 0.66790  0.33100  0.15901  Biso   1.000  C
  C7       1.0000 0.46820  0.77060  0.73955  Biso   1.000  C
  C8       1.0000 0.53180  0.22940  0.26045  Biso   1.000  C
  H5       1.0000 0.52787  0.87449  0.73605  Biso   1.000  H
  H6       1.0000 0.47213  0.12551  0.26395  Biso   1.000  H
  C9       1.0000 0.51320  0.71470  0.64410  Biso   1.000  C
  C10      1.0000 0.48680  0.28530  0.35590  Biso   1.000  C
  H7       1.0000 0.60276  0.78410  0.57444  Biso   1.000  H
  H8       1.0000 0.39724  0.21590  0.42556  Biso   1.000  H
  C11      1.0000 0.37530  0.85610  0.94740  Biso   1.000  C
  C12      1.0000 0.62470  0.14390  0.05260  Biso   1.000  C
  H9       1.0000 0.63716  0.86144  0.92638  Biso   1.000  H
  H10      1.0000 0.36284  0.13856  0.07362  Biso   1.000  H
  H11      1.0000 0.32597  0.86428  0.02556  Biso   1.000  H
  H12      1.0000 0.67403  0.13572  0.97444  Biso   1.000  H
  H13      1.0000 0.23418  0.94493  0.89453  Biso   1.000  H
  H14      1.0000 0.76582  0.05507  0.10547  Biso   1.000  H
