data_image0
_cell_length_a       17.1704
_cell_length_b       7.4375
_cell_length_c       17.3753
_cell_angle_alpha    90
_cell_angle_beta     90.302
_cell_angle_gamma    90

_symmetry_space_group_name_H-M    "P 1"
_symmetry_int_tables_number       1

loop_
  _symmetry_equiv_pos_as_xyz
  'x, y, z'

loop_
  _atom_site_label
  _atom_site_occupancy
  _atom_site_fract_x
  _atom_site_fract_y
  _atom_site_fract_z
  _atom_site_thermal_displace_type
  _atom_site_B_iso_or_equiv
  _atom_site_type_symbol
  Cu1      1.0000 0.77067  0.57736  0.66948  Biso   1.000  Cu
  Cu2      1.0000 0.22933  0.07736  0.83052  Biso   1.000  Cu
  Cu3      1.0000 0.22933  0.42264  0.33052  Biso   1.000  Cu
  Cu4      1.0000 0.77067  0.92264  0.16948  Biso   1.000  Cu
  Cu5      1.0000 0.58879  0.55078  0.61705  Biso   1.000  Cu
  Cu6      1.0000 0.41121  0.05078  0.88295  Biso   1.000  Cu
  Cu7      1.0000 0.41121  0.44922  0.38295  Biso   1.000  Cu
  Cu8      1.0000 0.58879  0.94922  0.11705  Biso   1.000  Cu
  O1       1.0000 0.00130  0.54440  0.89170  Biso   1.000  O
  O2       1.0000 0.99870  0.04440  0.60830  Biso   1.000  O
  O3       1.0000 0.99870  0.45560  0.10830  Biso   1.000  O
  O4       1.0000 0.00130  0.95560  0.39170  Biso   1.000  O
  O5       1.0000 0.97150  0.25870  0.87560  Biso   1.000  O
  O6       1.0000 0.02850  0.75870  0.62440  Biso   1.000  O
  O7       1.0000 0.02850  0.74130  0.12440  Biso   1.000  O
  O8       1.0000 0.97150  0.24130  0.37560  Biso   1.000  O
  O9       1.0000 0.84970  0.71080  0.72520  Biso   1.000  O
  O10      1.0000 0.15030  0.21080  0.77480  Biso   1.000  O
  O11      1.0000 0.15030  0.28920  0.27480  Biso   1.000  O
  O12      1.0000 0.84970  0.78920  0.22520  Biso   1.000  O
  O13      1.0000 0.68980  0.43330  0.61960  Biso   1.000  O
  O14      1.0000 0.31020  0.93330  0.88040  Biso   1.000  O
  O15      1.0000 0.31020  0.56670  0.38040  Biso   1.000  O
  O16      1.0000 0.68980  0.06670  0.11960  Biso   1.000  O
  O17      1.0000 0.48000  0.60290  0.59370  Biso   1.000  O
  O18      1.0000 0.52000  0.10290  0.90630  Biso   1.000  O
  O19      1.0000 0.52000  0.39710  0.40630  Biso   1.000  O
  O20      1.0000 0.48000  0.89710  0.09370  Biso   1.000  O
  O21      1.0000 0.27860  0.36440  0.66260  Biso   1.000  O
  O22      1.0000 0.72140  0.86440  0.83740  Biso   1.000  O
  O23      1.0000 0.72140  0.63560  0.33740  Biso   1.000  O
  O24      1.0000 0.27860  0.13560  0.16260  Biso   1.000  O
  O25      1.0000 0.33890  0.19420  0.74810  Biso   1.000  O
  O26      1.0000 0.66110  0.69420  0.75190  Biso   1.000  O
  O27      1.0000 0.66110  0.80580  0.25190  Biso   1.000  O
  O28      1.0000 0.33890  0.30580  0.24810  Biso   1.000  O
  N1       1.0000 0.80350  0.35080  0.71440  Biso   1.000  N
  N2       1.0000 0.19650  0.85080  0.78560  Biso   1.000  N
  N3       1.0000 0.19650  0.64920  0.28560  Biso   1.000  N
  N4       1.0000 0.80350  0.14920  0.21440  Biso   1.000  N
  N5       1.0000 0.55800  0.36450  0.68780  Biso   1.000  N
  N6       1.0000 0.44200  0.86450  0.81220  Biso   1.000  N
  N7       1.0000 0.44200  0.63550  0.31220  Biso   1.000  N
  N8       1.0000 0.55800  0.13550  0.18780  Biso   1.000  N
  N9       1.0000 0.76360  0.76480  0.59030  Biso   1.000  N
  N10      1.0000 0.23640  0.26480  0.90970  Biso   1.000  N
  N11      1.0000 0.23640  0.23520  0.40970  Biso   1.000  N
  N12      1.0000 0.76360  0.73520  0.09030  Biso   1.000  N
  N13      1.0000 0.62540  0.75760  0.55790  Biso   1.000  N
  N14      1.0000 0.37460  0.25760  0.94210  Biso   1.000  N
  N15      1.0000 0.37460  0.24240  0.44210  Biso   1.000  N
  N16      1.0000 0.62540  0.74240  0.05790  Biso   1.000  N
  C1       1.0000 0.95840  0.41120  0.85460  Biso   1.000  C
  C2       1.0000 0.04160  0.91120  0.64540  Biso   1.000  C
  C3       1.0000 0.04160  0.58880  0.14540  Biso   1.000  C
  C4       1.0000 0.95840  0.08880  0.35460  Biso   1.000  C
  C5       1.0000 0.90270  0.46620  0.79740  Biso   1.000  C
  C6       1.0000 0.09730  0.96620  0.70260  Biso   1.000  C
  C7       1.0000 0.09730  0.53380  0.20260  Biso   1.000  C
  C8       1.0000 0.90270  0.03380  0.29740  Biso   1.000  C
  C9       1.0000 0.89590  0.64950  0.77710  Biso   1.000  C
  C10      1.0000 0.10410  0.14950  0.72290  Biso   1.000  C
  C11      1.0000 0.10410  0.35050  0.22290  Biso   1.000  C
  C12      1.0000 0.89590  0.85050  0.27710  Biso   1.000  C
  C13      1.0000 0.94400  0.77560  0.81780  Biso   1.000  C
  C14      1.0000 0.05600  0.27560  0.68220  Biso   1.000  C
  C15      1.0000 0.05600  0.22440  0.18220  Biso   1.000  C
  C16      1.0000 0.94400  0.72440  0.31780  Biso   1.000  C
  H1       1.0000 0.94100  0.89950  0.80490  Biso   1.000  H
  H2       1.0000 0.05900  0.39950  0.69510  Biso   1.000  H
  H3       1.0000 0.05900  0.10050  0.19510  Biso   1.000  H
  H4       1.0000 0.94100  0.60050  0.30490  Biso   1.000  H
  C17      1.0000 0.99280  0.72280  0.87340  Biso   1.000  C
  C18      1.0000 0.00720  0.22280  0.62660  Biso   1.000  C
  C19      1.0000 0.00720  0.27720  0.12660  Biso   1.000  C
  C20      1.0000 0.99280  0.77720  0.37340  Biso   1.000  C
  C21      1.0000 0.04130  0.83870  0.92310  Biso   1.000  C
  C22      1.0000 0.95870  0.33870  0.57690  Biso   1.000  C
  C23      1.0000 0.95870  0.16130  0.07690  Biso   1.000  C
  C24      1.0000 0.04130  0.66130  0.42310  Biso   1.000  C
  H5       1.0000 0.03370  0.96480  0.90850  Biso   1.000  H
  H6       1.0000 0.96630  0.46480  0.59150  Biso   1.000  H
  H7       1.0000 0.96630  0.03520  0.09150  Biso   1.000  H
  H8       1.0000 0.03370  0.53520  0.40850  Biso   1.000  H
  H9       1.0000 0.09630  0.80640  0.91680  Biso   1.000  H
  H10      1.0000 0.90370  0.30640  0.58320  Biso   1.000  H
  H11      1.0000 0.90370  0.19360  0.08320  Biso   1.000  H
  H12      1.0000 0.09630  0.69360  0.41680  Biso   1.000  H
  H13      1.0000 0.02630  0.82190  0.97700  Biso   1.000  H
  H14      1.0000 0.97370  0.32190  0.52300  Biso   1.000  H
  H15      1.0000 0.97370  0.17810  0.02300  Biso   1.000  H
  H16      1.0000 0.02630  0.67810  0.47700  Biso   1.000  H
  C25      1.0000 0.85900  0.32750  0.76280  Biso   1.000  C
  C26      1.0000 0.14100  0.82750  0.73720  Biso   1.000  C
  C27      1.0000 0.14100  0.67250  0.23720  Biso   1.000  C
  C28      1.0000 0.85900  0.17250  0.26280  Biso   1.000  C
  H17      1.0000 0.87170  0.20730  0.77640  Biso   1.000  H
  H18      1.0000 0.12830  0.70730  0.72360  Biso   1.000  H
  H19      1.0000 0.12830  0.79270  0.22360  Biso   1.000  H
  H20      1.0000 0.87170  0.29270  0.27640  Biso   1.000  H
  C29      1.0000 0.76320  0.19800  0.67960  Biso   1.000  C
  C30      1.0000 0.23680  0.69800  0.82040  Biso   1.000  C
  C31      1.0000 0.23680  0.80200  0.32040  Biso   1.000  C
  C32      1.0000 0.76320  0.30200  0.17960  Biso   1.000  C
  H21      1.0000 0.75870  0.09900  0.71750  Biso   1.000  H
  H22      1.0000 0.24130  0.59900  0.78250  Biso   1.000  H
  H23      1.0000 0.24130  0.90100  0.28250  Biso   1.000  H
  H24      1.0000 0.75870  0.40100  0.21750  Biso   1.000  H
  H25      1.0000 0.79270  0.15330  0.63470  Biso   1.000  H
  H26      1.0000 0.20730  0.65330  0.86530  Biso   1.000  H
  H27      1.0000 0.20730  0.84670  0.36530  Biso   1.000  H
  H28      1.0000 0.79270  0.34670  0.13470  Biso   1.000  H
  C33      1.0000 0.68310  0.26000  0.65460  Biso   1.000  C
  C34      1.0000 0.31690  0.76000  0.84540  Biso   1.000  C
  C35      1.0000 0.31690  0.74000  0.34540  Biso   1.000  C
  C36      1.0000 0.68310  0.24000  0.15460  Biso   1.000  C
  H29      1.0000 0.66240  0.17360  0.61550  Biso   1.000  H
  H30      1.0000 0.33760  0.67360  0.88450  Biso   1.000  H
  H31      1.0000 0.33760  0.82640  0.38450  Biso   1.000  H
  H32      1.0000 0.66240  0.32640  0.11550  Biso   1.000  H
  C37      1.0000 0.62750  0.27140  0.71850  Biso   1.000  C
  C38      1.0000 0.37250  0.77140  0.78150  Biso   1.000  C
  C39      1.0000 0.37250  0.72860  0.28150  Biso   1.000  C
  C40      1.0000 0.62750  0.22860  0.21850  Biso   1.000  C
  H33      1.0000 0.65030  0.33990  0.76200  Biso   1.000  H
  H34      1.0000 0.34970  0.83990  0.73800  Biso   1.000  H
  H35      1.0000 0.34970  0.66010  0.23800  Biso   1.000  H
  H36      1.0000 0.65030  0.16010  0.26200  Biso   1.000  H
  H37      1.0000 0.61360  0.14960  0.73690  Biso   1.000  H
  H38      1.0000 0.38640  0.64960  0.76310  Biso   1.000  H
  H39      1.0000 0.38640  0.85040  0.26310  Biso   1.000  H
  H40      1.0000 0.61360  0.35040  0.23690  Biso   1.000  H
  C41      1.0000 0.48880  0.30980  0.70380  Biso   1.000  C
  C42      1.0000 0.51120  0.80980  0.79620  Biso   1.000  C
  C43      1.0000 0.51120  0.69020  0.29620  Biso   1.000  C
  C44      1.0000 0.48880  0.19020  0.20380  Biso   1.000  C
  H41      1.0000 0.48410  0.21300  0.73920  Biso   1.000  H
  H42      1.0000 0.51590  0.71300  0.76080  Biso   1.000  H
  H43      1.0000 0.51590  0.78700  0.26080  Biso   1.000  H
  H44      1.0000 0.48410  0.28700  0.23920  Biso   1.000  H
  C45      1.0000 0.41870  0.38300  0.67280  Biso   1.000  C
  C46      1.0000 0.58130  0.88300  0.82720  Biso   1.000  C
  C47      1.0000 0.58130  0.61700  0.32720  Biso   1.000  C
  C48      1.0000 0.41870  0.11700  0.17280  Biso   1.000  C
  C49      1.0000 0.34720  0.30610  0.69760  Biso   1.000  C
  C50      1.0000 0.65280  0.80610  0.80240  Biso   1.000  C
  C51      1.0000 0.65280  0.69390  0.30240  Biso   1.000  C
  C52      1.0000 0.34720  0.19390  0.19760  Biso   1.000  C
  C53      1.0000 0.27970  0.48510  0.60280  Biso   1.000  C
  C54      1.0000 0.72030  0.98510  0.89720  Biso   1.000  C
  C55      1.0000 0.72030  0.51490  0.39720  Biso   1.000  C
  C56      1.0000 0.27970  0.01490  0.10280  Biso   1.000  C
  C57      1.0000 0.34630  0.56150  0.58040  Biso   1.000  C
  C58      1.0000 0.65370  0.06150  0.91960  Biso   1.000  C
  C59      1.0000 0.65370  0.43850  0.41960  Biso   1.000  C
  C60      1.0000 0.34630  0.93850  0.08040  Biso   1.000  C
  H45      1.0000 0.34510  0.64660  0.53970  Biso   1.000  H
  H46      1.0000 0.65490  0.14660  0.96030  Biso   1.000  H
  H47      1.0000 0.65490  0.35340  0.46030  Biso   1.000  H
  H48      1.0000 0.34510  0.85340  0.03970  Biso   1.000  H
  C61      1.0000 0.41980  0.51900  0.61630  Biso   1.000  C
  C62      1.0000 0.58020  0.01900  0.88370  Biso   1.000  C
  C63      1.0000 0.58020  0.48100  0.38370  Biso   1.000  C
  C64      1.0000 0.41980  0.98100  0.11630  Biso   1.000  C
  C65      1.0000 0.20220  0.51310  0.56860  Biso   1.000  C
  C66      1.0000 0.79780  0.01310  0.93140  Biso   1.000  C
  C67      1.0000 0.79780  0.48690  0.43140  Biso   1.000  C
  C68      1.0000 0.20220  0.98690  0.06860  Biso   1.000  C
  H49      1.0000 0.20600  0.59980  0.52630  Biso   1.000  H
  H50      1.0000 0.79400  0.09980  0.97370  Biso   1.000  H
  H51      1.0000 0.79400  0.40020  0.47370  Biso   1.000  H
  H52      1.0000 0.20600  0.90020  0.02630  Biso   1.000  H
  H53      1.0000 0.16670  0.55960  0.60780  Biso   1.000  H
  H54      1.0000 0.83330  0.05960  0.89220  Biso   1.000  H
  H55      1.0000 0.83330  0.44040  0.39220  Biso   1.000  H
  H56      1.0000 0.16670  0.94040  0.10780  Biso   1.000  H
  H57      1.0000 0.18220  0.39860  0.54880  Biso   1.000  H
  H58      1.0000 0.81780  0.89860  0.95120  Biso   1.000  H
  H59      1.0000 0.81780  0.60140  0.45120  Biso   1.000  H
  H60      1.0000 0.18220  0.10140  0.04880  Biso   1.000  H
  C69      1.0000 0.82970  0.84150  0.56530  Biso   1.000  C
  C70      1.0000 0.17030  0.34150  0.93470  Biso   1.000  C
  C71      1.0000 0.17030  0.15850  0.43470  Biso   1.000  C
  C72      1.0000 0.82970  0.65850  0.06530  Biso   1.000  C
  H61      1.0000 0.87740  0.81610  0.59110  Biso   1.000  H
  H62      1.0000 0.12260  0.31610  0.90890  Biso   1.000  H
  H63      1.0000 0.12260  0.18390  0.40890  Biso   1.000  H
  H64      1.0000 0.87740  0.68390  0.09110  Biso   1.000  H
  C73      1.0000 0.82960  0.95430  0.50400  Biso   1.000  C
  C74      1.0000 0.17040  0.45430  0.99600  Biso   1.000  C
  C75      1.0000 0.17040  0.04570  0.49600  Biso   1.000  C
  C76      1.0000 0.82960  0.54570  0.00400  Biso   1.000  C
  H65      1.0000 0.87790  0.00400  0.48820  Biso   1.000  H
  H66      1.0000 0.12210  0.50400  0.01180  Biso   1.000  H
  H67      1.0000 0.12210  0.99600  0.51180  Biso   1.000  H
  H68      1.0000 0.87790  0.49600  0.98820  Biso   1.000  H
  C77      1.0000 0.76720  0.99850  0.46570  Biso   1.000  C
  C78      1.0000 0.23280  0.49850  0.03430  Biso   1.000  C
  C79      1.0000 0.23280  0.00150  0.53430  Biso   1.000  C
  C80      1.0000 0.76720  0.50150  0.96570  Biso   1.000  C
  H69      1.0000 0.77180  0.07750  0.42300  Biso   1.000  H
  H70      1.0000 0.22820  0.57750  0.07700  Biso   1.000  H
  H71      1.0000 0.22820  0.92250  0.57700  Biso   1.000  H
  H72      1.0000 0.77180  0.42250  0.92300  Biso   1.000  H
  C81      1.0000 0.70150  0.94020  0.48330  Biso   1.000  C
  C82      1.0000 0.29850  0.44020  0.01670  Biso   1.000  C
  C83      1.0000 0.29850  0.05980  0.51670  Biso   1.000  C
  C84      1.0000 0.70150  0.55980  0.98330  Biso   1.000  C
  C85      1.0000 0.70040  0.81450  0.54770  Biso   1.000  C
  C86      1.0000 0.29960  0.31450  0.95230  Biso   1.000  C
  C87      1.0000 0.29960  0.18550  0.45230  Biso   1.000  C
  C88      1.0000 0.70040  0.68550  0.04770  Biso   1.000  C
  C89      1.0000 0.61700  0.95410  0.45630  Biso   1.000  C
  C90      1.0000 0.38300  0.45410  0.04370  Biso   1.000  C
  C91      1.0000 0.38300  0.04590  0.54370  Biso   1.000  C
  C92      1.0000 0.61700  0.54590  0.95630  Biso   1.000  C
  H73      1.0000 0.59600  0.02440  0.41540  Biso   1.000  H
  H74      1.0000 0.40400  0.52440  0.08460  Biso   1.000  H
  H75      1.0000 0.40400  0.97560  0.58460  Biso   1.000  H
  H76      1.0000 0.59600  0.47560  0.91540  Biso   1.000  H
  C93      1.0000 0.57890  0.84100  0.50500  Biso   1.000  C
  C94      1.0000 0.42110  0.34100  0.99500  Biso   1.000  C
  C95      1.0000 0.42110  0.15900  0.49500  Biso   1.000  C
  C96      1.0000 0.57890  0.65900  0.00500  Biso   1.000  C
  H77      1.0000 0.52430  0.82190  0.50240  Biso   1.000  H
  H78      1.0000 0.47570  0.32190  0.99760  Biso   1.000  H
  H79      1.0000 0.47570  0.17810  0.49760  Biso   1.000  H
  H80      1.0000 0.52430  0.67810  0.00240  Biso   1.000  H
