data_image0
_cell_length_a       7.9947
_cell_length_b       19.277
_cell_length_c       13.609
_cell_angle_alpha    90
_cell_angle_beta     118.298
_cell_angle_gamma    90

_symmetry_space_group_name_H-M    "P 1"
_symmetry_int_tables_number       1

loop_
  _symmetry_equiv_pos_as_xyz
  'x, y, z'

loop_
  _atom_site_label
  _atom_site_occupancy
  _atom_site_fract_x
  _atom_site_fract_y
  _atom_site_fract_z
  _atom_site_thermal_displace_type
  _atom_site_B_iso_or_equiv
  _atom_site_type_symbol
  Pd1      1.0000 0.00000  0.00000  0.00000  Biso   1.000  Pd
  Pd2      1.0000 0.00000  0.50000  0.50000  Biso   1.000  Pd
  Cu1      1.0000 0.00000  0.00000  0.50000  Biso   1.000  Cu
  Cu2      1.0000 0.00000  0.50000  0.00000  Biso   1.000  Cu
  O1       1.0000 0.86070  0.08617  0.99310  Biso   1.000  O
  O2       1.0000 0.13930  0.58617  0.50690  Biso   1.000  O
  O3       1.0000 0.13930  0.91383  0.00690  Biso   1.000  O
  O4       1.0000 0.86070  0.41383  0.49310  Biso   1.000  O
  O5       1.0000 0.77830  0.95400  0.87590  Biso   1.000  O
  O6       1.0000 0.22170  0.45400  0.62410  Biso   1.000  O
  O7       1.0000 0.22170  0.04600  0.12410  Biso   1.000  O
  O8       1.0000 0.77830  0.54600  0.37590  Biso   1.000  O
  O9       1.0000 0.12700  0.08004  0.47990  Biso   1.000  O
  O10      1.0000 0.87300  0.58004  0.02010  Biso   1.000  O
  O11      1.0000 0.87300  0.91996  0.52010  Biso   1.000  O
  O12      1.0000 0.12700  0.41996  0.97990  Biso   1.000  O
  O13      1.0000 0.93350  0.05002  0.59950  Biso   1.000  O
  O14      1.0000 0.06650  0.55002  0.90050  Biso   1.000  O
  O15      1.0000 0.06650  0.94998  0.40050  Biso   1.000  O
  O16      1.0000 0.93350  0.44998  0.09950  Biso   1.000  O
  O17      1.0000 0.28560  0.95840  0.69360  Biso   1.000  O
  O18      1.0000 0.71440  0.45840  0.80640  Biso   1.000  O
  O19      1.0000 0.71440  0.04160  0.30640  Biso   1.000  O
  O20      1.0000 0.28560  0.54160  0.19360  Biso   1.000  O
  C1       1.0000 0.68850  0.09460  0.92010  Biso   1.000  C
  C2       1.0000 0.31150  0.59460  0.57990  Biso   1.000  C
  C3       1.0000 0.31150  0.90540  0.07990  Biso   1.000  C
  C4       1.0000 0.68850  0.40540  0.42010  Biso   1.000  C
  C5       1.0000 0.56750  0.04880  0.84140  Biso   1.000  C
  C6       1.0000 0.43250  0.54880  0.65860  Biso   1.000  C
  C7       1.0000 0.43250  0.95120  0.15860  Biso   1.000  C
  C8       1.0000 0.56750  0.45120  0.34140  Biso   1.000  C
  H1       1.0000 0.44260  0.06310  0.79710  Biso   1.000  H
  H2       1.0000 0.55740  0.56310  0.70290  Biso   1.000  H
  H3       1.0000 0.55740  0.93690  0.20290  Biso   1.000  H
  H4       1.0000 0.44260  0.43690  0.29710  Biso   1.000  H
  C9       1.0000 0.61710  0.98210  0.82240  Biso   1.000  C
  C10      1.0000 0.38290  0.48210  0.67760  Biso   1.000  C
  C11      1.0000 0.38290  0.01790  0.17760  Biso   1.000  C
  C12      1.0000 0.61710  0.51790  0.32240  Biso   1.000  C
  C13      1.0000 0.61710  0.16660  0.92520  Biso   1.000  C
  C14      1.0000 0.38290  0.66660  0.57480  Biso   1.000  C
  C15      1.0000 0.38290  0.83340  0.07480  Biso   1.000  C
  C16      1.0000 0.61710  0.33340  0.42520  Biso   1.000  C
  C17      1.0000 0.47660  0.93980  0.72140  Biso   1.000  C
  C18      1.0000 0.52340  0.43980  0.77860  Biso   1.000  C
  C19      1.0000 0.52340  0.06020  0.27860  Biso   1.000  C
  C20      1.0000 0.47660  0.56020  0.22140  Biso   1.000  C
  C21      1.0000 0.51160  0.86220  0.74360  Biso   1.000  C
  C22      1.0000 0.48840  0.36220  0.75640  Biso   1.000  C
  C23      1.0000 0.48840  0.13780  0.25640  Biso   1.000  C
  C24      1.0000 0.51160  0.63780  0.24360  Biso   1.000  C
  H5       1.0000 0.50580  0.85040  0.81050  Biso   1.000  H
  H6       1.0000 0.49420  0.35040  0.68950  Biso   1.000  H
  H7       1.0000 0.49420  0.14960  0.18950  Biso   1.000  H
  H8       1.0000 0.50580  0.64960  0.31050  Biso   1.000  H
  H9       1.0000 0.63480  0.85070  0.75250  Biso   1.000  H
  H10      1.0000 0.36520  0.35070  0.74750  Biso   1.000  H
  H11      1.0000 0.36520  0.14930  0.24750  Biso   1.000  H
  H12      1.0000 0.63480  0.64930  0.25250  Biso   1.000  H
  H13      1.0000 0.41620  0.83670  0.68180  Biso   1.000  H
  H14      1.0000 0.58380  0.33670  0.81820  Biso   1.000  H
  H15      1.0000 0.58380  0.16330  0.31820  Biso   1.000  H
  H16      1.0000 0.41620  0.66330  0.18180  Biso   1.000  H
  C25      1.0000 0.50270  0.96260  0.62250  Biso   1.000  C
  C26      1.0000 0.49730  0.46260  0.87750  Biso   1.000  C
  C27      1.0000 0.49730  0.03740  0.37750  Biso   1.000  C
  C28      1.0000 0.50270  0.53740  0.12250  Biso   1.000  C
  H17      1.0000 0.41510  0.93790  0.55690  Biso   1.000  H
  H18      1.0000 0.58490  0.43790  0.94310  Biso   1.000  H
  H19      1.0000 0.58490  0.06210  0.44310  Biso   1.000  H
  H20      1.0000 0.41510  0.56210  0.05690  Biso   1.000  H
  H21      1.0000 0.63040  0.95290  0.63750  Biso   1.000  H
  H22      1.0000 0.36960  0.45290  0.86250  Biso   1.000  H
  H23      1.0000 0.36960  0.04710  0.36250  Biso   1.000  H
  H24      1.0000 0.63040  0.54710  0.13750  Biso   1.000  H
  H25      1.0000 0.47910  0.01160  0.61080  Biso   1.000  H
  H26      1.0000 0.52090  0.51160  0.88920  Biso   1.000  H
  H27      1.0000 0.52090  0.98840  0.38920  Biso   1.000  H
  H28      1.0000 0.47910  0.48840  0.11080  Biso   1.000  H
  C29      1.0000 0.22370  0.93680  0.77320  Biso   1.000  C
  C30      1.0000 0.77630  0.43680  0.72680  Biso   1.000  C
  C31      1.0000 0.77630  0.06320  0.22680  Biso   1.000  C
  C32      1.0000 0.22370  0.56320  0.27320  Biso   1.000  C
  H29      1.0000 0.22550  0.88700  0.77760  Biso   1.000  H
  H30      1.0000 0.77450  0.38700  0.72240  Biso   1.000  H
  H31      1.0000 0.77450  0.11300  0.22240  Biso   1.000  H
  H32      1.0000 0.22550  0.61300  0.27760  Biso   1.000  H
  H33      1.0000 0.09700  0.95320  0.74950  Biso   1.000  H
  H34      1.0000 0.90300  0.45320  0.75050  Biso   1.000  H
  H35      1.0000 0.90300  0.04680  0.25050  Biso   1.000  H
  H36      1.0000 0.09700  0.54680  0.24950  Biso   1.000  H
  H37      1.0000 0.30770  0.95570  0.84530  Biso   1.000  H
  H38      1.0000 0.69230  0.45570  0.65470  Biso   1.000  H
  H39      1.0000 0.69230  0.04430  0.15470  Biso   1.000  H
  H40      1.0000 0.30770  0.54430  0.34530  Biso   1.000  H
  C33      1.0000 0.13060  0.13950  0.51900  Biso   1.000  C
  C34      1.0000 0.86940  0.63950  0.98100  Biso   1.000  C
  C35      1.0000 0.86940  0.86050  0.48100  Biso   1.000  C
  C36      1.0000 0.13060  0.36050  0.01900  Biso   1.000  C
  C37      1.0000 0.06270  0.15870  0.59160  Biso   1.000  C
  C38      1.0000 0.93730  0.65870  0.90840  Biso   1.000  C
  C39      1.0000 0.93730  0.84130  0.40840  Biso   1.000  C
  C40      1.0000 0.06270  0.34130  0.09160  Biso   1.000  C
  H41      1.0000 0.07860  0.20420  0.61700  Biso   1.000  H
  H42      1.0000 0.92140  0.70420  0.88300  Biso   1.000  H
  H43      1.0000 0.92140  0.79580  0.38300  Biso   1.000  H
  H44      1.0000 0.07860  0.29580  0.11700  Biso   1.000  H
  C41      1.0000 0.97180  0.11210  0.62750  Biso   1.000  C
  C42      1.0000 0.02820  0.61210  0.87250  Biso   1.000  C
  C43      1.0000 0.02820  0.88790  0.37250  Biso   1.000  C
  C44      1.0000 0.97180  0.38790  0.12750  Biso   1.000  C
  C45      1.0000 0.23230  0.19390  0.48330  Biso   1.000  C
  C46      1.0000 0.76770  0.69390  0.01670  Biso   1.000  C
  C47      1.0000 0.76770  0.80610  0.51670  Biso   1.000  C
  C48      1.0000 0.23230  0.30610  0.98330  Biso   1.000  C
  C49      1.0000 0.91070  0.13650  0.71250  Biso   1.000  C
  C50      1.0000 0.08930  0.63650  0.78750  Biso   1.000  C
  C51      1.0000 0.08930  0.86350  0.28750  Biso   1.000  C
  C52      1.0000 0.91070  0.36350  0.21250  Biso   1.000  C
  F1       1.0000 0.66700  0.18680  0.02210  Biso   1.000  F
  F2       1.0000 0.33300  0.68680  0.47790  Biso   1.000  F
  F3       1.0000 0.33300  0.81320  0.97790  Biso   1.000  F
  F4       1.0000 0.66700  0.31320  0.52210  Biso   1.000  F
  F5       1.0000 0.69700  0.21230  0.88750  Biso   1.000  F
  F6       1.0000 0.30300  0.71230  0.61250  Biso   1.000  F
  F7       1.0000 0.30300  0.78770  0.11250  Biso   1.000  F
  F8       1.0000 0.69700  0.28770  0.38750  Biso   1.000  F
  F9       1.0000 0.44100  0.17660  0.87300  Biso   1.000  F
  F10      1.0000 0.55900  0.67660  0.62700  Biso   1.000  F
  F11      1.0000 0.55900  0.82340  0.12700  Biso   1.000  F
  F12      1.0000 0.44100  0.32340  0.37300  Biso   1.000  F
  F13      1.0000 0.16900  0.25780  0.48000  Biso   1.000  F
  F14      1.0000 0.83100  0.75780  0.02000  Biso   1.000  F
  F15      1.0000 0.83100  0.74220  0.52000  Biso   1.000  F
  F16      1.0000 0.16900  0.24220  0.98000  Biso   1.000  F
  F17      1.0000 0.41900  0.19380  0.56580  Biso   1.000  F
  F18      1.0000 0.58100  0.69380  0.93420  Biso   1.000  F
  F19      1.0000 0.58100  0.80620  0.43420  Biso   1.000  F
  F20      1.0000 0.41900  0.30620  0.06580  Biso   1.000  F
  F21      1.0000 0.21300  0.18510  0.39200  Biso   1.000  F
  F22      1.0000 0.78700  0.68510  0.10800  Biso   1.000  F
  F23      1.0000 0.78700  0.81490  0.60800  Biso   1.000  F
  F24      1.0000 0.21300  0.31490  0.89200  Biso   1.000  F
  F25      1.0000 0.86900  0.20560  0.70700  Biso   1.000  F
  F26      1.0000 0.13100  0.70560  0.79300  Biso   1.000  F
  F27      1.0000 0.13100  0.79440  0.29300  Biso   1.000  F
  F28      1.0000 0.86900  0.29440  0.20700  Biso   1.000  F
  F29      1.0000 0.78000  0.10180  0.70900  Biso   1.000  F
  F30      1.0000 0.22000  0.60180  0.79100  Biso   1.000  F
  F31      1.0000 0.22000  0.89820  0.29100  Biso   1.000  F
  F32      1.0000 0.78000  0.39820  0.20900  Biso   1.000  F
  F33      1.0000 0.07160  0.12010  0.82120  Biso   1.000  F
  F34      1.0000 0.92840  0.62010  0.67880  Biso   1.000  F
  F35      1.0000 0.92840  0.87990  0.17880  Biso   1.000  F
  F36      1.0000 0.07160  0.37990  0.32120  Biso   1.000  F
  F37      1.0000 0.53000  0.16090  0.99300  Biso   1.000  F
  F38      1.0000 0.47000  0.66090  0.50700  Biso   1.000  F
  F39      1.0000 0.47000  0.83910  0.00700  Biso   1.000  F
  F40      1.0000 0.53000  0.33910  0.49300  Biso   1.000  F
  F41      1.0000 0.73450  0.21180  0.96900  Biso   1.000  F
  F42      1.0000 0.26550  0.71180  0.53100  Biso   1.000  F
  F43      1.0000 0.26550  0.78820  0.03100  Biso   1.000  F
  F44      1.0000 0.73450  0.28820  0.46900  Biso   1.000  F
  F45      1.0000 0.47500  0.18540  0.83360  Biso   1.000  F
  F46      1.0000 0.52500  0.68540  0.66640  Biso   1.000  F
  F47      1.0000 0.52500  0.81460  0.16640  Biso   1.000  F
  F48      1.0000 0.47500  0.31460  0.33360  Biso   1.000  F
  F49      1.0000 0.14800  0.19560  0.37100  Biso   1.000  F
  F50      1.0000 0.85200  0.69560  0.12900  Biso   1.000  F
  F51      1.0000 0.85200  0.80440  0.62900  Biso   1.000  F
  F52      1.0000 0.14800  0.30440  0.87100  Biso   1.000  F
  F53      1.0000 0.23500  0.25230  0.52400  Biso   1.000  F
  F54      1.0000 0.76500  0.75230  0.97600  Biso   1.000  F
  F55      1.0000 0.76500  0.74770  0.47600  Biso   1.000  F
  F56      1.0000 0.23500  0.24770  0.02400  Biso   1.000  F
  F57      1.0000 0.39800  0.17580  0.50370  Biso   1.000  F
  F58      1.0000 0.60200  0.67580  0.99630  Biso   1.000  F
  F59      1.0000 0.60200  0.82420  0.49630  Biso   1.000  F
  F60      1.0000 0.39800  0.32420  0.00370  Biso   1.000  F
  F61      1.0000 0.98600  0.10620  0.79790  Biso   1.000  F
  F62      1.0000 0.01400  0.60620  0.70210  Biso   1.000  F
  F63      1.0000 0.01400  0.89380  0.20210  Biso   1.000  F
  F64      1.0000 0.98600  0.39380  0.29790  Biso   1.000  F
  F65      1.0000 0.95000  0.19900  0.73500  Biso   1.000  F
  F66      1.0000 0.05000  0.69900  0.76500  Biso   1.000  F
  F67      1.0000 0.05000  0.80100  0.26500  Biso   1.000  F
  F68      1.0000 0.95000  0.30100  0.23500  Biso   1.000  F
  F69      1.0000 0.72600  0.12610  0.67700  Biso   1.000  F
  F70      1.0000 0.27400  0.62610  0.82300  Biso   1.000  F
  F71      1.0000 0.27400  0.87390  0.32300  Biso   1.000  F
  F72      1.0000 0.72600  0.37390  0.17700  Biso   1.000  F
