data_image0
_cell_length_a       7.9133
_cell_length_b       19.0761
_cell_length_c       11.7788
_cell_angle_alpha    90
_cell_angle_beta     97.542
_cell_angle_gamma    90

_symmetry_space_group_name_H-M    "P 1"
_symmetry_int_tables_number       1

loop_
  _symmetry_equiv_pos_as_xyz
  'x, y, z'

loop_
  _atom_site_label
  _atom_site_occupancy
  _atom_site_fract_x
  _atom_site_fract_y
  _atom_site_fract_z
  _atom_site_thermal_displace_type
  _atom_site_B_iso_or_equiv
  _atom_site_type_symbol
  Cu1      1.0000 0.50000  0.00000  0.50000  Biso   1.000  Cu
  Cu2      1.0000 0.00000  0.50000  0.00000  Biso   1.000  Cu
  Cu3      1.0000 0.00000  0.00000  0.00000  Biso   1.000  Cu
  Cu4      1.0000 0.50000  0.50000  0.50000  Biso   1.000  Cu
  O1       1.0000 0.59590  0.04421  0.37851  Biso   1.000  O
  O2       1.0000 0.90410  0.54421  0.12149  Biso   1.000  O
  O3       1.0000 0.40410  0.95579  0.62149  Biso   1.000  O
  O4       1.0000 0.09590  0.45579  0.87851  Biso   1.000  O
  O5       1.0000 0.63840  0.91858  0.49500  Biso   1.000  O
  O6       1.0000 0.86160  0.41858  0.00500  Biso   1.000  O
  O7       1.0000 0.36160  0.08142  0.50500  Biso   1.000  O
  O8       1.0000 0.13840  0.58142  0.99500  Biso   1.000  O
  C1       1.0000 0.70620  0.02032  0.32040  Biso   1.000  C
  C2       1.0000 0.79380  0.52032  0.17960  Biso   1.000  C
  C3       1.0000 0.29380  0.97968  0.67960  Biso   1.000  C
  C4       1.0000 0.20620  0.47968  0.82040  Biso   1.000  C
  C5       1.0000 0.78530  0.95410  0.33970  Biso   1.000  C
  C6       1.0000 0.71470  0.45410  0.16030  Biso   1.000  C
  C7       1.0000 0.21470  0.04590  0.66030  Biso   1.000  C
  C8       1.0000 0.28530  0.54590  0.83970  Biso   1.000  C
  H1       1.0000 0.87080  0.94050  0.29460  Biso   1.000  H
  H2       1.0000 0.62920  0.44050  0.20540  Biso   1.000  H
  H3       1.0000 0.12920  0.05950  0.70540  Biso   1.000  H
  H4       1.0000 0.37080  0.55950  0.79460  Biso   1.000  H
  C9       1.0000 0.74160  0.90878  0.42210  Biso   1.000  C
  C10      1.0000 0.75840  0.40878  0.07790  Biso   1.000  C
  C11      1.0000 0.25840  0.09122  0.57790  Biso   1.000  C
  C12      1.0000 0.24160  0.59122  0.92210  Biso   1.000  C
  C13      1.0000 0.74250  0.06552  0.21790  Biso   1.000  C
  C14      1.0000 0.75750  0.56552  0.28210  Biso   1.000  C
  C15      1.0000 0.25750  0.93448  0.78210  Biso   1.000  C
  C16      1.0000 0.24250  0.43448  0.71790  Biso   1.000  C
  C17      1.0000 0.81960  0.83610  0.42810  Biso   1.000  C
  C18      1.0000 0.68040  0.33610  0.07190  Biso   1.000  C
  C19      1.0000 0.18040  0.16390  0.57190  Biso   1.000  C
  C20      1.0000 0.31960  0.66390  0.92810  Biso   1.000  C
  O9       1.0000 0.83280  0.04857  0.89389  Biso   1.000  O
  O10      1.0000 0.66720  0.54857  0.60611  Biso   1.000  O
  O11      1.0000 0.16720  0.95143  0.10611  Biso   1.000  O
  O12      1.0000 0.33280  0.45143  0.39389  Biso   1.000  O
  O13      1.0000 0.90740  0.04717  0.18701  Biso   1.000  O
  O14      1.0000 0.59260  0.54717  0.31299  Biso   1.000  O
  O15      1.0000 0.09260  0.95283  0.81299  Biso   1.000  O
  O16      1.0000 0.40740  0.45283  0.68701  Biso   1.000  O
  O17      1.0000 0.14960  0.08127  0.01620  Biso   1.000  O
  O18      1.0000 0.35040  0.58127  0.48380  Biso   1.000  O
  O19      1.0000 0.85040  0.91873  0.98380  Biso   1.000  O
  O20      1.0000 0.64960  0.41873  0.51620  Biso   1.000  O
  C21      1.0000 0.84130  0.11159  0.86560  Biso   1.000  C
  C22      1.0000 0.65870  0.61159  0.63440  Biso   1.000  C
  C23      1.0000 0.15870  0.88841  0.13440  Biso   1.000  C
  C24      1.0000 0.34130  0.38841  0.36560  Biso   1.000  C
  C25      1.0000 0.96410  0.16094  0.90480  Biso   1.000  C
  C26      1.0000 0.53590  0.66094  0.59520  Biso   1.000  C
  C27      1.0000 0.03590  0.83906  0.09520  Biso   1.000  C
  C28      1.0000 0.46410  0.33906  0.40480  Biso   1.000  C
  H5       1.0000 0.94820  0.20860  0.88270  Biso   1.000  H
  H6       1.0000 0.55180  0.70860  0.61730  Biso   1.000  H
  H7       1.0000 0.05180  0.79140  0.11730  Biso   1.000  H
  H8       1.0000 0.44820  0.29140  0.38270  Biso   1.000  H
  C29      1.0000 0.11000  0.14114  0.97620  Biso   1.000  C
  C30      1.0000 0.39000  0.64114  0.52380  Biso   1.000  C
  C31      1.0000 0.89000  0.85886  0.02380  Biso   1.000  C
  C32      1.0000 0.61000  0.35886  0.47620  Biso   1.000  C
  C33      1.0000 0.69340  0.13420  0.77440  Biso   1.000  C
  C34      1.0000 0.80660  0.63420  0.72560  Biso   1.000  C
  C35      1.0000 0.30660  0.86580  0.22560  Biso   1.000  C
  C36      1.0000 0.19340  0.36580  0.27440  Biso   1.000  C
  C37      1.0000 0.24570  0.19670  0.01040  Biso   1.000  C
  C38      1.0000 0.25430  0.69670  0.48960  Biso   1.000  C
  C39      1.0000 0.75430  0.80330  0.98960  Biso   1.000  C
  C40      1.0000 0.74570  0.30330  0.51040  Biso   1.000  C
  C41      1.0000 0.61330  0.04220  0.11730  Biso   1.000  C
  C42      1.0000 0.88670  0.54220  0.38270  Biso   1.000  C
  C43      1.0000 0.38670  0.95780  0.88270  Biso   1.000  C
  C44      1.0000 0.11330  0.45780  0.61730  Biso   1.000  C
  H9       1.0000 0.62670  0.99190  0.10410  Biso   1.000  H
  H10      1.0000 0.87330  0.49190  0.39590  Biso   1.000  H
  H11      1.0000 0.37330  0.00810  0.89590  Biso   1.000  H
  H12      1.0000 0.12670  0.50810  0.60410  Biso   1.000  H
  H13      1.0000 0.63270  0.06820  0.04840  Biso   1.000  H
  H14      1.0000 0.86730  0.56820  0.45160  Biso   1.000  H
  H15      1.0000 0.36730  0.93180  0.95160  Biso   1.000  H
  H16      1.0000 0.13270  0.43180  0.54840  Biso   1.000  H
  H17      1.0000 0.49770  0.05150  0.13470  Biso   1.000  H
  H18      1.0000 0.00230  0.55150  0.36530  Biso   1.000  H
  H19      1.0000 0.50230  0.94850  0.86530  Biso   1.000  H
  H20      1.0000 0.99770  0.44850  0.63470  Biso   1.000  H
  C45      1.0000 0.72700  0.14230  0.24400  Biso   1.000  C
  C46      1.0000 0.77300  0.64230  0.25600  Biso   1.000  C
  C47      1.0000 0.27300  0.85770  0.75600  Biso   1.000  C
  C48      1.0000 0.22700  0.35770  0.74400  Biso   1.000  C
  H21      1.0000 0.61090  0.15240  0.26000  Biso   1.000  H
  H22      1.0000 0.88910  0.65240  0.24000  Biso   1.000  H
  H23      1.0000 0.38910  0.84760  0.74000  Biso   1.000  H
  H24      1.0000 0.11090  0.34760  0.76000  Biso   1.000  H
  H25      1.0000 0.75130  0.17000  0.17800  Biso   1.000  H
  H26      1.0000 0.74870  0.67000  0.32200  Biso   1.000  H
  H27      1.0000 0.24870  0.83000  0.82200  Biso   1.000  H
  H28      1.0000 0.25130  0.33000  0.67800  Biso   1.000  H
  H29      1.0000 0.80850  0.15450  0.31100  Biso   1.000  H
  H30      1.0000 0.69150  0.65450  0.18900  Biso   1.000  H
  H31      1.0000 0.19150  0.84550  0.68900  Biso   1.000  H
  H32      1.0000 0.30850  0.34550  0.81100  Biso   1.000  H
  C49      1.0000 0.05020  0.07100  0.26800  Biso   1.000  C
  C50      1.0000 0.44980  0.57100  0.23200  Biso   1.000  C
  C51      1.0000 0.94980  0.92900  0.73200  Biso   1.000  C
  C52      1.0000 0.55020  0.42900  0.76800  Biso   1.000  C
  H33      1.0000 0.15730  0.05770  0.24040  Biso   1.000  H
  H34      1.0000 0.34270  0.55770  0.25960  Biso   1.000  H
  H35      1.0000 0.84270  0.94230  0.75960  Biso   1.000  H
  H36      1.0000 0.65730  0.44230  0.74040  Biso   1.000  H
  H37      1.0000 0.04430  0.04930  0.34280  Biso   1.000  H
  H38      1.0000 0.45570  0.54930  0.15720  Biso   1.000  H
  H39      1.0000 0.95570  0.95070  0.65720  Biso   1.000  H
  H40      1.0000 0.54430  0.45070  0.84280  Biso   1.000  H
  H41      1.0000 0.04520  0.12210  0.27540  Biso   1.000  H
  H42      1.0000 0.45480  0.62210  0.22460  Biso   1.000  H
  H43      1.0000 0.95480  0.87790  0.72460  Biso   1.000  H
  H44      1.0000 0.54520  0.37790  0.77540  Biso   1.000  H
  F1       1.0000 0.30750  0.19125  0.12010  Biso   1.000  F
  F2       1.0000 0.19250  0.69125  0.37990  Biso   1.000  F
  F3       1.0000 0.69250  0.80875  0.87990  Biso   1.000  F
  F4       1.0000 0.80750  0.30875  0.62010  Biso   1.000  F
  F5       1.0000 0.19000  0.26131  0.99480  Biso   1.000  F
  F6       1.0000 0.31000  0.76131  0.50520  Biso   1.000  F
  F7       1.0000 0.81000  0.73869  0.00520  Biso   1.000  F
  F8       1.0000 0.69000  0.23869  0.49480  Biso   1.000  F
  F9       1.0000 0.37710  0.18760  0.95330  Biso   1.000  F
  F10      1.0000 0.12290  0.68760  0.54670  Biso   1.000  F
  F11      1.0000 0.62290  0.81240  0.04670  Biso   1.000  F
  F12      1.0000 0.87710  0.31240  0.45330  Biso   1.000  F
  F13      1.0000 0.54780  0.10991  0.79850  Biso   1.000  F
  F14      1.0000 0.95220  0.60991  0.70150  Biso   1.000  F
  F15      1.0000 0.45220  0.89009  0.20150  Biso   1.000  F
  F16      1.0000 0.04780  0.39009  0.29850  Biso   1.000  F
  F17      1.0000 0.67830  0.20284  0.76390  Biso   1.000  F
  F18      1.0000 0.82170  0.70284  0.73610  Biso   1.000  F
  F19      1.0000 0.32170  0.79716  0.23610  Biso   1.000  F
  F20      1.0000 0.17830  0.29716  0.26390  Biso   1.000  F
  F21      1.0000 0.71780  0.10670  0.67440  Biso   1.000  F
  F22      1.0000 0.78220  0.60670  0.82560  Biso   1.000  F
  F23      1.0000 0.28220  0.89330  0.32560  Biso   1.000  F
  F24      1.0000 0.21780  0.39330  0.17440  Biso   1.000  F
  F25      1.0000 0.90160  0.81745  0.34850  Biso   1.000  F
  F26      1.0000 0.59840  0.31745  0.15150  Biso   1.000  F
  F27      1.0000 0.09840  0.18255  0.65150  Biso   1.000  F
  F28      1.0000 0.40160  0.68255  0.84850  Biso   1.000  F
  F29      1.0000 0.88900  0.81920  0.52390  Biso   1.000  F
  F30      1.0000 0.61100  0.31920  0.97610  Biso   1.000  F
  F31      1.0000 0.11100  0.18080  0.47610  Biso   1.000  F
  F32      1.0000 0.38900  0.68080  0.02390  Biso   1.000  F
  F33      1.0000 0.69130  0.78769  0.41920  Biso   1.000  F
  F34      1.0000 0.80870  0.28769  0.08080  Biso   1.000  F
  F35      1.0000 0.30870  0.21231  0.58080  Biso   1.000  F
  F36      1.0000 0.19130  0.71231  0.91920  Biso   1.000  F
