data_image0
_cell_length_a       13.8705
_cell_length_b       9.3331
_cell_length_c       26.8537
_cell_angle_alpha    90
_cell_angle_beta     90.29
_cell_angle_gamma    90

_symmetry_space_group_name_H-M    "P 1"
_symmetry_int_tables_number       1

loop_
  _symmetry_equiv_pos_as_xyz
  'x, y, z'

loop_
  _atom_site_label
  _atom_site_occupancy
  _atom_site_fract_x
  _atom_site_fract_y
  _atom_site_fract_z
  _atom_site_thermal_displace_type
  _atom_site_B_iso_or_equiv
  _atom_site_type_symbol
  Cu1      1.0000 0.24706  0.23079  0.08950  Biso   1.000  Cu
  Cu2      1.0000 0.25294  0.73079  0.41050  Biso   1.000  Cu
  Cu3      1.0000 0.75294  0.76921  0.91050  Biso   1.000  Cu
  Cu4      1.0000 0.74706  0.26921  0.58950  Biso   1.000  Cu
  F1       1.0000 0.92030  0.22270  0.18690  Biso   1.000  F
  F2       1.0000 0.57970  0.72270  0.31310  Biso   1.000  F
  F3       1.0000 0.07970  0.77730  0.81310  Biso   1.000  F
  F4       1.0000 0.42030  0.27730  0.68690  Biso   1.000  F
  F5       1.0000 0.92970  0.34010  0.11857  Biso   1.000  F
  F6       1.0000 0.57030  0.84010  0.38143  Biso   1.000  F
  F7       1.0000 0.07030  0.65990  0.88143  Biso   1.000  F
  F8       1.0000 0.42970  0.15990  0.61857  Biso   1.000  F
  F9       1.0000 0.92860  0.10880  0.11761  Biso   1.000  F
  F10      1.0000 0.57140  0.60880  0.38239  Biso   1.000  F
  F11      1.0000 0.07140  0.89120  0.88239  Biso   1.000  F
  F12      1.0000 0.42860  0.39120  0.61761  Biso   1.000  F
  F13      1.0000 0.56990  0.17570  0.99440  Biso   1.000  F
  F14      1.0000 0.93010  0.67570  0.50560  Biso   1.000  F
  F15      1.0000 0.43010  0.82430  0.00560  Biso   1.000  F
  F16      1.0000 0.06990  0.32430  0.49440  Biso   1.000  F
  F17      1.0000 0.56270  0.11740  0.06940  Biso   1.000  F
  F18      1.0000 0.93730  0.61740  0.43060  Biso   1.000  F
  F19      1.0000 0.43730  0.88260  0.93060  Biso   1.000  F
  F20      1.0000 0.06270  0.38260  0.56940  Biso   1.000  F
  F21      1.0000 0.56840  0.33430  0.05240  Biso   1.000  F
  F22      1.0000 0.93160  0.83430  0.44760  Biso   1.000  F
  F23      1.0000 0.43160  0.66570  0.94760  Biso   1.000  F
  F24      1.0000 0.06840  0.16570  0.55240  Biso   1.000  F
  F25      1.0000 0.22980  0.33720  0.91120  Biso   1.000  F
  F26      1.0000 0.27020  0.83720  0.58880  Biso   1.000  F
  F27      1.0000 0.77020  0.66280  0.08880  Biso   1.000  F
  F28      1.0000 0.72980  0.16280  0.41120  Biso   1.000  F
  F29      1.0000 0.13940  0.16310  0.93471  Biso   1.000  F
  F30      1.0000 0.36060  0.66310  0.56529  Biso   1.000  F
  F31      1.0000 0.86060  0.83690  0.06529  Biso   1.000  F
  F32      1.0000 0.63940  0.33690  0.43471  Biso   1.000  F
  F33      1.0000 0.27720  0.12220  0.90286  Biso   1.000  F
  F34      1.0000 0.22280  0.62220  0.59714  Biso   1.000  F
  F35      1.0000 0.72280  0.87780  0.09714  Biso   1.000  F
  F36      1.0000 0.77720  0.37780  0.40286  Biso   1.000  F
  O1       1.0000 0.27830  0.21100  0.15907  Biso   1.000  O
  O2       1.0000 0.22170  0.71100  0.34093  Biso   1.000  O
  O3       1.0000 0.72170  0.78900  0.84093  Biso   1.000  O
  O4       1.0000 0.77830  0.28900  0.65907  Biso   1.000  O
  O5       1.0000 0.10980  0.22270  0.10286  Biso   1.000  O
  O6       1.0000 0.39020  0.72270  0.39714  Biso   1.000  O
  O7       1.0000 0.89020  0.77730  0.89714  Biso   1.000  O
  O8       1.0000 0.60980  0.27730  0.60286  Biso   1.000  O
  O9       1.0000 0.38470  0.23920  0.07695  Biso   1.000  O
  O10      1.0000 0.11530  0.73920  0.42305  Biso   1.000  O
  O11      1.0000 0.61530  0.76080  0.92305  Biso   1.000  O
  O12      1.0000 0.88470  0.26080  0.57695  Biso   1.000  O
  O13      1.0000 0.21480  0.23920  0.01977  Biso   1.000  O
  O14      1.0000 0.28520  0.73920  0.48023  Biso   1.000  O
  O15      1.0000 0.78520  0.76080  0.98023  Biso   1.000  O
  O16      1.0000 0.71480  0.26080  0.51977  Biso   1.000  O
  C1       1.0000 0.26530  0.18820  0.24630  Biso   1.000  C
  C2       1.0000 0.23470  0.68820  0.25370  Biso   1.000  C
  C3       1.0000 0.73470  0.81180  0.75370  Biso   1.000  C
  C4       1.0000 0.76530  0.31180  0.74630  Biso   1.000  C
  C5       1.0000 0.21860  0.20620  0.19420  Biso   1.000  C
  C6       1.0000 0.28140  0.70620  0.30580  Biso   1.000  C
  C7       1.0000 0.78140  0.79380  0.80580  Biso   1.000  C
  C8       1.0000 0.71860  0.29380  0.69420  Biso   1.000  C
  C9       1.0000 0.07280  0.22020  0.14500  Biso   1.000  C
  C10      1.0000 0.42720  0.72020  0.35500  Biso   1.000  C
  C11      1.0000 0.92720  0.77980  0.85500  Biso   1.000  C
  C12      1.0000 0.57280  0.27980  0.64500  Biso   1.000  C
  C13      1.0000 0.96100  0.22210  0.14210  Biso   1.000  C
  C14      1.0000 0.53900  0.72210  0.35790  Biso   1.000  C
  C15      1.0000 0.03900  0.77790  0.85790  Biso   1.000  C
  C16      1.0000 0.46100  0.27790  0.64210  Biso   1.000  C
  C17      1.0000 0.53250  0.21680  0.03680  Biso   1.000  C
  C18      1.0000 0.96750  0.71680  0.46320  Biso   1.000  C
  C19      1.0000 0.46750  0.78320  0.96320  Biso   1.000  C
  C20      1.0000 0.03250  0.28320  0.53680  Biso   1.000  C
  C21      1.0000 0.42110  0.22210  0.03450  Biso   1.000  C
  C22      1.0000 0.07890  0.72210  0.46550  Biso   1.000  C
  C23      1.0000 0.57890  0.77790  0.96550  Biso   1.000  C
  C24      1.0000 0.92110  0.27790  0.53450  Biso   1.000  C
  C25      1.0000 0.27450  0.22010  0.98440  Biso   1.000  C
  C26      1.0000 0.22550  0.72010  0.51560  Biso   1.000  C
  C27      1.0000 0.72550  0.77990  0.01560  Biso   1.000  C
  C28      1.0000 0.77450  0.27990  0.48440  Biso   1.000  C
  C29      1.0000 0.22970  0.21110  0.93280  Biso   1.000  C
  C30      1.0000 0.27030  0.71110  0.56720  Biso   1.000  C
  C31      1.0000 0.77030  0.78890  0.06720  Biso   1.000  C
  C32      1.0000 0.72970  0.28890  0.43280  Biso   1.000  C
  C33      1.0000 0.11700  0.21300  0.19090  Biso   1.000  C
  C34      1.0000 0.38300  0.71300  0.30910  Biso   1.000  C
  C35      1.0000 0.88300  0.78700  0.80910  Biso   1.000  C
  C36      1.0000 0.61700  0.28700  0.69090  Biso   1.000  C
  C37      1.0000 0.37560  0.20850  0.98900  Biso   1.000  C
  C38      1.0000 0.12440  0.70850  0.51100  Biso   1.000  C
  C39      1.0000 0.62440  0.79150  0.01100  Biso   1.000  C
  C40      1.0000 0.87560  0.29150  0.48900  Biso   1.000  C
  H1       1.0000 0.07920  0.21450  0.22040  Biso   1.000  H
  H2       1.0000 0.42080  0.71450  0.27960  Biso   1.000  H
  H3       1.0000 0.92080  0.78550  0.77960  Biso   1.000  H
  H4       1.0000 0.57920  0.28550  0.72040  Biso   1.000  H
  H5       1.0000 0.41260  0.18620  0.96040  Biso   1.000  H
  H6       1.0000 0.08740  0.68620  0.53960  Biso   1.000  H
  H7       1.0000 0.58740  0.81380  0.03960  Biso   1.000  H
  H8       1.0000 0.91260  0.31380  0.46040  Biso   1.000  H
  F37      1.0000 0.33600  0.09910  0.24640  Biso   1.000  F
  F38      1.0000 0.16400  0.59910  0.25360  Biso   1.000  F
  F39      1.0000 0.66400  0.90090  0.75360  Biso   1.000  F
  F40      1.0000 0.83600  0.40090  0.74640  Biso   1.000  F
  F41      1.0000 0.30150  0.30890  0.26150  Biso   1.000  F
  F42      1.0000 0.19850  0.80890  0.23850  Biso   1.000  F
  F43      1.0000 0.69850  0.69110  0.73850  Biso   1.000  F
  F44      1.0000 0.80150  0.19110  0.76150  Biso   1.000  F
  F45      1.0000 0.20330  0.12900  0.27880  Biso   1.000  F
  F46      1.0000 0.29670  0.62900  0.22120  Biso   1.000  F
  F47      1.0000 0.79670  0.87100  0.72120  Biso   1.000  F
  F48      1.0000 0.70330  0.37100  0.77880  Biso   1.000  F
  Si1      1.0000 0.85350  0.72610  0.24665  Biso   1.000  Si
  Si2      1.0000 0.64650  0.22610  0.25335  Biso   1.000  Si
  Si3      1.0000 0.14650  0.27390  0.75335  Biso   1.000  Si
  Si4      1.0000 0.35350  0.77390  0.74665  Biso   1.000  Si
  O17      1.0000 0.27840  0.97300  0.07600  Biso   1.000  O
  O18      1.0000 0.22160  0.47300  0.42400  Biso   1.000  O
  O19      1.0000 0.72160  0.02700  0.92400  Biso   1.000  O
  O20      1.0000 0.77840  0.52700  0.57600  Biso   1.000  O
  O21      1.0000 0.25380  0.48440  0.10210  Biso   1.000  O
  O22      1.0000 0.24620  0.98440  0.39790  Biso   1.000  O
  O23      1.0000 0.74620  0.51560  0.89790  Biso   1.000  O
  O24      1.0000 0.75380  0.01560  0.60210  Biso   1.000  O
  N1       1.0000 0.24670  0.84310  0.07790  Biso   1.000  N
  N2       1.0000 0.25330  0.34310  0.42210  Biso   1.000  N
  N3       1.0000 0.75330  0.15690  0.92210  Biso   1.000  N
  N4       1.0000 0.74670  0.65690  0.57790  Biso   1.000  N
  N5       1.0000 0.23740  0.61160  0.08730  Biso   1.000  N
  N6       1.0000 0.26260  0.11160  0.41270  Biso   1.000  N
  N7       1.0000 0.76260  0.38840  0.91270  Biso   1.000  N
  N8       1.0000 0.73740  0.88840  0.58730  Biso   1.000  N
  C41      1.0000 0.73370  0.72750  0.21720  Biso   1.000  C
  C42      1.0000 0.76630  0.22750  0.28280  Biso   1.000  C
  C43      1.0000 0.26630  0.27250  0.78280  Biso   1.000  C
  C44      1.0000 0.23370  0.77250  0.71720  Biso   1.000  C
  C45      1.0000 0.65730  0.72930  0.19580  Biso   1.000  C
  C46      1.0000 0.84270  0.22930  0.30420  Biso   1.000  C
  C47      1.0000 0.34270  0.27070  0.80420  Biso   1.000  C
  C48      1.0000 0.15730  0.77070  0.69580  Biso   1.000  C
  C49      1.0000 0.56680  0.72900  0.17020  Biso   1.000  C
  C50      1.0000 0.93320  0.22900  0.32980  Biso   1.000  C
  C51      1.0000 0.43320  0.27100  0.82980  Biso   1.000  C
  C52      1.0000 0.06680  0.77100  0.67020  Biso   1.000  C
  C53      1.0000 0.38860  0.72830  0.11990  Biso   1.000  C
  C54      1.0000 0.11140  0.22830  0.38010  Biso   1.000  C
  C55      1.0000 0.61140  0.27170  0.88010  Biso   1.000  C
  C56      1.0000 0.88860  0.77170  0.61990  Biso   1.000  C
  C57      1.0000 0.29330  0.72770  0.09560  Biso   1.000  C
  C58      1.0000 0.20670  0.22770  0.40440  Biso   1.000  C
  C59      1.0000 0.70670  0.27230  0.90440  Biso   1.000  C
  C60      1.0000 0.79330  0.77230  0.59560  Biso   1.000  C
  C61      1.0000 0.14170  0.81140  0.06570  Biso   1.000  C
  C62      1.0000 0.35830  0.31140  0.43430  Biso   1.000  C
  C63      1.0000 0.85830  0.18860  0.93430  Biso   1.000  C
  C64      1.0000 0.64170  0.68860  0.56570  Biso   1.000  C
  C65      1.0000 0.15090  0.64840  0.05500  Biso   1.000  C
  C66      1.0000 0.34910  0.14840  0.44500  Biso   1.000  C
  C67      1.0000 0.84910  0.35160  0.94500  Biso   1.000  C
  C68      1.0000 0.65090  0.85160  0.55500  Biso   1.000  C
  C69      1.0000 0.51010  0.85280  0.16570  Biso   1.000  C
  C70      1.0000 0.98990  0.35280  0.33430  Biso   1.000  C
  C71      1.0000 0.48990  0.14720  0.83430  Biso   1.000  C
  C72      1.0000 0.01010  0.64720  0.66570  Biso   1.000  C
  C73      1.0000 0.42330  0.85380  0.14030  Biso   1.000  C
  C74      1.0000 0.07670  0.35380  0.35970  Biso   1.000  C
  C75      1.0000 0.57670  0.14620  0.85970  Biso   1.000  C
  C76      1.0000 0.92330  0.64620  0.64030  Biso   1.000  C
  C77      1.0000 0.44300  0.60270  0.12290  Biso   1.000  C
  C78      1.0000 0.05700  0.10270  0.37710  Biso   1.000  C
  C79      1.0000 0.55700  0.39730  0.87710  Biso   1.000  C
  C80      1.0000 0.94300  0.89730  0.62290  Biso   1.000  C
  C81      1.0000 0.53020  0.60410  0.14760  Biso   1.000  C
  C82      1.0000 0.96980  0.10410  0.35240  Biso   1.000  C
  C83      1.0000 0.46980  0.39590  0.85240  Biso   1.000  C
  C84      1.0000 0.03020  0.89590  0.64760  Biso   1.000  C
  H9       1.0000 0.53240  0.93900  0.18060  Biso   1.000  H
  H10      1.0000 0.96760  0.43900  0.31940  Biso   1.000  H
  H11      1.0000 0.46760  0.06100  0.81940  Biso   1.000  H
  H12      1.0000 0.03240  0.56100  0.68060  Biso   1.000  H
  H13      1.0000 0.38810  0.94040  0.13630  Biso   1.000  H
  H14      1.0000 0.11190  0.44040  0.36370  Biso   1.000  H
  H15      1.0000 0.61190  0.05960  0.86370  Biso   1.000  H
  H16      1.0000 0.88810  0.55960  0.63630  Biso   1.000  H
  H17      1.0000 0.41970  0.51720  0.10780  Biso   1.000  H
  H18      1.0000 0.08030  0.01720  0.39220  Biso   1.000  H
  H19      1.0000 0.58030  0.48280  0.89220  Biso   1.000  H
  H20      1.0000 0.91970  0.98280  0.60780  Biso   1.000  H
  H21      1.0000 0.56680  0.51830  0.14970  Biso   1.000  H
  H22      1.0000 0.93320  0.01830  0.35030  Biso   1.000  H
  H23      1.0000 0.43320  0.48170  0.85030  Biso   1.000  H
  H24      1.0000 0.06680  0.98170  0.64970  Biso   1.000  H
  C85      1.0000 0.10200  0.90250  0.02700  Biso   1.000  C
  C86      1.0000 0.39800  0.40250  0.47300  Biso   1.000  C
  C87      1.0000 0.89800  0.09750  0.97300  Biso   1.000  C
  C88      1.0000 0.60200  0.59750  0.52700  Biso   1.000  C
  H25      1.0000 0.14220  0.89840  0.99850  Biso   1.000  H
  H26      1.0000 0.35780  0.39840  0.50150  Biso   1.000  H
  H27      1.0000 0.85780  0.10160  0.00150  Biso   1.000  H
  H28      1.0000 0.64220  0.60160  0.49850  Biso   1.000  H
  H29      1.0000 0.09950  0.99820  0.03900  Biso   1.000  H
  H30      1.0000 0.40050  0.49820  0.46100  Biso   1.000  H
  H31      1.0000 0.90050  0.00180  0.96100  Biso   1.000  H
  H32      1.0000 0.59950  0.50180  0.53900  Biso   1.000  H
  H33      1.0000 0.03890  0.87160  0.01830  Biso   1.000  H
  H34      1.0000 0.46110  0.37160  0.48170  Biso   1.000  H
  H35      1.0000 0.96110  0.12840  0.98170  Biso   1.000  H
  H36      1.0000 0.53890  0.62840  0.51830  Biso   1.000  H
  C89      1.0000 0.08630  0.83300  0.11560  Biso   1.000  C
  C90      1.0000 0.41370  0.33300  0.38440  Biso   1.000  C
  C91      1.0000 0.91370  0.16700  0.88440  Biso   1.000  C
  C92      1.0000 0.58630  0.66700  0.61560  Biso   1.000  C
  H37      1.0000 0.01940  0.81600  0.11080  Biso   1.000  H
  H38      1.0000 0.48060  0.31600  0.38920  Biso   1.000  H
  H39      1.0000 0.98060  0.18400  0.88920  Biso   1.000  H
  H40      1.0000 0.51940  0.68400  0.61080  Biso   1.000  H
  H41      1.0000 0.09590  0.92800  0.12700  Biso   1.000  H
  H42      1.0000 0.40410  0.42800  0.37300  Biso   1.000  H
  H43      1.0000 0.90410  0.07200  0.87300  Biso   1.000  H
  H44      1.0000 0.59590  0.57200  0.62700  Biso   1.000  H
  H45      1.0000 0.11110  0.76700  0.13950  Biso   1.000  H
  H46      1.0000 0.38890  0.26700  0.36050  Biso   1.000  H
  H47      1.0000 0.88890  0.23300  0.86050  Biso   1.000  H
  H48      1.0000 0.61110  0.73300  0.63950  Biso   1.000  H
  C93      1.0000 0.18340  0.62300  0.00020  Biso   1.000  C
  C94      1.0000 0.31660  0.12300  0.49980  Biso   1.000  C
  C95      1.0000 0.81660  0.37700  0.99980  Biso   1.000  C
  C96      1.0000 0.68340  0.87700  0.50020  Biso   1.000  C
  H49      1.0000 0.13130  0.64600  0.97840  Biso   1.000  H
  H50      1.0000 0.36870  0.14600  0.52160  Biso   1.000  H
  H51      1.0000 0.86870  0.35400  0.02160  Biso   1.000  H
  H52      1.0000 0.63130  0.85400  0.47840  Biso   1.000  H
  H53      1.0000 0.23670  0.68400  0.99300  Biso   1.000  H
  H54      1.0000 0.26330  0.18400  0.50700  Biso   1.000  H
  H55      1.0000 0.76330  0.31600  0.00700  Biso   1.000  H
  H56      1.0000 0.73670  0.81600  0.49300  Biso   1.000  H
  H57      1.0000 0.20140  0.52600  0.99580  Biso   1.000  H
  H58      1.0000 0.29860  0.02600  0.50420  Biso   1.000  H
  H59      1.0000 0.79860  0.47400  0.00420  Biso   1.000  H
  H60      1.0000 0.70140  0.97400  0.49580  Biso   1.000  H
  C97      1.0000 0.06720  0.55600  0.06580  Biso   1.000  C
  C98      1.0000 0.43280  0.05600  0.43420  Biso   1.000  C
  C99      1.0000 0.93280  0.44400  0.93420  Biso   1.000  C
  C100     1.0000 0.56720  0.94400  0.56580  Biso   1.000  C
  H61      1.0000 0.01450  0.58000  0.04470  Biso   1.000  H
  H62      1.0000 0.48550  0.08000  0.45530  Biso   1.000  H
  H63      1.0000 0.98550  0.42000  0.95530  Biso   1.000  H
  H64      1.0000 0.51450  0.92000  0.54470  Biso   1.000  H
  H65      1.0000 0.04990  0.57200  0.09950  Biso   1.000  H
  H66      1.0000 0.45010  0.07200  0.40050  Biso   1.000  H
  H67      1.0000 0.95010  0.42800  0.90050  Biso   1.000  H
  H68      1.0000 0.54990  0.92800  0.59950  Biso   1.000  H
  H69      1.0000 0.08340  0.45800  0.06140  Biso   1.000  H
  H70      1.0000 0.41660  0.95800  0.43860  Biso   1.000  H
  H71      1.0000 0.91660  0.54200  0.93860  Biso   1.000  H
  H72      1.0000 0.58340  0.04200  0.56140  Biso   1.000  H
  C101     1.0000 0.83700  0.70800  0.31490  Biso   1.000  C
  C102     1.0000 0.66300  0.20800  0.18510  Biso   1.000  C
  C103     1.0000 0.16300  0.29200  0.68510  Biso   1.000  C
  C104     1.0000 0.33700  0.79200  0.81490  Biso   1.000  C
  H73      1.0000 0.89800  0.70500  0.33110  Biso   1.000  H
  H74      1.0000 0.60200  0.20500  0.16890  Biso   1.000  H
  H75      1.0000 0.10200  0.29500  0.66890  Biso   1.000  H
  H76      1.0000 0.39800  0.79500  0.83110  Biso   1.000  H
  H77      1.0000 0.80160  0.78800  0.32660  Biso   1.000  H
  H78      1.0000 0.69840  0.28800  0.17340  Biso   1.000  H
  H79      1.0000 0.19840  0.21200  0.67340  Biso   1.000  H
  H80      1.0000 0.30160  0.71200  0.82660  Biso   1.000  H
  H81      1.0000 0.80240  0.62200  0.32210  Biso   1.000  H
  H82      1.0000 0.69760  0.12200  0.17790  Biso   1.000  H
  H83      1.0000 0.19760  0.37800  0.67790  Biso   1.000  H
  H84      1.0000 0.30240  0.87800  0.82210  Biso   1.000  H
  C105     1.0000 0.91770  0.56880  0.21990  Biso   1.000  C
  C106     1.0000 0.58230  0.06880  0.28010  Biso   1.000  C
  C107     1.0000 0.08230  0.43120  0.78010  Biso   1.000  C
  C108     1.0000 0.41770  0.93120  0.71990  Biso   1.000  C
  H85      1.0000 0.98040  0.56160  0.23400  Biso   1.000  H
  H86      1.0000 0.51960  0.06160  0.26600  Biso   1.000  H
  H87      1.0000 0.01960  0.43840  0.76600  Biso   1.000  H
  H88      1.0000 0.48040  0.93840  0.73400  Biso   1.000  H
  H89      1.0000 0.92260  0.58120  0.18490  Biso   1.000  H
  H90      1.0000 0.57740  0.08120  0.31510  Biso   1.000  H
  H91      1.0000 0.07740  0.41880  0.81510  Biso   1.000  H
  H92      1.0000 0.42260  0.91880  0.68490  Biso   1.000  H
  H93      1.0000 0.88250  0.48370  0.22680  Biso   1.000  H
  H94      1.0000 0.61750  0.98370  0.27320  Biso   1.000  H
  H95      1.0000 0.11750  0.51630  0.77320  Biso   1.000  H
  H96      1.0000 0.38250  0.01630  0.72680  Biso   1.000  H
  C109     1.0000 0.91750  0.89410  0.23010  Biso   1.000  C
  C110     1.0000 0.58250  0.39410  0.26990  Biso   1.000  C
  C111     1.0000 0.08250  0.10590  0.76990  Biso   1.000  C
  C112     1.0000 0.41750  0.60590  0.73010  Biso   1.000  C
  H97      1.0000 0.97970  0.89300  0.24500  Biso   1.000  H
  H98      1.0000 0.52030  0.39300  0.25500  Biso   1.000  H
  H99      1.0000 0.02030  0.10700  0.75500  Biso   1.000  H
  H100     1.0000 0.47970  0.60700  0.74500  Biso   1.000  H
  H101     1.0000 0.88230  0.97430  0.24200  Biso   1.000  H
  H102     1.0000 0.61770  0.47430  0.25800  Biso   1.000  H
  H103     1.0000 0.11770  0.02570  0.75800  Biso   1.000  H
  H104     1.0000 0.38230  0.52570  0.74200  Biso   1.000  H
  H105     1.0000 0.92370  0.90060  0.19490  Biso   1.000  H
  H106     1.0000 0.57630  0.40060  0.30510  Biso   1.000  H
  H107     1.0000 0.07630  0.09940  0.80510  Biso   1.000  H
  H108     1.0000 0.42370  0.59940  0.69490  Biso   1.000  H
  F49      1.0000 0.34630  0.27600  0.24990  Biso   1.000  F
  F50      1.0000 0.15370  0.77600  0.25010  Biso   1.000  F
  F51      1.0000 0.65370  0.72400  0.75010  Biso   1.000  F
  F52      1.0000 0.84630  0.22400  0.74990  Biso   1.000  F
  F53      1.0000 0.20860  0.21500  0.28280  Biso   1.000  F
  F54      1.0000 0.29140  0.71500  0.21720  Biso   1.000  F
  F55      1.0000 0.79140  0.78500  0.71720  Biso   1.000  F
  F56      1.0000 0.70860  0.28500  0.78280  Biso   1.000  F
  F57      1.0000 0.30920  0.04900  0.24500  Biso   1.000  F
  F58      1.0000 0.19080  0.54900  0.25500  Biso   1.000  F
  F59      1.0000 0.69080  0.95100  0.75500  Biso   1.000  F
  F60      1.0000 0.80920  0.45100  0.74500  Biso   1.000  F
