data_image0
_cell_length_a       15.525
_cell_length_b       5.758
_cell_length_c       22.255
_cell_angle_alpha    90
_cell_angle_beta     105
_cell_angle_gamma    90

_symmetry_space_group_name_H-M    "P 1"
_symmetry_int_tables_number       1

loop_
  _symmetry_equiv_pos_as_xyz
  'x, y, z'

loop_
  _atom_site_label
  _atom_site_occupancy
  _atom_site_fract_x
  _atom_site_fract_y
  _atom_site_fract_z
  _atom_site_thermal_displace_type
  _atom_site_B_iso_or_equiv
  _atom_site_type_symbol
  Cu1      1.0000 0.25000  0.59390  0.25000  Biso   1.000  Cu
  Cu2      1.0000 0.75000  0.09390  0.25000  Biso   1.000  Cu
  Cu3      1.0000 0.75000  0.40610  0.75000  Biso   1.000  Cu
  Cu4      1.0000 0.25000  0.90610  0.75000  Biso   1.000  Cu
  O1       1.0000 0.33760  0.59450  0.33020  Biso   1.000  O
  O2       1.0000 0.83760  0.09450  0.33020  Biso   1.000  O
  O3       1.0000 0.16240  0.59450  0.16980  Biso   1.000  O
  O4       1.0000 0.66240  0.09450  0.16980  Biso   1.000  O
  O5       1.0000 0.66240  0.40550  0.66980  Biso   1.000  O
  O6       1.0000 0.16240  0.90550  0.66980  Biso   1.000  O
  O7       1.0000 0.83760  0.40550  0.83020  Biso   1.000  O
  O8       1.0000 0.33760  0.90550  0.83020  Biso   1.000  O
  O9       1.0000 0.31810  0.22620  0.35080  Biso   1.000  O
  O10      1.0000 0.81810  0.72620  0.35080  Biso   1.000  O
  O11      1.0000 0.18190  0.22620  0.14920  Biso   1.000  O
  O12      1.0000 0.68190  0.72620  0.14920  Biso   1.000  O
  O13      1.0000 0.68190  0.77380  0.64920  Biso   1.000  O
  O14      1.0000 0.18190  0.27380  0.64920  Biso   1.000  O
  O15      1.0000 0.81810  0.77380  0.85080  Biso   1.000  O
  O16      1.0000 0.31810  0.27380  0.85080  Biso   1.000  O
  O17      1.0000 0.25000  0.97640  0.25000  Biso   1.000  O
  O18      1.0000 0.75000  0.47640  0.25000  Biso   1.000  O
  O19      1.0000 0.75000  0.02360  0.75000  Biso   1.000  O
  O20      1.0000 0.25000  0.52360  0.75000  Biso   1.000  O
  N1       1.0000 0.15290  0.56190  0.29540  Biso   1.000  N
  N2       1.0000 0.65290  0.06190  0.29540  Biso   1.000  N
  N3       1.0000 0.34710  0.56190  0.20460  Biso   1.000  N
  N4       1.0000 0.84710  0.06190  0.20460  Biso   1.000  N
  N5       1.0000 0.84710  0.43810  0.70460  Biso   1.000  N
  N6       1.0000 0.34710  0.93810  0.70460  Biso   1.000  N
  N7       1.0000 0.65290  0.43810  0.79540  Biso   1.000  N
  N8       1.0000 0.15290  0.93810  0.79540  Biso   1.000  N
  C1       1.0000 0.34450  0.42150  0.36650  Biso   1.000  C
  C2       1.0000 0.84450  0.92150  0.36650  Biso   1.000  C
  C3       1.0000 0.15550  0.42150  0.13350  Biso   1.000  C
  C4       1.0000 0.65550  0.92150  0.13350  Biso   1.000  C
  C5       1.0000 0.65550  0.57850  0.63350  Biso   1.000  C
  C6       1.0000 0.15550  0.07850  0.63350  Biso   1.000  C
  C7       1.0000 0.84450  0.57850  0.86650  Biso   1.000  C
  C8       1.0000 0.34450  0.07850  0.86650  Biso   1.000  C
  C9       1.0000 0.38890  0.47130  0.43400  Biso   1.000  C
  C10      1.0000 0.88890  0.97130  0.43400  Biso   1.000  C
  C11      1.0000 0.11110  0.47130  0.06600  Biso   1.000  C
  C12      1.0000 0.61110  0.97130  0.06600  Biso   1.000  C
  C13      1.0000 0.61110  0.52870  0.56600  Biso   1.000  C
  C14      1.0000 0.11110  0.02870  0.56600  Biso   1.000  C
  C15      1.0000 0.88890  0.52870  0.93400  Biso   1.000  C
  C16      1.0000 0.38890  0.02870  0.93400  Biso   1.000  C
  C17      1.0000 0.36160  0.30410  0.47810  Biso   1.000  C
  C18      1.0000 0.86160  0.80410  0.47810  Biso   1.000  C
  C19      1.0000 0.13840  0.30410  0.02190  Biso   1.000  C
  C20      1.0000 0.63840  0.80410  0.02190  Biso   1.000  C
  C21      1.0000 0.63840  0.69590  0.52190  Biso   1.000  C
  C22      1.0000 0.13840  0.19590  0.52190  Biso   1.000  C
  C23      1.0000 0.86160  0.69590  0.97810  Biso   1.000  C
  C24      1.0000 0.36160  0.19590  0.97810  Biso   1.000  C
  C25      1.0000 0.26500  0.33360  0.47910  Biso   1.000  C
  C26      1.0000 0.76500  0.83360  0.47910  Biso   1.000  C
  C27      1.0000 0.23500  0.33360  0.02090  Biso   1.000  C
  C28      1.0000 0.73500  0.83360  0.02090  Biso   1.000  C
  C29      1.0000 0.73500  0.66640  0.52090  Biso   1.000  C
  C30      1.0000 0.23500  0.16640  0.52090  Biso   1.000  C
  C31      1.0000 0.76500  0.66640  0.97910  Biso   1.000  C
  C32      1.0000 0.26500  0.16640  0.97910  Biso   1.000  C
  C33      1.0000 0.09570  0.38880  0.28480  Biso   1.000  C
  C34      1.0000 0.59570  0.88880  0.28480  Biso   1.000  C
  C35      1.0000 0.40430  0.38880  0.21520  Biso   1.000  C
  C36      1.0000 0.90430  0.88880  0.21520  Biso   1.000  C
  C37      1.0000 0.90430  0.61120  0.71520  Biso   1.000  C
  C38      1.0000 0.40430  0.11120  0.71520  Biso   1.000  C
  C39      1.0000 0.59570  0.61120  0.78480  Biso   1.000  C
  C40      1.0000 0.09570  0.11120  0.78480  Biso   1.000  C
  C41      1.0000 0.02980  0.36170  0.31590  Biso   1.000  C
  C42      1.0000 0.52980  0.86170  0.31590  Biso   1.000  C
  C43      1.0000 0.47020  0.36170  0.18410  Biso   1.000  C
  C44      1.0000 0.97020  0.86170  0.18410  Biso   1.000  C
  C45      1.0000 0.97020  0.63830  0.68410  Biso   1.000  C
  C46      1.0000 0.47020  0.13830  0.68410  Biso   1.000  C
  C47      1.0000 0.52980  0.63830  0.81590  Biso   1.000  C
  C48      1.0000 0.02980  0.13830  0.81590  Biso   1.000  C
  C49      1.0000 0.02370  0.52280  0.35920  Biso   1.000  C
  C50      1.0000 0.52370  0.02280  0.35920  Biso   1.000  C
  C51      1.0000 0.47630  0.52280  0.14080  Biso   1.000  C
  C52      1.0000 0.97630  0.02280  0.14080  Biso   1.000  C
  C53      1.0000 0.97630  0.47720  0.64080  Biso   1.000  C
  C54      1.0000 0.47630  0.97720  0.64080  Biso   1.000  C
  C55      1.0000 0.52370  0.47720  0.85920  Biso   1.000  C
  C56      1.0000 0.02370  0.97720  0.85920  Biso   1.000  C
  C57      1.0000 0.08310  0.70100  0.37100  Biso   1.000  C
  C58      1.0000 0.58310  0.20100  0.37100  Biso   1.000  C
  C59      1.0000 0.41690  0.70100  0.12900  Biso   1.000  C
  C60      1.0000 0.91690  0.20100  0.12900  Biso   1.000  C
  C61      1.0000 0.91690  0.29900  0.62900  Biso   1.000  C
  C62      1.0000 0.41690  0.79900  0.62900  Biso   1.000  C
  C63      1.0000 0.58310  0.29900  0.87100  Biso   1.000  C
  C64      1.0000 0.08310  0.79900  0.87100  Biso   1.000  C
  C65      1.0000 0.14700  0.71600  0.33870  Biso   1.000  C
  C66      1.0000 0.64700  0.21600  0.33870  Biso   1.000  C
  C67      1.0000 0.35300  0.71600  0.16130  Biso   1.000  C
  C68      1.0000 0.85300  0.21600  0.16130  Biso   1.000  C
  C69      1.0000 0.85300  0.28400  0.66130  Biso   1.000  C
  C70      1.0000 0.35300  0.78400  0.66130  Biso   1.000  C
  C71      1.0000 0.64700  0.28400  0.83870  Biso   1.000  C
  C72      1.0000 0.14700  0.78400  0.83870  Biso   1.000  C
  H1       1.0000 0.37390  0.62800  0.44370  Biso   1.000  H
  H2       1.0000 0.87390  0.12800  0.44370  Biso   1.000  H
  H3       1.0000 0.12610  0.62800  0.05630  Biso   1.000  H
  H4       1.0000 0.62610  0.12800  0.05630  Biso   1.000  H
  H5       1.0000 0.62610  0.37200  0.55630  Biso   1.000  H
  H6       1.0000 0.12610  0.87200  0.55630  Biso   1.000  H
  H7       1.0000 0.87390  0.37200  0.94370  Biso   1.000  H
  H8       1.0000 0.37390  0.87200  0.94370  Biso   1.000  H
  H9       1.0000 0.45310  0.46370  0.44050  Biso   1.000  H
  H10      1.0000 0.95310  0.96370  0.44050  Biso   1.000  H
  H11      1.0000 0.04690  0.46370  0.05950  Biso   1.000  H
  H12      1.0000 0.54690  0.96370  0.05950  Biso   1.000  H
  H13      1.0000 0.54690  0.53630  0.55950  Biso   1.000  H
  H14      1.0000 0.04690  0.03630  0.55950  Biso   1.000  H
  H15      1.0000 0.95310  0.53630  0.94050  Biso   1.000  H
  H16      1.0000 0.45310  0.03630  0.94050  Biso   1.000  H
  H17      1.0000 0.39950  0.32800  0.51970  Biso   1.000  H
  H18      1.0000 0.89950  0.82800  0.51970  Biso   1.000  H
  H19      1.0000 0.10050  0.32800  0.98030  Biso   1.000  H
  H20      1.0000 0.60050  0.82800  0.98030  Biso   1.000  H
  H21      1.0000 0.60050  0.67200  0.48030  Biso   1.000  H
  H22      1.0000 0.10050  0.17200  0.48030  Biso   1.000  H
  H23      1.0000 0.89950  0.67200  0.01970  Biso   1.000  H
  H24      1.0000 0.39950  0.17200  0.01970  Biso   1.000  H
  H25      1.0000 0.37080  0.14630  0.46580  Biso   1.000  H
  H26      1.0000 0.87080  0.64630  0.46580  Biso   1.000  H
  H27      1.0000 0.12920  0.14630  0.03420  Biso   1.000  H
  H28      1.0000 0.62920  0.64630  0.03420  Biso   1.000  H
  H29      1.0000 0.62920  0.85370  0.53420  Biso   1.000  H
  H30      1.0000 0.12920  0.35370  0.53420  Biso   1.000  H
  H31      1.0000 0.87080  0.85370  0.96580  Biso   1.000  H
  H32      1.0000 0.37080  0.35370  0.96580  Biso   1.000  H
  H33      1.0000 0.25650  0.49050  0.49240  Biso   1.000  H
  H34      1.0000 0.75650  0.99050  0.49240  Biso   1.000  H
  H35      1.0000 0.24350  0.49050  0.00760  Biso   1.000  H
  H36      1.0000 0.74350  0.99050  0.00760  Biso   1.000  H
  H37      1.0000 0.74350  0.50950  0.50760  Biso   1.000  H
  H38      1.0000 0.24350  0.00950  0.50760  Biso   1.000  H
  H39      1.0000 0.75650  0.50950  0.99240  Biso   1.000  H
  H40      1.0000 0.25650  0.00950  0.99240  Biso   1.000  H
  H41      1.0000 0.22760  0.31480  0.43710  Biso   1.000  H
  H42      1.0000 0.72760  0.81480  0.43710  Biso   1.000  H
  H43      1.0000 0.27240  0.31480  0.06290  Biso   1.000  H
  H44      1.0000 0.77240  0.81480  0.06290  Biso   1.000  H
  H45      1.0000 0.77240  0.68520  0.56290  Biso   1.000  H
  H46      1.0000 0.27240  0.18520  0.56290  Biso   1.000  H
  H47      1.0000 0.72760  0.68520  0.93710  Biso   1.000  H
  H48      1.0000 0.22760  0.18520  0.93710  Biso   1.000  H
  H49      1.0000 0.09980  0.27920  0.25500  Biso   1.000  H
  H50      1.0000 0.59980  0.77920  0.25500  Biso   1.000  H
  H51      1.0000 0.40020  0.27920  0.24500  Biso   1.000  H
  H52      1.0000 0.90020  0.77920  0.24500  Biso   1.000  H
  H53      1.0000 0.90020  0.72080  0.74500  Biso   1.000  H
  H54      1.0000 0.40020  0.22080  0.74500  Biso   1.000  H
  H55      1.0000 0.59980  0.72080  0.75500  Biso   1.000  H
  H56      1.0000 0.09980  0.22080  0.75500  Biso   1.000  H
  H57      1.0000 0.99080  0.23640  0.30740  Biso   1.000  H
  H58      1.0000 0.49080  0.73640  0.30740  Biso   1.000  H
  H59      1.0000 0.50920  0.23640  0.19260  Biso   1.000  H
  H60      1.0000 0.00920  0.73640  0.19260  Biso   1.000  H
  H61      1.0000 0.00920  0.76360  0.69260  Biso   1.000  H
  H62      1.0000 0.50920  0.26360  0.69260  Biso   1.000  H
  H63      1.0000 0.49080  0.76360  0.80740  Biso   1.000  H
  H64      1.0000 0.99080  0.26360  0.80740  Biso   1.000  H
  H65      1.0000 0.97960  0.51130  0.38050  Biso   1.000  H
  H66      1.0000 0.47960  0.01130  0.38050  Biso   1.000  H
  H67      1.0000 0.52040  0.51130  0.11950  Biso   1.000  H
  H68      1.0000 0.02040  0.01130  0.11950  Biso   1.000  H
  H69      1.0000 0.02040  0.48870  0.61950  Biso   1.000  H
  H70      1.0000 0.52040  0.98870  0.61950  Biso   1.000  H
  H71      1.0000 0.47960  0.48870  0.88050  Biso   1.000  H
  H72      1.0000 0.97960  0.98870  0.88050  Biso   1.000  H
  H73      1.0000 0.08030  0.81210  0.40080  Biso   1.000  H
  H74      1.0000 0.58030  0.31210  0.40080  Biso   1.000  H
  H75      1.0000 0.41970  0.81210  0.09920  Biso   1.000  H
  H76      1.0000 0.91970  0.31210  0.09920  Biso   1.000  H
  H77      1.0000 0.91970  0.18790  0.59920  Biso   1.000  H
  H78      1.0000 0.41970  0.68790  0.59920  Biso   1.000  H
  H79      1.0000 0.58030  0.18790  0.90080  Biso   1.000  H
  H80      1.0000 0.08030  0.68790  0.90080  Biso   1.000  H
  H81      1.0000 0.18760  0.83800  0.34730  Biso   1.000  H
  H82      1.0000 0.68760  0.33800  0.34730  Biso   1.000  H
  H83      1.0000 0.31240  0.83800  0.15270  Biso   1.000  H
  H84      1.0000 0.81240  0.33800  0.15270  Biso   1.000  H
  H85      1.0000 0.81240  0.16200  0.65270  Biso   1.000  H
  H86      1.0000 0.31240  0.66200  0.65270  Biso   1.000  H
  H87      1.0000 0.68760  0.16200  0.84730  Biso   1.000  H
  H88      1.0000 0.18760  0.66200  0.84730  Biso   1.000  H
