data_image0
_cell_length_a       20.99
_cell_length_b       11.813
_cell_length_c       14.492
_cell_angle_alpha    90
_cell_angle_beta     90
_cell_angle_gamma    90

_symmetry_space_group_name_H-M    "P 1"
_symmetry_int_tables_number       1

loop_
  _symmetry_equiv_pos_as_xyz
  'x, y, z'

loop_
  _atom_site_label
  _atom_site_occupancy
  _atom_site_fract_x
  _atom_site_fract_y
  _atom_site_fract_z
  _atom_site_thermal_displace_type
  _atom_site_B_iso_or_equiv
  _atom_site_type_symbol
  Cu1      1.0000 0.14880  0.78730  0.99260  Biso   1.000  Cu
  Cu2      1.0000 0.85120  0.21270  0.99260  Biso   1.000  Cu
  Cu3      1.0000 0.35120  0.28730  0.00740  Biso   1.000  Cu
  Cu4      1.0000 0.64880  0.71270  0.00740  Biso   1.000  Cu
  N1       1.0000 0.21600  0.78400  0.89000  Biso   1.000  N
  N2       1.0000 0.78400  0.21600  0.89000  Biso   1.000  N
  N3       1.0000 0.28400  0.28400  0.11000  Biso   1.000  N
  N4       1.0000 0.71600  0.71600  0.11000  Biso   1.000  N
  N5       1.0000 0.30200  0.68600  0.82100  Biso   1.000  N
  N6       1.0000 0.69800  0.31400  0.82100  Biso   1.000  N
  N7       1.0000 0.19800  0.18600  0.17900  Biso   1.000  N
  N8       1.0000 0.80200  0.81400  0.17900  Biso   1.000  N
  N9       1.0000 0.50900  0.80900  0.82600  Biso   1.000  N
  N10      1.0000 0.49100  0.19100  0.82600  Biso   1.000  N
  N11      1.0000 0.99100  0.30900  0.17400  Biso   1.000  N
  N12      1.0000 0.00900  0.69100  0.17400  Biso   1.000  N
  N13      1.0000 0.55900  0.85600  0.78400  Biso   1.000  N
  N14      1.0000 0.44100  0.14400  0.78400  Biso   1.000  N
  N15      1.0000 0.94100  0.35600  0.21600  Biso   1.000  N
  N16      1.0000 0.05900  0.64400  0.21600  Biso   1.000  N
  N17      1.0000 0.58900  0.75400  0.90500  Biso   1.000  N
  N18      1.0000 0.41100  0.24600  0.90500  Biso   1.000  N
  N19      1.0000 0.91100  0.25400  0.09500  Biso   1.000  N
  N20      1.0000 0.08900  0.74600  0.09500  Biso   1.000  N
  N21      1.0000 0.08000  0.78100  0.89500  Biso   1.000  N
  N22      1.0000 0.92000  0.21900  0.89500  Biso   1.000  N
  N23      1.0000 0.42000  0.28100  0.10500  Biso   1.000  N
  N24      1.0000 0.58000  0.71900  0.10500  Biso   1.000  N
  N25      1.0000 0.98600  0.85900  0.82900  Biso   1.000  N
  N26      1.0000 0.01400  0.14100  0.82900  Biso   1.000  N
  N27      1.0000 0.51400  0.35900  0.17100  Biso   1.000  N
  N28      1.0000 0.48600  0.64100  0.17100  Biso   1.000  N
  N29      1.0000 0.80300  0.64800  0.84700  Biso   1.000  N
  N30      1.0000 0.19700  0.35200  0.84700  Biso   1.000  N
  N31      1.0000 0.69700  0.14800  0.15300  Biso   1.000  N
  N32      1.0000 0.30300  0.85200  0.15300  Biso   1.000  N
  N33      1.0000 0.76400  0.56900  0.80800  Biso   1.000  N
  N34      1.0000 0.23600  0.43100  0.80800  Biso   1.000  N
  N35      1.0000 0.73600  0.06900  0.19200  Biso   1.000  N
  N36      1.0000 0.26400  0.93100  0.19200  Biso   1.000  N
  N37      1.0000 0.71500  0.66900  0.91700  Biso   1.000  N
  N38      1.0000 0.28500  0.33100  0.91700  Biso   1.000  N
  N39      1.0000 0.78500  0.16900  0.08300  Biso   1.000  N
  N40      1.0000 0.21500  0.83100  0.08300  Biso   1.000  N
  N41      1.0000 0.16200  0.51300  0.02500  Biso   1.000  N
  N42      1.0000 0.83800  0.48700  0.02500  Biso   1.000  N
  N43      1.0000 0.33800  0.01300  0.97500  Biso   1.000  N
  N44      1.0000 0.66200  0.98700  0.97500  Biso   1.000  N
  N45      1.0000 0.10900  0.06800  0.00600  Biso   1.000  N
  N46      1.0000 0.89100  0.93200  0.00600  Biso   1.000  N
  N47      1.0000 0.39100  0.56800  0.99400  Biso   1.000  N
  N48      1.0000 0.60900  0.43200  0.99400  Biso   1.000  N
  F1       1.0000 0.28000  0.94800  0.70800  Biso   1.000  F
  F2       1.0000 0.72000  0.05200  0.70800  Biso   1.000  F
  F3       1.0000 0.22000  0.44800  0.29200  Biso   1.000  F
  F4       1.0000 0.78000  0.55200  0.29200  Biso   1.000  F
  F5       1.0000 0.44100  0.92200  0.59500  Biso   1.000  F
  F6       1.0000 0.55900  0.07800  0.59500  Biso   1.000  F
  F7       1.0000 0.05900  0.42200  0.40500  Biso   1.000  F
  F8       1.0000 0.94100  0.57800  0.40500  Biso   1.000  F
  F9       1.0000 0.59600  0.74700  0.42100  Biso   1.000  F
  F10      1.0000 0.40400  0.25300  0.42100  Biso   1.000  F
  F11      1.0000 0.90400  0.24700  0.57900  Biso   1.000  F
  F12      1.0000 0.09600  0.75300  0.57900  Biso   1.000  F
  F13      1.0000 0.02900  0.60900  0.71000  Biso   1.000  F
  F14      1.0000 0.97100  0.39100  0.71000  Biso   1.000  F
  F15      1.0000 0.47100  0.10900  0.29000  Biso   1.000  F
  F16      1.0000 0.52900  0.89100  0.29000  Biso   1.000  F
  F17      1.0000 0.88430  0.55900  0.62700  Biso   1.000  F
  F18      1.0000 0.11570  0.44100  0.62700  Biso   1.000  F
  F19      1.0000 0.61570  0.05900  0.37300  Biso   1.000  F
  F20      1.0000 0.38430  0.94100  0.37300  Biso   1.000  F
  F21      1.0000 0.70100  0.60600  0.45900  Biso   1.000  F
  F22      1.0000 0.29900  0.39400  0.45900  Biso   1.000  F
  F23      1.0000 0.79900  0.10600  0.54100  Biso   1.000  F
  F24      1.0000 0.20100  0.89400  0.54100  Biso   1.000  F
  O1       1.0000 0.43500  0.62600  0.76000  Biso   1.000  O
  O2       1.0000 0.56500  0.37400  0.76000  Biso   1.000  O
  O3       1.0000 0.06500  0.12600  0.24000  Biso   1.000  O
  O4       1.0000 0.93500  0.87400  0.24000  Biso   1.000  O
  H1       1.0000 0.41050  0.61600  0.80470  Biso   1.000  H
  H2       1.0000 0.58950  0.38400  0.80470  Biso   1.000  H
  H3       1.0000 0.08950  0.11600  0.19530  Biso   1.000  H
  H4       1.0000 0.91050  0.88400  0.19530  Biso   1.000  H
  O5       1.0000 0.84000  0.85800  0.77400  Biso   1.000  O
  O6       1.0000 0.16000  0.14200  0.77400  Biso   1.000  O
  O7       1.0000 0.66000  0.35800  0.22600  Biso   1.000  O
  O8       1.0000 0.34000  0.64200  0.22600  Biso   1.000  O
  H5       1.0000 0.85280  0.86530  0.82670  Biso   1.000  H
  H6       1.0000 0.14720  0.13470  0.82670  Biso   1.000  H
  H7       1.0000 0.64720  0.36530  0.17330  Biso   1.000  H
  H8       1.0000 0.35280  0.63470  0.17330  Biso   1.000  H
  O9       1.0000 0.14600  0.42400  0.04900  Biso   1.000  O
  O10      1.0000 0.85400  0.57600  0.04900  Biso   1.000  O
  O11      1.0000 0.35400  0.92400  0.95100  Biso   1.000  O
  O12      1.0000 0.64600  0.07600  0.95100  Biso   1.000  O
  O13      1.0000 0.21500  0.54800  0.06300  Biso   1.000  O
  O14      1.0000 0.78500  0.45200  0.06300  Biso   1.000  O
  O15      1.0000 0.28500  0.04800  0.93700  Biso   1.000  O
  O16      1.0000 0.71500  0.95200  0.93700  Biso   1.000  O
  O17      1.0000 0.14400  0.57700  0.96900  Biso   1.000  O
  O18      1.0000 0.85600  0.42300  0.96900  Biso   1.000  O
  O19      1.0000 0.35600  0.07700  0.03100  Biso   1.000  O
  O20      1.0000 0.64400  0.92300  0.03100  Biso   1.000  O
  O21      1.0000 0.14100  0.01400  0.94900  Biso   1.000  O
  O22      1.0000 0.85900  0.98600  0.94900  Biso   1.000  O
  O23      1.0000 0.35900  0.51400  0.05100  Biso   1.000  O
  O24      1.0000 0.64100  0.48600  0.05100  Biso   1.000  O
  O25      1.0000 0.07900  0.01800  0.06400  Biso   1.000  O
  O26      1.0000 0.92100  0.98200  0.06400  Biso   1.000  O
  O27      1.0000 0.42100  0.51800  0.93600  Biso   1.000  O
  O28      1.0000 0.57900  0.48200  0.93600  Biso   1.000  O
  O29      1.0000 0.10700  0.17300  0.00000  Biso   1.000  O
  O30      1.0000 0.89300  0.82700  0.00000  Biso   1.000  O
  O31      1.0000 0.39300  0.67300  0.00000  Biso   1.000  O
  O32      1.0000 0.60700  0.32700  0.00000  Biso   1.000  O
  C1       1.0000 0.60600  0.82000  0.83300  Biso   1.000  C
  C2       1.0000 0.39400  0.18000  0.83300  Biso   1.000  C
  C3       1.0000 0.89400  0.32000  0.16700  Biso   1.000  C
  C4       1.0000 0.10600  0.68000  0.16700  Biso   1.000  C
  H9       1.0000 0.64820  0.83720  0.81930  Biso   1.000  H
  H10      1.0000 0.35180  0.16280  0.81930  Biso   1.000  H
  H11      1.0000 0.85180  0.33720  0.18070  Biso   1.000  H
  H12      1.0000 0.14820  0.66280  0.18070  Biso   1.000  H
  C5       1.0000 0.52800  0.75000  0.89700  Biso   1.000  C
  C6       1.0000 0.47200  0.25000  0.89700  Biso   1.000  C
  C7       1.0000 0.97200  0.25000  0.10300  Biso   1.000  C
  C8       1.0000 0.02800  0.75000  0.10300  Biso   1.000  C
  H13      1.0000 0.50060  0.70910  0.93530  Biso   1.000  H
  H14      1.0000 0.49940  0.29090  0.93530  Biso   1.000  H
  H15      1.0000 0.99940  0.20910  0.06470  Biso   1.000  H
  H16      1.0000 0.00060  0.79090  0.06470  Biso   1.000  H
  C9       1.0000 0.44500  0.82300  0.79100  Biso   1.000  C
  C10      1.0000 0.55500  0.17700  0.79100  Biso   1.000  C
  C11      1.0000 0.05500  0.32300  0.20900  Biso   1.000  C
  C12      1.0000 0.94500  0.67700  0.20900  Biso   1.000  C
  H17      1.0000 0.44060  0.89720  0.76310  Biso   1.000  H
  H18      1.0000 0.55940  0.10280  0.76310  Biso   1.000  H
  H19      1.0000 0.05940  0.39720  0.23690  Biso   1.000  H
  H20      1.0000 0.94060  0.60280  0.23690  Biso   1.000  H
  H21      1.0000 0.41470  0.81820  0.84150  Biso   1.000  H
  H22      1.0000 0.58530  0.18180  0.84150  Biso   1.000  H
  H23      1.0000 0.08530  0.31820  0.15850  Biso   1.000  H
  H24      1.0000 0.91470  0.68180  0.15850  Biso   1.000  H
  C13      1.0000 0.42800  0.73500  0.72000  Biso   1.000  C
  C14      1.0000 0.57200  0.26500  0.72000  Biso   1.000  C
  C15      1.0000 0.07200  0.23500  0.28000  Biso   1.000  C
  C16      1.0000 0.92800  0.76500  0.28000  Biso   1.000  C
  C17      1.0000 0.35800  0.74900  0.68500  Biso   1.000  C
  C18      1.0000 0.64200  0.25100  0.68500  Biso   1.000  C
  C19      1.0000 0.14200  0.24900  0.31500  Biso   1.000  C
  C20      1.0000 0.85800  0.75100  0.31500  Biso   1.000  C
  H25      1.0000 0.35770  0.81710  0.64660  Biso   1.000  H
  H26      1.0000 0.64230  0.18290  0.64660  Biso   1.000  H
  H27      1.0000 0.14230  0.31710  0.35340  Biso   1.000  H
  H28      1.0000 0.85770  0.68290  0.35340  Biso   1.000  H
  C21      1.0000 0.33800  0.65200  0.62500  Biso   1.000  C
  C22      1.0000 0.66200  0.34800  0.62500  Biso   1.000  C
  C23      1.0000 0.16200  0.15200  0.37500  Biso   1.000  C
  C24      1.0000 0.83800  0.84800  0.37500  Biso   1.000  C
  H29      1.0000 0.29490  0.66450  0.60490  Biso   1.000  H
  H30      1.0000 0.70510  0.33550  0.60490  Biso   1.000  H
  H31      1.0000 0.20510  0.16450  0.39510  Biso   1.000  H
  H32      1.0000 0.79490  0.83550  0.39510  Biso   1.000  H
  H33      1.0000 0.33980  0.58290  0.66000  Biso   1.000  H
  H34      1.0000 0.66020  0.41710  0.66000  Biso   1.000  H
  H35      1.0000 0.16020  0.08290  0.34000  Biso   1.000  H
  H36      1.0000 0.83980  0.91710  0.34000  Biso   1.000  H
  H37      1.0000 0.36550  0.64680  0.57270  Biso   1.000  H
  H38      1.0000 0.63450  0.35320  0.57270  Biso   1.000  H
  H39      1.0000 0.13450  0.14680  0.42730  Biso   1.000  H
  H40      1.0000 0.86550  0.85320  0.42730  Biso   1.000  H
  C25      1.0000 0.31000  0.76600  0.76000  Biso   1.000  C
  C26      1.0000 0.69000  0.23400  0.76000  Biso   1.000  C
  C27      1.0000 0.19000  0.26600  0.24000  Biso   1.000  C
  C28      1.0000 0.81000  0.73400  0.24000  Biso   1.000  C
  C29      1.0000 0.25700  0.69800  0.88300  Biso   1.000  C
  C30      1.0000 0.74300  0.30200  0.88300  Biso   1.000  C
  C31      1.0000 0.24300  0.19800  0.11700  Biso   1.000  C
  C32      1.0000 0.75700  0.80200  0.11700  Biso   1.000  C
  H41      1.0000 0.25240  0.64050  0.92620  Biso   1.000  H
  H42      1.0000 0.74760  0.35950  0.92620  Biso   1.000  H
  H43      1.0000 0.24760  0.14050  0.07380  Biso   1.000  H
  H44      1.0000 0.75240  0.85950  0.07380  Biso   1.000  H
  C33      1.0000 0.22500  0.86700  0.83000  Biso   1.000  C
  C34      1.0000 0.77500  0.13300  0.83000  Biso   1.000  C
  C35      1.0000 0.27500  0.36700  0.17000  Biso   1.000  C
  C36      1.0000 0.72500  0.63300  0.17000  Biso   1.000  C
  H45      1.0000 0.19880  0.93020  0.83250  Biso   1.000  H
  H46      1.0000 0.80120  0.06980  0.83250  Biso   1.000  H
  H47      1.0000 0.30120  0.43020  0.16750  Biso   1.000  H
  H48      1.0000 0.69880  0.56980  0.16750  Biso   1.000  H
  C37      1.0000 0.27100  0.86100  0.76600  Biso   1.000  C
  C38      1.0000 0.72900  0.13900  0.76600  Biso   1.000  C
  C39      1.0000 0.22900  0.36100  0.23400  Biso   1.000  C
  C40      1.0000 0.77100  0.63900  0.23400  Biso   1.000  C
  C41      1.0000 0.47400  0.73800  0.64000  Biso   1.000  C
  C42      1.0000 0.52600  0.26200  0.64000  Biso   1.000  C
  C43      1.0000 0.02600  0.23800  0.36000  Biso   1.000  C
  C44      1.0000 0.97400  0.76200  0.36000  Biso   1.000  C
  C45      1.0000 0.47900  0.82900  0.58100  Biso   1.000  C
  C46      1.0000 0.52100  0.17100  0.58100  Biso   1.000  C
  C47      1.0000 0.02100  0.32900  0.41900  Biso   1.000  C
  C48      1.0000 0.97900  0.67100  0.41900  Biso   1.000  C
  C49      1.0000 0.51800  0.83500  0.50800  Biso   1.000  C
  C50      1.0000 0.48200  0.16500  0.50800  Biso   1.000  C
  C51      1.0000 0.98200  0.33500  0.49200  Biso   1.000  C
  C52      1.0000 0.01800  0.66500  0.49200  Biso   1.000  C
  H49      1.0000 0.51980  0.89850  0.47020  Biso   1.000  H
  H50      1.0000 0.48020  0.10150  0.47020  Biso   1.000  H
  H51      1.0000 0.98020  0.39850  0.52980  Biso   1.000  H
  H52      1.0000 0.01980  0.60150  0.52980  Biso   1.000  H
  C53      1.0000 0.55700  0.74300  0.49300  Biso   1.000  C
  C54      1.0000 0.44300  0.25700  0.49300  Biso   1.000  C
  C55      1.0000 0.94300  0.24300  0.50700  Biso   1.000  C
  C56      1.0000 0.05700  0.75700  0.50700  Biso   1.000  C
  C57      1.0000 0.55800  0.65200  0.55100  Biso   1.000  C
  C58      1.0000 0.44200  0.34800  0.55100  Biso   1.000  C
  C59      1.0000 0.94200  0.15200  0.44900  Biso   1.000  C
  C60      1.0000 0.05800  0.84800  0.44900  Biso   1.000  C
  H53      1.0000 0.58580  0.59240  0.54040  Biso   1.000  H
  H54      1.0000 0.41420  0.40760  0.54040  Biso   1.000  H
  H55      1.0000 0.91420  0.09240  0.45960  Biso   1.000  H
  H56      1.0000 0.08580  0.90760  0.45960  Biso   1.000  H
  C61      1.0000 0.51600  0.64900  0.62400  Biso   1.000  C
  C62      1.0000 0.48400  0.35100  0.62400  Biso   1.000  C
  C63      1.0000 0.98400  0.14900  0.37600  Biso   1.000  C
  C64      1.0000 0.01600  0.85100  0.37600  Biso   1.000  C
  H57      1.0000 0.51570  0.58690  0.66380  Biso   1.000  H
  H58      1.0000 0.48430  0.41310  0.66380  Biso   1.000  H
  H59      1.0000 0.98430  0.08690  0.33620  Biso   1.000  H
  H60      1.0000 0.01570  0.91310  0.33620  Biso   1.000  H
  C65      1.0000 0.71200  0.58700  0.85400  Biso   1.000  C
  C66      1.0000 0.28800  0.41300  0.85400  Biso   1.000  C
  C67      1.0000 0.78800  0.08700  0.14600  Biso   1.000  C
  C68      1.0000 0.21200  0.91300  0.14600  Biso   1.000  C
  H61      1.0000 0.67450  0.54640  0.84310  Biso   1.000  H
  H62      1.0000 0.32550  0.45360  0.84310  Biso   1.000  H
  H63      1.0000 0.82550  0.04640  0.15690  Biso   1.000  H
  H64      1.0000 0.17450  0.95360  0.15690  Biso   1.000  H
  C69      1.0000 0.77400  0.70500  0.91000  Biso   1.000  C
  C70      1.0000 0.22600  0.29500  0.91000  Biso   1.000  C
  C71      1.0000 0.72600  0.20500  0.09000  Biso   1.000  C
  C72      1.0000 0.27400  0.79500  0.09000  Biso   1.000  C
  H65      1.0000 0.79210  0.76240  0.94500  Biso   1.000  H
  H66      1.0000 0.20790  0.23760  0.94500  Biso   1.000  H
  H67      1.0000 0.70790  0.26240  0.05500  Biso   1.000  H
  H68      1.0000 0.29210  0.73760  0.05500  Biso   1.000  H
  C73      1.0000 0.86800  0.66700  0.81100  Biso   1.000  C
  C74      1.0000 0.13200  0.33300  0.81100  Biso   1.000  C
  C75      1.0000 0.63200  0.16700  0.18900  Biso   1.000  C
  C76      1.0000 0.36800  0.83300  0.18900  Biso   1.000  C
  H69      1.0000 0.88430  0.59650  0.78610  Biso   1.000  H
  H70      1.0000 0.11570  0.40350  0.78610  Biso   1.000  H
  H71      1.0000 0.61570  0.09650  0.21390  Biso   1.000  H
  H72      1.0000 0.38430  0.90350  0.21390  Biso   1.000  H
  H73      1.0000 0.89530  0.69100  0.86080  Biso   1.000  H
  H74      1.0000 0.10470  0.30900  0.86080  Biso   1.000  H
  H75      1.0000 0.60470  0.19100  0.13920  Biso   1.000  H
  H76      1.0000 0.39530  0.80900  0.13920  Biso   1.000  H
  C77      1.0000 0.86600  0.75700  0.73500  Biso   1.000  C
  C78      1.0000 0.13400  0.24300  0.73500  Biso   1.000  C
  C79      1.0000 0.63400  0.25700  0.26500  Biso   1.000  C
  C80      1.0000 0.36600  0.74300  0.26500  Biso   1.000  C
  C81      1.0000 0.93400  0.78000  0.69700  Biso   1.000  C
  C82      1.0000 0.06600  0.22000  0.69700  Biso   1.000  C
  C83      1.0000 0.56600  0.28000  0.30300  Biso   1.000  C
  C84      1.0000 0.43400  0.72000  0.30300  Biso   1.000  C
  H77      1.0000 0.94290  0.71860  0.65290  Biso   1.000  H
  H78      1.0000 0.05710  0.28140  0.65290  Biso   1.000  H
  H79      1.0000 0.55710  0.21860  0.34710  Biso   1.000  H
  H80      1.0000 0.44290  0.78140  0.34710  Biso   1.000  H
  C85      1.0000 0.93500  0.88900  0.64200  Biso   1.000  C
  C86      1.0000 0.06500  0.11100  0.64200  Biso   1.000  C
  C87      1.0000 0.56500  0.38900  0.35800  Biso   1.000  C
  C88      1.0000 0.43500  0.61100  0.35800  Biso   1.000  C
  H81      1.0000 0.97690  0.90060  0.61740  Biso   1.000  H
  H82      1.0000 0.02310  0.09940  0.61740  Biso   1.000  H
  H83      1.0000 0.52310  0.40060  0.38260  Biso   1.000  H
  H84      1.0000 0.47690  0.59940  0.38260  Biso   1.000  H
  H85      1.0000 0.92380  0.95100  0.68140  Biso   1.000  H
  H86      1.0000 0.07620  0.04900  0.68140  Biso   1.000  H
  H87      1.0000 0.57620  0.45100  0.31860  Biso   1.000  H
  H88      1.0000 0.42380  0.54900  0.31860  Biso   1.000  H
  H89      1.0000 0.90490  0.88430  0.59210  Biso   1.000  H
  H90      1.0000 0.09510  0.11570  0.59210  Biso   1.000  H
  H91      1.0000 0.59510  0.38430  0.40790  Biso   1.000  H
  H92      1.0000 0.40490  0.61570  0.40790  Biso   1.000  H
  C89      1.0000 0.98400  0.77700  0.76600  Biso   1.000  C
  C90      1.0000 0.01600  0.22300  0.76600  Biso   1.000  C
  C91      1.0000 0.51600  0.27700  0.23400  Biso   1.000  C
  C92      1.0000 0.48400  0.72300  0.23400  Biso   1.000  C
  C93      1.0000 0.03300  0.85700  0.89200  Biso   1.000  C
  C94      1.0000 0.96700  0.14300  0.89200  Biso   1.000  C
  C95      1.0000 0.46700  0.35700  0.10800  Biso   1.000  C
  C96      1.0000 0.53300  0.64300  0.10800  Biso   1.000  C
  H93      1.0000 0.03260  0.91240  0.93700  Biso   1.000  H
  H94      1.0000 0.96740  0.08760  0.93700  Biso   1.000  H
  H95      1.0000 0.46740  0.41240  0.06300  Biso   1.000  H
  H96      1.0000 0.53260  0.58760  0.06300  Biso   1.000  H
  C97      1.0000 0.07800  0.70100  0.83300  Biso   1.000  C
  C98      1.0000 0.92200  0.29900  0.83300  Biso   1.000  C
  C99      1.0000 0.42200  0.20100  0.16700  Biso   1.000  C
  C100     1.0000 0.57800  0.79900  0.16700  Biso   1.000  C
  H97      1.0000 0.10980  0.64610  0.83230  Biso   1.000  H
  H98      1.0000 0.89020  0.35390  0.83230  Biso   1.000  H
  H99      1.0000 0.39020  0.14610  0.16770  Biso   1.000  H
  H100     1.0000 0.60980  0.85390  0.16770  Biso   1.000  H
  C101     1.0000 0.03000  0.69500  0.77000  Biso   1.000  C
  C102     1.0000 0.97000  0.30500  0.77000  Biso   1.000  C
  C103     1.0000 0.47000  0.19500  0.23000  Biso   1.000  C
  C104     1.0000 0.53000  0.80500  0.23000  Biso   1.000  C
  C105     1.0000 0.82200  0.72100  0.65800  Biso   1.000  C
  C106     1.0000 0.17800  0.27900  0.65800  Biso   1.000  C
  C107     1.0000 0.67800  0.22100  0.34200  Biso   1.000  C
  C108     1.0000 0.32200  0.77900  0.34200  Biso   1.000  C
  C109     1.0000 0.83300  0.62300  0.61100  Biso   1.000  C
  C110     1.0000 0.16700  0.37700  0.61100  Biso   1.000  C
  C111     1.0000 0.66700  0.12300  0.38900  Biso   1.000  C
  C112     1.0000 0.33300  0.87700  0.38900  Biso   1.000  C
  C113     1.0000 0.79200  0.58400  0.54100  Biso   1.000  C
  C114     1.0000 0.20800  0.41600  0.54100  Biso   1.000  C
  C115     1.0000 0.70800  0.08400  0.45900  Biso   1.000  C
  C116     1.0000 0.29200  0.91600  0.45900  Biso   1.000  C
  H101     1.0000 0.80180  0.51810  0.50850  Biso   1.000  H
  H102     1.0000 0.19820  0.48190  0.50850  Biso   1.000  H
  H103     1.0000 0.69820  0.01810  0.49150  Biso   1.000  H
  H104     1.0000 0.30180  0.98190  0.49150  Biso   1.000  H
  C117     1.0000 0.73900  0.64500  0.52400  Biso   1.000  C
  C118     1.0000 0.26100  0.35500  0.52400  Biso   1.000  C
  C119     1.0000 0.76100  0.14500  0.47600  Biso   1.000  C
  C120     1.0000 0.23900  0.85500  0.47600  Biso   1.000  C
  C121     1.0000 0.72600  0.74200  0.57100  Biso   1.000  C
  C122     1.0000 0.27400  0.25800  0.57100  Biso   1.000  C
  C123     1.0000 0.77400  0.24200  0.42900  Biso   1.000  C
  C124     1.0000 0.22600  0.75800  0.42900  Biso   1.000  C
  H105     1.0000 0.68890  0.78280  0.55810  Biso   1.000  H
  H106     1.0000 0.31110  0.21720  0.55810  Biso   1.000  H
  H107     1.0000 0.81110  0.28280  0.44190  Biso   1.000  H
  H108     1.0000 0.18890  0.71720  0.44190  Biso   1.000  H
  C125     1.0000 0.76800  0.77900  0.63700  Biso   1.000  C
  C126     1.0000 0.23200  0.22100  0.63700  Biso   1.000  C
  C127     1.0000 0.73200  0.27900  0.36300  Biso   1.000  C
  C128     1.0000 0.26800  0.72100  0.36300  Biso   1.000  C
  H109     1.0000 0.75930  0.84650  0.66810  Biso   1.000  H
  H110     1.0000 0.24070  0.15350  0.66810  Biso   1.000  H
  H111     1.0000 0.74070  0.34650  0.33190  Biso   1.000  H
  H112     1.0000 0.25930  0.65350  0.33190  Biso   1.000  H
