data_image0
_cell_length_a       6.455
_cell_length_b       20.5826
_cell_length_c       37.604
_cell_angle_alpha    90
_cell_angle_beta     90
_cell_angle_gamma    90

_symmetry_space_group_name_H-M    "P 1"
_symmetry_int_tables_number       1

loop_
  _symmetry_equiv_pos_as_xyz
  'x, y, z'

loop_
  _atom_site_label
  _atom_site_occupancy
  _atom_site_fract_x
  _atom_site_fract_y
  _atom_site_fract_z
  _atom_site_thermal_displace_type
  _atom_site_B_iso_or_equiv
  _atom_site_type_symbol
  Cu1      1.0000 0.92070  0.14007  0.93556  Biso   1.000  Cu
  Cu2      1.0000 0.57930  0.85993  0.43556  Biso   1.000  Cu
  Cu3      1.0000 0.07930  0.64007  0.56444  Biso   1.000  Cu
  Cu4      1.0000 0.42070  0.35993  0.06444  Biso   1.000  Cu
  Cu5      1.0000 0.70228  0.64217  0.93521  Biso   1.000  Cu
  Cu6      1.0000 0.79772  0.35783  0.43521  Biso   1.000  Cu
  Cu7      1.0000 0.29772  0.14217  0.56479  Biso   1.000  Cu
  Cu8      1.0000 0.20228  0.85783  0.06479  Biso   1.000  Cu
  O1       1.0000 0.62240  0.34950  0.85467  Biso   1.000  O
  O2       1.0000 0.87760  0.65050  0.35467  Biso   1.000  O
  O3       1.0000 0.37760  0.84950  0.64533  Biso   1.000  O
  O4       1.0000 0.12240  0.15050  0.14533  Biso   1.000  O
  H1       1.0000 0.64820  0.36390  0.87450  Biso   1.000  H
  H2       1.0000 0.85180  0.63610  0.37450  Biso   1.000  H
  H3       1.0000 0.35180  0.86390  0.62550  Biso   1.000  H
  H4       1.0000 0.14820  0.13610  0.12550  Biso   1.000  H
  O5       1.0000 0.09640  0.93730  0.87084  Biso   1.000  O
  O6       1.0000 0.40360  0.06270  0.37084  Biso   1.000  O
  O7       1.0000 0.90360  0.43730  0.62916  Biso   1.000  O
  O8       1.0000 0.59640  0.56270  0.12916  Biso   1.000  O
  H5       1.0000 0.09770  0.97620  0.87560  Biso   1.000  H
  H6       1.0000 0.40230  0.02380  0.37560  Biso   1.000  H
  H7       1.0000 0.90230  0.47620  0.62440  Biso   1.000  H
  H8       1.0000 0.59770  0.52380  0.12440  Biso   1.000  H
  O9       1.0000 0.12130  0.18210  0.96565  Biso   1.000  O
  O10      1.0000 0.37870  0.81790  0.46565  Biso   1.000  O
  O11      1.0000 0.87870  0.68210  0.53435  Biso   1.000  O
  O12      1.0000 0.62130  0.31790  0.03435  Biso   1.000  O
  H9       1.0000 0.08420  0.21330  0.97900  Biso   1.000  H
  H10      1.0000 0.41580  0.78670  0.47900  Biso   1.000  H
  H11      1.0000 0.91580  0.71330  0.52100  Biso   1.000  H
  H12      1.0000 0.58420  0.28670  0.02100  Biso   1.000  H
  H13      1.0000 0.23680  0.17910  0.97640  Biso   1.000  H
  H14      1.0000 0.26320  0.82090  0.47640  Biso   1.000  H
  H15      1.0000 0.76320  0.67910  0.52360  Biso   1.000  H
  H16      1.0000 0.73680  0.32090  0.02360  Biso   1.000  H
  O13      1.0000 0.63650  0.20360  0.95190  Biso   1.000  O
  O14      1.0000 0.86350  0.79640  0.45190  Biso   1.000  O
  O15      1.0000 0.36350  0.70360  0.54810  Biso   1.000  O
  O16      1.0000 0.13650  0.29640  0.04810  Biso   1.000  O
  H17      1.0000 0.61090  0.23900  0.94110  Biso   1.000  H
  H18      1.0000 0.88910  0.76100  0.44110  Biso   1.000  H
  H19      1.0000 0.38910  0.73900  0.55890  Biso   1.000  H
  H20      1.0000 0.11090  0.26100  0.05890  Biso   1.000  H
  H21      1.0000 0.55860  0.19120  0.96880  Biso   1.000  H
  H22      1.0000 0.94140  0.80880  0.46880  Biso   1.000  H
  H23      1.0000 0.44140  0.69120  0.53120  Biso   1.000  H
  H24      1.0000 0.05860  0.30880  0.03120  Biso   1.000  H
  O17      1.0000 0.85580  0.07940  0.97380  Biso   1.000  O
  O18      1.0000 0.64420  0.92060  0.47380  Biso   1.000  O
  O19      1.0000 0.14420  0.57940  0.52620  Biso   1.000  O
  O20      1.0000 0.35580  0.42060  0.02620  Biso   1.000  O
  H25      1.0000 0.75250  0.08630  0.98730  Biso   1.000  H
  H26      1.0000 0.74750  0.91370  0.48730  Biso   1.000  H
  H27      1.0000 0.24750  0.58630  0.51270  Biso   1.000  H
  H28      1.0000 0.25250  0.41370  0.01270  Biso   1.000  H
  H29      1.0000 0.93110  0.04600  0.97700  Biso   1.000  H
  H30      1.0000 0.56890  0.95400  0.47700  Biso   1.000  H
  H31      1.0000 0.06890  0.54600  0.52300  Biso   1.000  H
  H32      1.0000 0.43110  0.45400  0.02300  Biso   1.000  H
  O21      1.0000 0.68960  0.70650  0.97276  Biso   1.000  O
  O22      1.0000 0.81040  0.29350  0.47276  Biso   1.000  O
  O23      1.0000 0.31040  0.20650  0.52724  Biso   1.000  O
  O24      1.0000 0.18960  0.79350  0.02724  Biso   1.000  O
  H33      1.0000 0.58360  0.73070  0.97490  Biso   1.000  H
  H34      1.0000 0.91640  0.26930  0.47490  Biso   1.000  H
  H35      1.0000 0.41640  0.23070  0.52510  Biso   1.000  H
  H36      1.0000 0.08360  0.76930  0.02510  Biso   1.000  H
  H37      1.0000 0.79030  0.71050  0.98720  Biso   1.000  H
  H38      1.0000 0.70970  0.28950  0.48720  Biso   1.000  H
  H39      1.0000 0.20970  0.21050  0.51280  Biso   1.000  H
  H40      1.0000 0.29030  0.78950  0.01280  Biso   1.000  H
  O25      1.0000 0.36450  0.67290  0.91375  Biso   1.000  O
  O26      1.0000 0.13550  0.32710  0.41375  Biso   1.000  O
  O27      1.0000 0.63550  0.17290  0.58625  Biso   1.000  O
  O28      1.0000 0.86450  0.82710  0.08625  Biso   1.000  O
  H41      1.0000 0.35740  0.71340  0.90930  Biso   1.000  H
  H42      1.0000 0.14260  0.28660  0.40930  Biso   1.000  H
  H43      1.0000 0.64260  0.21340  0.59070  Biso   1.000  H
  H44      1.0000 0.85740  0.78660  0.09070  Biso   1.000  H
  H45      1.0000 0.27240  0.66450  0.92920  Biso   1.000  H
  H46      1.0000 0.22760  0.33550  0.42920  Biso   1.000  H
  H47      1.0000 0.72760  0.16450  0.57080  Biso   1.000  H
  H48      1.0000 0.77240  0.83550  0.07080  Biso   1.000  H
  O29      1.0000 0.57650  0.57700  0.96604  Biso   1.000  O
  O30      1.0000 0.92350  0.42300  0.46604  Biso   1.000  O
  O31      1.0000 0.42350  0.07700  0.53396  Biso   1.000  O
  O32      1.0000 0.07650  0.92300  0.03396  Biso   1.000  O
  H49      1.0000 0.62080  0.58090  0.98720  Biso   1.000  H
  H50      1.0000 0.87920  0.41910  0.48720  Biso   1.000  H
  H51      1.0000 0.37920  0.08090  0.51280  Biso   1.000  H
  H52      1.0000 0.12080  0.91910  0.01280  Biso   1.000  H
  H53      1.0000 0.60590  0.53900  0.95870  Biso   1.000  H
  H54      1.0000 0.89410  0.46100  0.45870  Biso   1.000  H
  H55      1.0000 0.39410  0.03900  0.54130  Biso   1.000  H
  H56      1.0000 0.10590  0.96100  0.04130  Biso   1.000  H
  O33      1.0000 0.22760  0.06310  0.91222  Biso   1.000  O
  O34      1.0000 0.27240  0.93690  0.41222  Biso   1.000  O
  O35      1.0000 0.77240  0.56310  0.58778  Biso   1.000  O
  O36      1.0000 0.72760  0.43690  0.08778  Biso   1.000  O
  H57      1.0000 0.29870  0.02840  0.91140  Biso   1.000  H
  H58      1.0000 0.20130  0.97160  0.41140  Biso   1.000  H
  H59      1.0000 0.70130  0.52840  0.58860  Biso   1.000  H
  H60      1.0000 0.79870  0.47160  0.08860  Biso   1.000  H
  H61      1.0000 0.28730  0.09050  0.92570  Biso   1.000  H
  H62      1.0000 0.21270  0.90950  0.42570  Biso   1.000  H
  H63      1.0000 0.71270  0.59050  0.57430  Biso   1.000  H
  H64      1.0000 0.78730  0.40950  0.07430  Biso   1.000  H
  O37      1.0000 0.05180  0.62040  0.95730  Biso   1.000  O
  O38      1.0000 0.44820  0.37960  0.45730  Biso   1.000  O
  O39      1.0000 0.94820  0.12040  0.54270  Biso   1.000  O
  O40      1.0000 0.55180  0.87960  0.04270  Biso   1.000  O
  H65      1.0000 0.08730  0.58060  0.95700  Biso   1.000  H
  H66      1.0000 0.41270  0.41940  0.45700  Biso   1.000  H
  H67      1.0000 0.91270  0.08060  0.54300  Biso   1.000  H
  H68      1.0000 0.58730  0.91940  0.04300  Biso   1.000  H
  H69      1.0000 0.06900  0.61780  0.97970  Biso   1.000  H
  H70      1.0000 0.43100  0.38220  0.47970  Biso   1.000  H
  H71      1.0000 0.93100  0.11780  0.52030  Biso   1.000  H
  H72      1.0000 0.56900  0.88220  0.02030  Biso   1.000  H
  N1       1.0000 0.73650  0.57340  0.89639  Biso   1.000  N
  N2       1.0000 0.76350  0.42660  0.39639  Biso   1.000  N
  N3       1.0000 0.26350  0.07340  0.60361  Biso   1.000  N
  N4       1.0000 0.23650  0.92660  0.10361  Biso   1.000  N
  N5       1.0000 0.58460  0.49340  0.85898  Biso   1.000  N
  N6       1.0000 0.91540  0.50660  0.35898  Biso   1.000  N
  N7       1.0000 0.41540  0.99340  0.64102  Biso   1.000  N
  N8       1.0000 0.08460  0.00660  0.14102  Biso   1.000  N
  N9       1.0000 0.02540  0.29070  0.86621  Biso   1.000  N
  N10      1.0000 0.47460  0.70930  0.36621  Biso   1.000  N
  N11      1.0000 0.97460  0.79070  0.63379  Biso   1.000  N
  N12      1.0000 0.52540  0.20930  0.13379  Biso   1.000  N
  N13      1.0000 0.15170  0.24680  0.85010  Biso   1.000  N
  N14      1.0000 0.34830  0.75320  0.35010  Biso   1.000  N
  N15      1.0000 0.84830  0.74680  0.64990  Biso   1.000  N
  N16      1.0000 0.65170  0.25320  0.14990  Biso   1.000  N
  N17      1.0000 0.99480  0.20310  0.89820  Biso   1.000  N
  N18      1.0000 0.50520  0.79690  0.39820  Biso   1.000  N
  N19      1.0000 0.00520  0.70310  0.60180  Biso   1.000  N
  N20      1.0000 0.49480  0.29690  0.10180  Biso   1.000  N
  N21      1.0000 0.79500  0.70930  0.89928  Biso   1.000  N
  N22      1.0000 0.70500  0.29070  0.39928  Biso   1.000  N
  N23      1.0000 0.20500  0.20930  0.60072  Biso   1.000  N
  N24      1.0000 0.29500  0.79070  0.10072  Biso   1.000  N
  N25      1.0000 0.98610  0.80470  0.88569  Biso   1.000  N
  N26      1.0000 0.51390  0.19530  0.38569  Biso   1.000  N
  N27      1.0000 0.01390  0.30470  0.61431  Biso   1.000  N
  N28      1.0000 0.48610  0.69530  0.11431  Biso   1.000  N
  N29      1.0000 0.70740  0.00010  0.86981  Biso   1.000  N
  N30      1.0000 0.79260  0.99990  0.36981  Biso   1.000  N
  N31      1.0000 0.29260  0.50010  0.63019  Biso   1.000  N
  N32      1.0000 0.20740  0.49990  0.13019  Biso   1.000  N
  N33      1.0000 0.64970  0.05100  0.84831  Biso   1.000  N
  N34      1.0000 0.85030  0.94900  0.34831  Biso   1.000  N
  N35      1.0000 0.35030  0.55100  0.65169  Biso   1.000  N
  N36      1.0000 0.14970  0.44900  0.15169  Biso   1.000  N
  N37      1.0000 0.76390  0.08600  0.90135  Biso   1.000  N
  N38      1.0000 0.73610  0.91400  0.40135  Biso   1.000  N
  N39      1.0000 0.23610  0.58600  0.59865  Biso   1.000  N
  N40      1.0000 0.26390  0.41400  0.09865  Biso   1.000  N
  F1       1.0000 0.12030  0.51020  0.83742  Biso   1.000  F
  F2       1.0000 0.37970  0.48980  0.33742  Biso   1.000  F
  F3       1.0000 0.87970  0.01020  0.66258  Biso   1.000  F
  F4       1.0000 0.62030  0.98980  0.16258  Biso   1.000  F
  F5       1.0000 0.09850  0.33600  0.77722  Biso   1.000  F
  F6       1.0000 0.40150  0.66400  0.27722  Biso   1.000  F
  F7       1.0000 0.90150  0.83600  0.72278  Biso   1.000  F
  F8       1.0000 0.59850  0.16400  0.22278  Biso   1.000  F
  F9       1.0000 0.73160  0.16330  0.72803  Biso   1.000  F
  F10      1.0000 0.76840  0.83670  0.22803  Biso   1.000  F
  F11      1.0000 0.26840  0.66330  0.77197  Biso   1.000  F
  F12      1.0000 0.23160  0.33670  0.27197  Biso   1.000  F
  F13      1.0000 0.68540  0.75700  0.80980  Biso   1.000  F
  F14      1.0000 0.81460  0.24300  0.30980  Biso   1.000  F
  F15      1.0000 0.31460  0.25700  0.69020  Biso   1.000  F
  F16      1.0000 0.18540  0.74300  0.19020  Biso   1.000  F
  F17      1.0000 0.71850  0.94570  0.77805  Biso   1.000  F
  F18      1.0000 0.78150  0.05430  0.27805  Biso   1.000  F
  F19      1.0000 0.28150  0.44570  0.72195  Biso   1.000  F
  F20      1.0000 0.21850  0.55430  0.22195  Biso   1.000  F
  F21      1.0000 0.17340  0.10030  0.73235  Biso   1.000  F
  F22      1.0000 0.32660  0.89970  0.23235  Biso   1.000  F
  F23      1.0000 0.82660  0.60030  0.76765  Biso   1.000  F
  F24      1.0000 0.67340  0.39970  0.26765  Biso   1.000  F
  C1       1.0000 0.93600  0.26360  0.89370  Biso   1.000  C
  C2       1.0000 0.56400  0.73640  0.39370  Biso   1.000  C
  C3       1.0000 0.06400  0.76360  0.60630  Biso   1.000  C
  C4       1.0000 0.43600  0.23640  0.10630  Biso   1.000  C
  H73      1.0000 0.84150  0.28480  0.90830  Biso   1.000  H
  H74      1.0000 0.65850  0.71520  0.40830  Biso   1.000  H
  H75      1.0000 0.15850  0.78480  0.59170  Biso   1.000  H
  H76      1.0000 0.34150  0.21520  0.09170  Biso   1.000  H
  C5       1.0000 0.12660  0.19550  0.87050  Biso   1.000  C
  C6       1.0000 0.37340  0.80450  0.37050  Biso   1.000  C
  C7       1.0000 0.87340  0.69550  0.62950  Biso   1.000  C
  C8       1.0000 0.62660  0.30450  0.12950  Biso   1.000  C
  H77      1.0000 0.19500  0.15650  0.86620  Biso   1.000  H
  H78      1.0000 0.30500  0.84350  0.36620  Biso   1.000  H
  H79      1.0000 0.80500  0.65650  0.63380  Biso   1.000  H
  H80      1.0000 0.69500  0.34350  0.13380  Biso   1.000  H
  C9       1.0000 0.99870  0.35690  0.85200  Biso   1.000  C
  C10      1.0000 0.50130  0.64310  0.35200  Biso   1.000  C
  C11      1.0000 0.00130  0.85690  0.64800  Biso   1.000  C
  C12      1.0000 0.49870  0.14310  0.14800  Biso   1.000  C
  H81      1.0000 0.11250  0.36730  0.83620  Biso   1.000  H
  H82      1.0000 0.38750  0.63270  0.33620  Biso   1.000  H
  H83      1.0000 0.88750  0.86730  0.66380  Biso   1.000  H
  H84      1.0000 0.61250  0.13270  0.16380  Biso   1.000  H
  H85      1.0000 0.99950  0.38800  0.87140  Biso   1.000  H
  H86      1.0000 0.50050  0.61200  0.37140  Biso   1.000  H
  H87      1.0000 0.00050  0.88800  0.62860  Biso   1.000  H
  H88      1.0000 0.49950  0.11200  0.12860  Biso   1.000  H
  C13      1.0000 0.79220  0.36150  0.83172  Biso   1.000  C
  C14      1.0000 0.70780  0.63850  0.33172  Biso   1.000  C
  C15      1.0000 0.20780  0.86150  0.66828  Biso   1.000  C
  C16      1.0000 0.29220  0.13850  0.16828  Biso   1.000  C
  C17      1.0000 0.77170  0.43040  0.81440  Biso   1.000  C
  C18      1.0000 0.72830  0.56960  0.31440  Biso   1.000  C
  C19      1.0000 0.22830  0.93040  0.68560  Biso   1.000  C
  C20      1.0000 0.27170  0.06960  0.18560  Biso   1.000  C
  H89      1.0000 0.89540  0.43760  0.79980  Biso   1.000  H
  H90      1.0000 0.60460  0.56240  0.29980  Biso   1.000  H
  H91      1.0000 0.10460  0.93760  0.70020  Biso   1.000  H
  H92      1.0000 0.39540  0.06240  0.20020  Biso   1.000  H
  C21      1.0000 0.76760  0.48330  0.84290  Biso   1.000  C
  C22      1.0000 0.73240  0.51670  0.34290  Biso   1.000  C
  C23      1.0000 0.23240  0.98330  0.65710  Biso   1.000  C
  C24      1.0000 0.26760  0.01670  0.15710  Biso   1.000  C
  C25      1.0000 0.93420  0.51840  0.85340  Biso   1.000  C
  C26      1.0000 0.56580  0.48160  0.35340  Biso   1.000  C
  C27      1.0000 0.06580  0.01840  0.64660  Biso   1.000  C
  C28      1.0000 0.43420  0.98160  0.14660  Biso   1.000  C
  C29      1.0000 0.91810  0.56400  0.87960  Biso   1.000  C
  C30      1.0000 0.58190  0.43600  0.37960  Biso   1.000  C
  C31      1.0000 0.08190  0.06400  0.62040  Biso   1.000  C
  C32      1.0000 0.41810  0.93600  0.12040  Biso   1.000  C
  H93      1.0000 0.03320  0.58860  0.88580  Biso   1.000  H
  H94      1.0000 0.46680  0.41140  0.38580  Biso   1.000  H
  H95      1.0000 0.96680  0.08860  0.61420  Biso   1.000  H
  H96      1.0000 0.53320  0.91140  0.11420  Biso   1.000  H
  C33      1.0000 0.57710  0.53680  0.88510  Biso   1.000  C
  C34      1.0000 0.92290  0.46320  0.38510  Biso   1.000  C
  C35      1.0000 0.42290  0.03680  0.61490  Biso   1.000  C
  C36      1.0000 0.07710  0.96320  0.11490  Biso   1.000  C
  H97      1.0000 0.45060  0.54230  0.89650  Biso   1.000  H
  H98      1.0000 0.04940  0.45770  0.39650  Biso   1.000  H
  H99      1.0000 0.54940  0.04230  0.60350  Biso   1.000  H
  H100     1.0000 0.95060  0.95770  0.10350  Biso   1.000  H
  C37      1.0000 0.77650  0.30910  0.80330  Biso   1.000  C
  C38      1.0000 0.72350  0.69090  0.30330  Biso   1.000  C
  C39      1.0000 0.22350  0.80910  0.69670  Biso   1.000  C
  C40      1.0000 0.27650  0.19090  0.19670  Biso   1.000  C
  C41      1.0000 0.60320  0.26860  0.80090  Biso   1.000  C
  C42      1.0000 0.89680  0.73140  0.30090  Biso   1.000  C
  C43      1.0000 0.39680  0.76860  0.69910  Biso   1.000  C
  C44      1.0000 0.10320  0.23140  0.19910  Biso   1.000  C
  H101     1.0000 0.49510  0.27430  0.81690  Biso   1.000  H
  H102     1.0000 0.00490  0.72570  0.31690  Biso   1.000  H
  H103     1.0000 0.50490  0.77430  0.68310  Biso   1.000  H
  H104     1.0000 0.99510  0.22570  0.18310  Biso   1.000  H
  C45      1.0000 0.58720  0.22040  0.77550  Biso   1.000  C
  C46      1.0000 0.91280  0.77960  0.27550  Biso   1.000  C
  C47      1.0000 0.41280  0.72040  0.72450  Biso   1.000  C
  C48      1.0000 0.08720  0.27960  0.22450  Biso   1.000  C
  H105     1.0000 0.46810  0.19510  0.77400  Biso   1.000  H
  H106     1.0000 0.03190  0.80490  0.27400  Biso   1.000  H
  H107     1.0000 0.53190  0.69510  0.72600  Biso   1.000  H
  H108     1.0000 0.96810  0.30490  0.22600  Biso   1.000  H
  C49      1.0000 0.74500  0.21040  0.75290  Biso   1.000  C
  C50      1.0000 0.75500  0.78960  0.25290  Biso   1.000  C
  C51      1.0000 0.25500  0.71040  0.74710  Biso   1.000  C
  C52      1.0000 0.24500  0.28960  0.24710  Biso   1.000  C
  C53      1.0000 0.92460  0.24810  0.75330  Biso   1.000  C
  C54      1.0000 0.57540  0.75190  0.25330  Biso   1.000  C
  C55      1.0000 0.07540  0.74810  0.74670  Biso   1.000  C
  C56      1.0000 0.42460  0.25190  0.24670  Biso   1.000  C
  H109     1.0000 0.03440  0.24060  0.73780  Biso   1.000  H
  H110     1.0000 0.46560  0.75940  0.23780  Biso   1.000  H
  H111     1.0000 0.96560  0.74060  0.76220  Biso   1.000  H
  H112     1.0000 0.53440  0.25940  0.26220  Biso   1.000  H
  C57      1.0000 0.92780  0.29740  0.77800  Biso   1.000  C
  C58      1.0000 0.57220  0.70260  0.27800  Biso   1.000  C
  C59      1.0000 0.07220  0.79740  0.72200  Biso   1.000  C
  C60      1.0000 0.42780  0.20260  0.22200  Biso   1.000  C
  C61      1.0000 0.58290  0.43650  0.79000  Biso   1.000  C
  C62      1.0000 0.91710  0.56350  0.29000  Biso   1.000  C
  C63      1.0000 0.41710  0.93650  0.71000  Biso   1.000  C
  C64      1.0000 0.08290  0.06350  0.21000  Biso   1.000  C
  H113     1.0000 0.58010  0.47910  0.77960  Biso   1.000  H
  H114     1.0000 0.91990  0.52090  0.27960  Biso   1.000  H
  H115     1.0000 0.41990  0.97910  0.72040  Biso   1.000  H
  H116     1.0000 0.08010  0.02090  0.22040  Biso   1.000  H
  H117     1.0000 0.45880  0.42970  0.80360  Biso   1.000  H
  H118     1.0000 0.04120  0.57030  0.30360  Biso   1.000  H
  H119     1.0000 0.54120  0.92970  0.69640  Biso   1.000  H
  H120     1.0000 0.95880  0.07030  0.19640  Biso   1.000  H
  H121     1.0000 0.59120  0.40450  0.77150  Biso   1.000  H
  H122     1.0000 0.90880  0.59550  0.27150  Biso   1.000  H
  H123     1.0000 0.40880  0.90450  0.72850  Biso   1.000  H
  H124     1.0000 0.09120  0.09550  0.22850  Biso   1.000  H
  C65      1.0000 0.68430  0.10080  0.86870  Biso   1.000  C
  C66      1.0000 0.81570  0.89920  0.36870  Biso   1.000  C
  C67      1.0000 0.31570  0.60080  0.63130  Biso   1.000  C
  C68      1.0000 0.18430  0.39920  0.13130  Biso   1.000  C
  H125     1.0000 0.65700  0.14320  0.86160  Biso   1.000  H
  H126     1.0000 0.84300  0.85680  0.36160  Biso   1.000  H
  H127     1.0000 0.34300  0.64320  0.63840  Biso   1.000  H
  H128     1.0000 0.15700  0.35680  0.13840  Biso   1.000  H
  C69      1.0000 0.77460  0.02300  0.90070  Biso   1.000  C
  C70      1.0000 0.72540  0.97700  0.40070  Biso   1.000  C
  C71      1.0000 0.22540  0.52300  0.59930  Biso   1.000  C
  C72      1.0000 0.27460  0.47700  0.09930  Biso   1.000  C
  H129     1.0000 0.82270  0.99750  0.91930  Biso   1.000  H
  H130     1.0000 0.67730  0.00250  0.41930  Biso   1.000  H
  H131     1.0000 0.17730  0.49750  0.58070  Biso   1.000  H
  H132     1.0000 0.32270  0.50250  0.08070  Biso   1.000  H
  C73      1.0000 0.73460  0.93400  0.85540  Biso   1.000  C
  C74      1.0000 0.76540  0.06600  0.35540  Biso   1.000  C
  C75      1.0000 0.26540  0.43400  0.64460  Biso   1.000  C
  C76      1.0000 0.23460  0.56600  0.14460  Biso   1.000  C
  H133     1.0000 0.63860  0.92690  0.83590  Biso   1.000  H
  H134     1.0000 0.86140  0.07310  0.33590  Biso   1.000  H
  H135     1.0000 0.36140  0.42690  0.66410  Biso   1.000  H
  H136     1.0000 0.13860  0.57310  0.16410  Biso   1.000  H
  H137     1.0000 0.70570  0.90210  0.87370  Biso   1.000  H
  H138     1.0000 0.79430  0.09790  0.37370  Biso   1.000  H
  H139     1.0000 0.29430  0.40210  0.62630  Biso   1.000  H
  H140     1.0000 0.20570  0.59790  0.12630  Biso   1.000  H
  C77      1.0000 0.95880  0.92590  0.84200  Biso   1.000  C
  C78      1.0000 0.54120  0.07410  0.34200  Biso   1.000  C
  C79      1.0000 0.04120  0.42590  0.65800  Biso   1.000  C
  C80      1.0000 0.45880  0.57410  0.15800  Biso   1.000  C
  C81      1.0000 0.98870  0.85610  0.82710  Biso   1.000  C
  C82      1.0000 0.51130  0.14390  0.32710  Biso   1.000  C
  C83      1.0000 0.01130  0.35610  0.67290  Biso   1.000  C
  C84      1.0000 0.48870  0.64390  0.17290  Biso   1.000  C
  H141     1.0000 0.91270  0.85260  0.80470  Biso   1.000  H
  H142     1.0000 0.58730  0.14740  0.30470  Biso   1.000  H
  H143     1.0000 0.08730  0.35260  0.69530  Biso   1.000  H
  H144     1.0000 0.41270  0.64740  0.19530  Biso   1.000  H
  C85      1.0000 0.90900  0.80490  0.85220  Biso   1.000  C
  C86      1.0000 0.59100  0.19510  0.35220  Biso   1.000  C
  C87      1.0000 0.09100  0.30490  0.64780  Biso   1.000  C
  C88      1.0000 0.40900  0.69510  0.14780  Biso   1.000  C
  C89      1.0000 0.92630  0.75820  0.90750  Biso   1.000  C
  C90      1.0000 0.57370  0.24180  0.40750  Biso   1.000  C
  C91      1.0000 0.07370  0.25820  0.59250  Biso   1.000  C
  C92      1.0000 0.42630  0.74180  0.09250  Biso   1.000  C
  H145     1.0000 0.97900  0.75910  0.93050  Biso   1.000  H
  H146     1.0000 0.52100  0.24090  0.43050  Biso   1.000  H
  H147     1.0000 0.02100  0.25910  0.56950  Biso   1.000  H
  H148     1.0000 0.47900  0.74090  0.06950  Biso   1.000  H
  C93      1.0000 0.71770  0.71070  0.86640  Biso   1.000  C
  C94      1.0000 0.78230  0.28930  0.36640  Biso   1.000  C
  C95      1.0000 0.28230  0.21070  0.63360  Biso   1.000  C
  C96      1.0000 0.21770  0.78930  0.13360  Biso   1.000  C
  H149     1.0000 0.62300  0.67900  0.85960  Biso   1.000  H
  H150     1.0000 0.87700  0.32100  0.35960  Biso   1.000  H
  H151     1.0000 0.37700  0.17900  0.64040  Biso   1.000  H
  H152     1.0000 0.12300  0.82100  0.14040  Biso   1.000  H
  C97      1.0000 0.77270  0.75690  0.84260  Biso   1.000  C
  C98      1.0000 0.72730  0.24310  0.34260  Biso   1.000  C
  C99      1.0000 0.22730  0.25690  0.65740  Biso   1.000  C
  C100     1.0000 0.27270  0.74310  0.15740  Biso   1.000  C
  C101     1.0000 0.01090  0.97490  0.81260  Biso   1.000  C
  C102     1.0000 0.48910  0.02510  0.31260  Biso   1.000  C
  C103     1.0000 0.98910  0.47490  0.68740  Biso   1.000  C
  C104     1.0000 0.51090  0.52510  0.18740  Biso   1.000  C
  C105     1.0000 0.89460  0.98190  0.78260  Biso   1.000  C
  C106     1.0000 0.60540  0.01810  0.28260  Biso   1.000  C
  C107     1.0000 0.10540  0.48190  0.71740  Biso   1.000  C
  C108     1.0000 0.39460  0.51810  0.21740  Biso   1.000  C
  C109     1.0000 0.94330  0.02480  0.75560  Biso   1.000  C
  C110     1.0000 0.55670  0.97520  0.25560  Biso   1.000  C
  C111     1.0000 0.05670  0.52480  0.74440  Biso   1.000  C
  C112     1.0000 0.44330  0.47520  0.24440  Biso   1.000  C
  H153     1.0000 0.85850  0.02930  0.73570  Biso   1.000  H
  H154     1.0000 0.64150  0.97070  0.23570  Biso   1.000  H
  H155     1.0000 0.14150  0.52930  0.76430  Biso   1.000  H
  H156     1.0000 0.35850  0.47070  0.26430  Biso   1.000  H
  C113     1.0000 0.11790  0.05990  0.75910  Biso   1.000  C
  C114     1.0000 0.38210  0.94010  0.25910  Biso   1.000  C
  C115     1.0000 0.88210  0.55990  0.74090  Biso   1.000  C
  C116     1.0000 0.61790  0.44010  0.24090  Biso   1.000  C
  C117     1.0000 0.24410  0.05480  0.78740  Biso   1.000  C
  C118     1.0000 0.25590  0.94520  0.28740  Biso   1.000  C
  C119     1.0000 0.75590  0.55480  0.71260  Biso   1.000  C
  C120     1.0000 0.74410  0.44520  0.21260  Biso   1.000  C
  H157     1.0000 0.36600  0.07880  0.78880  Biso   1.000  H
  H158     1.0000 0.13400  0.92120  0.28880  Biso   1.000  H
  H159     1.0000 0.63400  0.57880  0.71120  Biso   1.000  H
  H160     1.0000 0.86600  0.42120  0.21120  Biso   1.000  H
  C121     1.0000 0.18770  0.01320  0.81450  Biso   1.000  C
  C122     1.0000 0.31230  0.98680  0.31450  Biso   1.000  C
  C123     1.0000 0.81230  0.51320  0.68550  Biso   1.000  C
  C124     1.0000 0.68770  0.48680  0.18550  Biso   1.000  C
  H161     1.0000 0.27070  0.01070  0.83470  Biso   1.000  H
  H162     1.0000 0.22930  0.98930  0.33470  Biso   1.000  H
  H163     1.0000 0.72930  0.51070  0.66530  Biso   1.000  H
  H164     1.0000 0.77070  0.48930  0.16530  Biso   1.000  H
  C125     1.0000 0.21980  0.84210  0.81990  Biso   1.000  C
  C126     1.0000 0.28020  0.15790  0.31990  Biso   1.000  C
  C127     1.0000 0.78020  0.34210  0.68010  Biso   1.000  C
  C128     1.0000 0.71980  0.65790  0.18010  Biso   1.000  C
  H165     1.0000 0.23420  0.79910  0.81020  Biso   1.000  H
  H166     1.0000 0.26580  0.20090  0.31020  Biso   1.000  H
  H167     1.0000 0.76580  0.29910  0.68980  Biso   1.000  H
  H168     1.0000 0.73420  0.70090  0.18980  Biso   1.000  H
  H169     1.0000 0.29620  0.84500  0.84170  Biso   1.000  H
  H170     1.0000 0.20380  0.15500  0.34170  Biso   1.000  H
  H171     1.0000 0.70380  0.34500  0.65830  Biso   1.000  H
  H172     1.0000 0.79620  0.65500  0.15830  Biso   1.000  H
  H173     1.0000 0.27270  0.87330  0.80320  Biso   1.000  H
  H174     1.0000 0.22730  0.12670  0.30320  Biso   1.000  H
  H175     1.0000 0.72730  0.37330  0.69680  Biso   1.000  H
  H176     1.0000 0.77270  0.62670  0.19680  Biso   1.000  H
  O41      1.0000 0.64500  0.45150  0.97565  Biso   1.000  O
  O42      1.0000 0.85500  0.54850  0.47565  Biso   1.000  O
  O43      1.0000 0.35500  0.95150  0.52435  Biso   1.000  O
  O44      1.0000 0.14500  0.04850  0.02435  Biso   1.000  O
  O45      1.0000 0.46410  0.39870  0.93130  Biso   1.000  O
  O46      1.0000 0.03590  0.60130  0.43130  Biso   1.000  O
  O47      1.0000 0.53590  0.89870  0.56870  Biso   1.000  O
  O48      1.0000 0.96410  0.10130  0.06870  Biso   1.000  O
  O49      1.0000 0.69600  0.33970  0.96560  Biso   1.000  O
  O50      1.0000 0.80400  0.66030  0.46560  Biso   1.000  O
  O51      1.0000 0.30400  0.83970  0.53440  Biso   1.000  O
  O52      1.0000 0.19600  0.16030  0.03440  Biso   1.000  O
  O53      1.0000 0.81460  0.41380  0.92290  Biso   1.000  O
  O54      1.0000 0.68540  0.58620  0.42290  Biso   1.000  O
  O55      1.0000 0.18540  0.91380  0.57710  Biso   1.000  O
  O56      1.0000 0.31460  0.08620  0.07710  Biso   1.000  O
  S1       1.0000 0.66350  0.40028  0.94935  Biso   1.000  S
  S2       1.0000 0.83650  0.59972  0.44935  Biso   1.000  S
  S3       1.0000 0.33650  0.90028  0.55065  Biso   1.000  S
  S4       1.0000 0.16350  0.09972  0.05065  Biso   1.000  S
  O57      1.0000 0.40100  0.91070  0.93440  Biso   1.000  O
  O58      1.0000 0.09900  0.08930  0.43440  Biso   1.000  O
  O59      1.0000 0.59900  0.41070  0.56560  Biso   1.000  O
  O60      1.0000 0.90100  0.58930  0.06560  Biso   1.000  O
  O61      1.0000 0.23990  0.81880  0.95922  Biso   1.000  O
  O62      1.0000 0.26010  0.18120  0.45922  Biso   1.000  O
  O63      1.0000 0.76010  0.31880  0.54078  Biso   1.000  O
  O64      1.0000 0.73990  0.68120  0.04078  Biso   1.000  O
  O65      1.0000 0.59610  0.83490  0.96997  Biso   1.000  O
  O66      1.0000 0.90390  0.16510  0.46997  Biso   1.000  O
  O67      1.0000 0.40390  0.33490  0.53003  Biso   1.000  O
  O68      1.0000 0.09610  0.66510  0.03003  Biso   1.000  O
  O69      1.0000 0.47290  0.80700  0.91149  Biso   1.000  O
  O70      1.0000 0.02710  0.19300  0.41149  Biso   1.000  O
  O71      1.0000 0.52710  0.30700  0.58851  Biso   1.000  O
  O72      1.0000 0.97290  0.69300  0.08851  Biso   1.000  O
  S5       1.0000 0.42670  0.84567  0.94327  Biso   1.000  S
  S6       1.0000 0.07330  0.15433  0.44327  Biso   1.000  S
  S7       1.0000 0.57330  0.34567  0.55673  Biso   1.000  S
  S8       1.0000 0.92670  0.65433  0.05673  Biso   1.000  S
  H177     1.0000 0.83010  0.89240  0.96960  Biso   1.000  H
  H178     1.0000 0.66990  0.10760  0.46960  Biso   1.000  H
  H179     1.0000 0.16990  0.39240  0.53040  Biso   1.000  H
  H180     1.0000 0.33010  0.60760  0.03040  Biso   1.000  H
  O73      1.0000 0.93060  0.91900  0.96813  Biso   1.000  O
  O74      1.0000 0.56940  0.08100  0.46813  Biso   1.000  O
  O75      1.0000 0.06940  0.41900  0.53187  Biso   1.000  O
  O76      1.0000 0.43060  0.58100  0.03187  Biso   1.000  O
  H181     1.0000 0.96520  0.90100  0.94870  Biso   1.000  H
  H182     1.0000 0.53480  0.09900  0.44870  Biso   1.000  H
  H183     1.0000 0.03480  0.40100  0.55130  Biso   1.000  H
  H184     1.0000 0.46520  0.59900  0.05130  Biso   1.000  H
  O77      1.0000 0.48200  0.02340  0.97161  Biso   1.000  O
  O78      1.0000 0.01800  0.97660  0.47161  Biso   1.000  O
  O79      1.0000 0.51800  0.52340  0.52839  Biso   1.000  O
  O80      1.0000 0.98200  0.47660  0.02839  Biso   1.000  O
  H185     1.0000 0.39070  0.03410  0.98680  Biso   1.000  H
  H186     1.0000 0.10930  0.96590  0.48680  Biso   1.000  H
  H187     1.0000 0.60930  0.53410  0.51320  Biso   1.000  H
  H188     1.0000 0.89070  0.46590  0.01320  Biso   1.000  H
  H189     1.0000 0.46350  0.98410  0.96540  Biso   1.000  H
  H190     1.0000 0.03650  0.01590  0.46540  Biso   1.000  H
  H191     1.0000 0.53650  0.48410  0.53460  Biso   1.000  H
  H192     1.0000 0.96350  0.51590  0.03460  Biso   1.000  H
  O81      1.0000 0.16530  0.31110  0.96560  Biso   1.000  O
  O82      1.0000 0.33470  0.68890  0.46560  Biso   1.000  O
  O83      1.0000 0.83470  0.81110  0.53440  Biso   1.000  O
  O84      1.0000 0.66530  0.18890  0.03440  Biso   1.000  O
  H193     1.0000 0.19920  0.33920  0.95010  Biso   1.000  H
  H194     1.0000 0.30080  0.66080  0.45010  Biso   1.000  H
  H195     1.0000 0.80080  0.83920  0.54990  Biso   1.000  H
  H196     1.0000 0.69920  0.16080  0.04990  Biso   1.000  H
  H197     1.0000 0.04000  0.32240  0.96250  Biso   1.000  H
  H198     1.0000 0.46000  0.67760  0.46250  Biso   1.000  H
  H199     1.0000 0.96000  0.82240  0.53750  Biso   1.000  H
  H200     1.0000 0.54000  0.17760  0.03750  Biso   1.000  H
  O85      1.0000 0.15130  0.49540  0.93830  Biso   1.000  O
  O86      1.0000 0.34870  0.50460  0.43830  Biso   1.000  O
  O87      1.0000 0.84870  0.99540  0.56170  Biso   1.000  O
  O88      1.0000 0.65130  0.00460  0.06170  Biso   1.000  O
  H201     1.0000 0.05730  0.46720  0.93460  Biso   1.000  H
  H202     1.0000 0.44270  0.53280  0.43460  Biso   1.000  H
  H203     1.0000 0.94270  0.96720  0.56540  Biso   1.000  H
  H204     1.0000 0.55730  0.03280  0.06540  Biso   1.000  H
  H205     1.0000 0.26690  0.48640  0.94790  Biso   1.000  H
  H206     1.0000 0.23310  0.51360  0.44790  Biso   1.000  H
  H207     1.0000 0.73310  0.98640  0.55210  Biso   1.000  H
  H208     1.0000 0.76690  0.01360  0.05210  Biso   1.000  H
