data_image0
_cell_length_a       18.672
_cell_length_b       7.359
_cell_length_c       14.81
_cell_angle_alpha    90
_cell_angle_beta     125.297
_cell_angle_gamma    90

_symmetry_space_group_name_H-M    "P 1"
_symmetry_int_tables_number       1

loop_
  _symmetry_equiv_pos_as_xyz
  'x, y, z'

loop_
  _atom_site_label
  _atom_site_occupancy
  _atom_site_fract_x
  _atom_site_fract_y
  _atom_site_fract_z
  _atom_site_thermal_displace_type
  _atom_site_B_iso_or_equiv
  _atom_site_type_symbol
  Cu1      1.0000 0.28942  0.79669  0.15401  Biso   1.000  Cu
  Cu2      1.0000 0.71058  0.79669  0.34599  Biso   1.000  Cu
  Cu3      1.0000 0.78942  0.29669  0.15401  Biso   1.000  Cu
  Cu4      1.0000 0.21058  0.29669  0.34599  Biso   1.000  Cu
  Cu5      1.0000 0.71058  0.20331  0.84599  Biso   1.000  Cu
  Cu6      1.0000 0.28942  0.20331  0.65401  Biso   1.000  Cu
  Cu7      1.0000 0.21058  0.70331  0.84599  Biso   1.000  Cu
  Cu8      1.0000 0.78942  0.70331  0.65401  Biso   1.000  Cu
  O1       1.0000 0.34297  0.12850  0.39864  Biso   1.000  O
  O2       1.0000 0.65703  0.12850  0.10136  Biso   1.000  O
  O3       1.0000 0.84297  0.62850  0.39864  Biso   1.000  O
  O4       1.0000 0.15703  0.62850  0.10136  Biso   1.000  O
  O5       1.0000 0.65703  0.87150  0.60136  Biso   1.000  O
  O6       1.0000 0.34297  0.87150  0.89864  Biso   1.000  O
  O7       1.0000 0.15703  0.37150  0.60136  Biso   1.000  O
  O8       1.0000 0.84297  0.37150  0.89864  Biso   1.000  O
  O9       1.0000 0.27811  0.99300  0.23525  Biso   1.000  O
  O10      1.0000 0.72189  0.99300  0.26475  Biso   1.000  O
  O11      1.0000 0.77811  0.49300  0.23525  Biso   1.000  O
  O12      1.0000 0.22189  0.49300  0.26475  Biso   1.000  O
  O13      1.0000 0.72189  0.00700  0.76475  Biso   1.000  O
  O14      1.0000 0.27811  0.00700  0.73525  Biso   1.000  O
  O15      1.0000 0.22189  0.50700  0.76475  Biso   1.000  O
  O16      1.0000 0.77811  0.50700  0.73525  Biso   1.000  O
  O17      1.0000 0.41160  0.95000  0.14120  Biso   1.000  O
  O18      1.0000 0.58840  0.95000  0.35880  Biso   1.000  O
  O19      1.0000 0.91160  0.45000  0.14120  Biso   1.000  O
  O20      1.0000 0.08840  0.45000  0.35880  Biso   1.000  O
  O21      1.0000 0.58840  0.05000  0.85880  Biso   1.000  O
  O22      1.0000 0.41160  0.05000  0.64120  Biso   1.000  O
  O23      1.0000 0.08840  0.55000  0.85880  Biso   1.000  O
  O24      1.0000 0.91160  0.55000  0.64120  Biso   1.000  O
  H1       1.0000 0.43900  0.94500  0.21060  Biso   1.000  H
  H2       1.0000 0.56100  0.94500  0.28940  Biso   1.000  H
  H3       1.0000 0.93900  0.44500  0.21060  Biso   1.000  H
  H4       1.0000 0.06100  0.44500  0.28940  Biso   1.000  H
  H5       1.0000 0.56100  0.05500  0.78940  Biso   1.000  H
  H6       1.0000 0.43900  0.05500  0.71060  Biso   1.000  H
  H7       1.0000 0.06100  0.55500  0.78940  Biso   1.000  H
  H8       1.0000 0.93900  0.55500  0.71060  Biso   1.000  H
  H9       1.0000 0.40400  0.06200  0.12500  Biso   1.000  H
  H10      1.0000 0.59600  0.06200  0.37500  Biso   1.000  H
  H11      1.0000 0.90400  0.56200  0.12500  Biso   1.000  H
  H12      1.0000 0.09600  0.56200  0.37500  Biso   1.000  H
  H13      1.0000 0.59600  0.93800  0.87500  Biso   1.000  H
  H14      1.0000 0.40400  0.93800  0.62500  Biso   1.000  H
  H15      1.0000 0.09600  0.43800  0.87500  Biso   1.000  H
  H16      1.0000 0.90400  0.43800  0.62500  Biso   1.000  H
  N1       1.0000 0.29087  0.56020  0.98658  Biso   1.000  N
  N2       1.0000 0.70913  0.56020  0.51342  Biso   1.000  N
  N3       1.0000 0.79087  0.06020  0.98658  Biso   1.000  N
  N4       1.0000 0.20913  0.06020  0.51342  Biso   1.000  N
  N5       1.0000 0.70913  0.43980  0.01342  Biso   1.000  N
  N6       1.0000 0.29087  0.43980  0.48658  Biso   1.000  N
  N7       1.0000 0.20913  0.93980  0.01342  Biso   1.000  N
  N8       1.0000 0.79087  0.93980  0.48658  Biso   1.000  N
  N9       1.0000 0.32418  0.40700  0.98192  Biso   1.000  N
  N10      1.0000 0.67582  0.40700  0.51808  Biso   1.000  N
  N11      1.0000 0.82418  0.90700  0.98192  Biso   1.000  N
  N12      1.0000 0.17582  0.90700  0.51808  Biso   1.000  N
  N13      1.0000 0.67582  0.59300  0.01808  Biso   1.000  N
  N14      1.0000 0.32418  0.59300  0.48192  Biso   1.000  N
  N15      1.0000 0.17582  0.09300  0.01808  Biso   1.000  N
  N16      1.0000 0.82418  0.09300  0.48192  Biso   1.000  N
  N17      1.0000 0.36856  0.32860  0.08163  Biso   1.000  N
  N18      1.0000 0.63144  0.32860  0.41837  Biso   1.000  N
  N19      1.0000 0.86856  0.82860  0.08163  Biso   1.000  N
  N20      1.0000 0.13144  0.82860  0.41837  Biso   1.000  N
  N21      1.0000 0.63144  0.67140  0.91837  Biso   1.000  N
  N22      1.0000 0.36856  0.67140  0.58163  Biso   1.000  N
  N23      1.0000 0.13144  0.17140  0.91837  Biso   1.000  N
  N24      1.0000 0.86856  0.17140  0.58163  Biso   1.000  N
  N25      1.0000 0.37290  0.70190  0.31088  Biso   1.000  N
  N26      1.0000 0.62710  0.70190  0.18912  Biso   1.000  N
  N27      1.0000 0.87290  0.20190  0.31088  Biso   1.000  N
  N28      1.0000 0.12710  0.20190  0.18912  Biso   1.000  N
  N29      1.0000 0.62710  0.29810  0.68912  Biso   1.000  N
  N30      1.0000 0.37290  0.29810  0.81088  Biso   1.000  N
  N31      1.0000 0.12710  0.79810  0.68912  Biso   1.000  N
  N32      1.0000 0.87290  0.79810  0.81088  Biso   1.000  N
  H17      1.0000 0.33860  0.64160  0.32630  Biso   1.000  H
  H18      1.0000 0.66140  0.64160  0.17370  Biso   1.000  H
  H19      1.0000 0.83860  0.14160  0.32630  Biso   1.000  H
  H20      1.0000 0.16140  0.14160  0.17370  Biso   1.000  H
  H21      1.0000 0.66140  0.35840  0.67370  Biso   1.000  H
  H22      1.0000 0.33860  0.35840  0.82630  Biso   1.000  H
  H23      1.0000 0.16140  0.85840  0.67370  Biso   1.000  H
  H24      1.0000 0.83860  0.85840  0.82630  Biso   1.000  H
  N33      1.0000 0.31313  0.58510  0.09002  Biso   1.000  N
  N34      1.0000 0.68687  0.58510  0.40998  Biso   1.000  N
  N35      1.0000 0.81313  0.08510  0.09002  Biso   1.000  N
  N36      1.0000 0.18687  0.08510  0.40998  Biso   1.000  N
  N37      1.0000 0.68687  0.41490  0.90998  Biso   1.000  N
  N38      1.0000 0.31313  0.41490  0.59002  Biso   1.000  N
  N39      1.0000 0.18687  0.91490  0.90998  Biso   1.000  N
  N40      1.0000 0.81313  0.91490  0.59002  Biso   1.000  N
  C1       1.0000 0.36074  0.43860  0.14620  Biso   1.000  C
  C2       1.0000 0.63926  0.43860  0.35380  Biso   1.000  C
  C3       1.0000 0.86074  0.93860  0.14620  Biso   1.000  C
  C4       1.0000 0.13926  0.93860  0.35380  Biso   1.000  C
  C5       1.0000 0.63926  0.56140  0.85380  Biso   1.000  C
  C6       1.0000 0.36074  0.56140  0.64620  Biso   1.000  C
  C7       1.0000 0.13926  0.06140  0.85380  Biso   1.000  C
  C8       1.0000 0.86074  0.06140  0.64620  Biso   1.000  C
  C9       1.0000 0.40210  0.40350  0.26630  Biso   1.000  C
  C10      1.0000 0.59790  0.40350  0.23370  Biso   1.000  C
  C11      1.0000 0.90210  0.90350  0.26630  Biso   1.000  C
  C12      1.0000 0.09790  0.90350  0.23370  Biso   1.000  C
  C13      1.0000 0.59790  0.59650  0.73370  Biso   1.000  C
  C14      1.0000 0.40210  0.59650  0.76630  Biso   1.000  C
  C15      1.0000 0.09790  0.09650  0.73370  Biso   1.000  C
  C16      1.0000 0.90210  0.09650  0.76630  Biso   1.000  C
  H25      1.0000 0.44700  0.31110  0.29230  Biso   1.000  H
  H26      1.0000 0.55300  0.31110  0.20770  Biso   1.000  H
  H27      1.0000 0.94700  0.81110  0.29230  Biso   1.000  H
  H28      1.0000 0.05300  0.81110  0.20770  Biso   1.000  H
  H29      1.0000 0.55300  0.68890  0.70770  Biso   1.000  H
  H30      1.0000 0.44700  0.68890  0.79230  Biso   1.000  H
  H31      1.0000 0.05300  0.18890  0.70770  Biso   1.000  H
  H32      1.0000 0.94700  0.18890  0.79230  Biso   1.000  H
  H33      1.0000 0.35800  0.35690  0.27520  Biso   1.000  H
  H34      1.0000 0.64200  0.35690  0.22480  Biso   1.000  H
  H35      1.0000 0.85800  0.85690  0.27520  Biso   1.000  H
  H36      1.0000 0.14200  0.85690  0.22480  Biso   1.000  H
  H37      1.0000 0.64200  0.64310  0.72480  Biso   1.000  H
  H38      1.0000 0.35800  0.64310  0.77520  Biso   1.000  H
  H39      1.0000 0.14200  0.14310  0.72480  Biso   1.000  H
  H40      1.0000 0.85800  0.14310  0.77520  Biso   1.000  H
  C17      1.0000 0.44290  0.57250  0.33660  Biso   1.000  C
  C18      1.0000 0.55710  0.57250  0.16340  Biso   1.000  C
  C19      1.0000 0.94290  0.07250  0.33660  Biso   1.000  C
  C20      1.0000 0.05710  0.07250  0.16340  Biso   1.000  C
  C21      1.0000 0.55710  0.42750  0.66340  Biso   1.000  C
  C22      1.0000 0.44290  0.42750  0.83660  Biso   1.000  C
  C23      1.0000 0.05710  0.92750  0.66340  Biso   1.000  C
  C24      1.0000 0.94290  0.92750  0.83660  Biso   1.000  C
  H41      1.0000 0.47700  0.54020  0.41430  Biso   1.000  H
  H42      1.0000 0.52300  0.54020  0.08570  Biso   1.000  H
  H43      1.0000 0.97700  0.04020  0.41430  Biso   1.000  H
  H44      1.0000 0.02300  0.04020  0.08570  Biso   1.000  H
  H45      1.0000 0.52300  0.45980  0.58570  Biso   1.000  H
  H46      1.0000 0.47700  0.45980  0.91430  Biso   1.000  H
  H47      1.0000 0.02300  0.95980  0.58570  Biso   1.000  H
  H48      1.0000 0.97700  0.95980  0.91430  Biso   1.000  H
  H49      1.0000 0.48210  0.62860  0.32160  Biso   1.000  H
  H50      1.0000 0.51790  0.62860  0.17840  Biso   1.000  H
  H51      1.0000 0.98210  0.12860  0.32160  Biso   1.000  H
  H52      1.0000 0.01790  0.12860  0.17840  Biso   1.000  H
  H53      1.0000 0.51790  0.37140  0.67840  Biso   1.000  H
  H54      1.0000 0.48210  0.37140  0.82160  Biso   1.000  H
  H55      1.0000 0.01790  0.87140  0.67840  Biso   1.000  H
  H56      1.0000 0.98210  0.87140  0.82160  Biso   1.000  H
  C25      1.0000 0.40771  0.85990  0.38520  Biso   1.000  C
  C26      1.0000 0.59229  0.85990  0.11480  Biso   1.000  C
  C27      1.0000 0.90771  0.35990  0.38520  Biso   1.000  C
  C28      1.0000 0.09229  0.35990  0.11480  Biso   1.000  C
  C29      1.0000 0.59229  0.14010  0.61480  Biso   1.000  C
  C30      1.0000 0.40771  0.14010  0.88520  Biso   1.000  C
  C31      1.0000 0.09229  0.64010  0.61480  Biso   1.000  C
  C32      1.0000 0.90771  0.64010  0.88520  Biso   1.000  C
  H57      1.0000 0.45960  0.90550  0.39260  Biso   1.000  H
  H58      1.0000 0.54040  0.90550  0.10740  Biso   1.000  H
  H59      1.0000 0.95960  0.40550  0.39260  Biso   1.000  H
  H60      1.0000 0.04040  0.40550  0.10740  Biso   1.000  H
  H61      1.0000 0.54040  0.09450  0.60740  Biso   1.000  H
  H62      1.0000 0.45960  0.09450  0.89260  Biso   1.000  H
  H63      1.0000 0.04040  0.59450  0.60740  Biso   1.000  H
  H64      1.0000 0.95960  0.59450  0.89260  Biso   1.000  H
  H65      1.0000 0.42410  0.82470  0.45790  Biso   1.000  H
  H66      1.0000 0.57590  0.82470  0.04210  Biso   1.000  H
  H67      1.0000 0.92410  0.32470  0.45790  Biso   1.000  H
  H68      1.0000 0.07590  0.32470  0.04210  Biso   1.000  H
  H69      1.0000 0.57590  0.17530  0.54210  Biso   1.000  H
  H70      1.0000 0.42410  0.17530  0.95790  Biso   1.000  H
  H71      1.0000 0.07590  0.67530  0.54210  Biso   1.000  H
  H72      1.0000 0.92410  0.67530  0.95790  Biso   1.000  H
  C33      1.0000 0.33875  0.00570  0.33840  Biso   1.000  C
  C34      1.0000 0.66125  0.00570  0.16160  Biso   1.000  C
  C35      1.0000 0.83875  0.50570  0.33840  Biso   1.000  C
  C36      1.0000 0.16125  0.50570  0.16160  Biso   1.000  C
  C37      1.0000 0.66125  0.99430  0.66160  Biso   1.000  C
  C38      1.0000 0.33875  0.99430  0.83840  Biso   1.000  C
  C39      1.0000 0.16125  0.49430  0.66160  Biso   1.000  C
  C40      1.0000 0.83875  0.49430  0.83840  Biso   1.000  C
