data_image0
_cell_length_a       13.2927
_cell_length_b       9.6689
_cell_length_c       18.7558
_cell_angle_alpha    90
_cell_angle_beta     107.619
_cell_angle_gamma    90

_symmetry_space_group_name_H-M    "P 1"
_symmetry_int_tables_number       1

loop_
  _symmetry_equiv_pos_as_xyz
  'x, y, z'

loop_
  _atom_site_label
  _atom_site_occupancy
  _atom_site_fract_x
  _atom_site_fract_y
  _atom_site_fract_z
  _atom_site_thermal_displace_type
  _atom_site_B_iso_or_equiv
  _atom_site_type_symbol
  Cu1      1.0000 0.92236  0.41813  0.68419  Biso   1.000  Cu
  Cu2      1.0000 0.07764  0.91813  0.81581  Biso   1.000  Cu
  Cu3      1.0000 0.07764  0.58187  0.31581  Biso   1.000  Cu
  Cu4      1.0000 0.92236  0.08187  0.18419  Biso   1.000  Cu
  O1       1.0000 0.88324  0.05809  0.56985  Biso   1.000  O
  O2       1.0000 0.11676  0.55809  0.93015  Biso   1.000  O
  O3       1.0000 0.11676  0.94191  0.43015  Biso   1.000  O
  O4       1.0000 0.88324  0.44191  0.06985  Biso   1.000  O
  O5       1.0000 0.58590  0.43820  0.69677  Biso   1.000  O
  O6       1.0000 0.41410  0.93820  0.80323  Biso   1.000  O
  O7       1.0000 0.41410  0.56180  0.30323  Biso   1.000  O
  O8       1.0000 0.58590  0.06180  0.19677  Biso   1.000  O
  O9       1.0000 0.38223  0.61132  0.56456  Biso   1.000  O
  O10      1.0000 0.61777  0.11132  0.93544  Biso   1.000  O
  O11      1.0000 0.61777  0.38868  0.43544  Biso   1.000  O
  O12      1.0000 0.38223  0.88868  0.06456  Biso   1.000  O
  O13      1.0000 0.96801  0.60737  0.71480  Biso   1.000  O
  O14      1.0000 0.03199  0.10737  0.78520  Biso   1.000  O
  O15      1.0000 0.03199  0.39263  0.28520  Biso   1.000  O
  O16      1.0000 0.96801  0.89263  0.21480  Biso   1.000  O
  O17      1.0000 0.75853  0.06384  0.67393  Biso   1.000  O
  O18      1.0000 0.24147  0.56384  0.82607  Biso   1.000  O
  O19      1.0000 0.24147  0.93616  0.32607  Biso   1.000  O
  O20      1.0000 0.75853  0.43616  0.17393  Biso   1.000  O
  N1       1.0000 0.56078  0.61841  0.58192  Biso   1.000  N
  N2       1.0000 0.43922  0.11841  0.91808  Biso   1.000  N
  N3       1.0000 0.43922  0.38159  0.41808  Biso   1.000  N
  N4       1.0000 0.56078  0.88159  0.08192  Biso   1.000  N
  O21      1.0000 0.77438  0.56445  0.61254  Biso   1.000  O
  O22      1.0000 0.22562  0.06445  0.88746  Biso   1.000  O
  O23      1.0000 0.22562  0.43555  0.38746  Biso   1.000  O
  O24      1.0000 0.77438  0.93555  0.11254  Biso   1.000  O
  N5       1.0000 0.74376  0.79743  0.61105  Biso   1.000  N
  N6       1.0000 0.25624  0.29743  0.88895  Biso   1.000  N
  N7       1.0000 0.25624  0.20257  0.38895  Biso   1.000  N
  N8       1.0000 0.74376  0.70257  0.11105  Biso   1.000  N
  N9       1.0000 0.99962  0.39066  0.60894  Biso   1.000  N
  N10      1.0000 0.00038  0.89066  0.89106  Biso   1.000  N
  N11      1.0000 0.00038  0.60934  0.39106  Biso   1.000  N
  N12      1.0000 0.99962  0.10934  0.10894  Biso   1.000  N
  O25      1.0000 0.92060  0.82699  0.72500  Biso   1.000  O
  O26      1.0000 0.07940  0.32699  0.77500  Biso   1.000  O
  O27      1.0000 0.07940  0.17301  0.27500  Biso   1.000  O
  O28      1.0000 0.92060  0.67301  0.22500  Biso   1.000  O
  C1       1.0000 0.57201  0.94188  0.43411  Biso   1.000  C
  C2       1.0000 0.42799  0.44188  0.06589  Biso   1.000  C
  C3       1.0000 0.42799  0.05812  0.56589  Biso   1.000  C
  C4       1.0000 0.57201  0.55812  0.93411  Biso   1.000  C
  H1       1.0000 0.57400  0.01650  0.40160  Biso   1.000  H
  H2       1.0000 0.42600  0.51650  0.09840  Biso   1.000  H
  H3       1.0000 0.42600  0.98350  0.59840  Biso   1.000  H
  H4       1.0000 0.57400  0.48350  0.90160  Biso   1.000  H
  C5       1.0000 0.03714  0.21903  0.52897  Biso   1.000  C
  C6       1.0000 0.96286  0.71903  0.97103  Biso   1.000  C
  C7       1.0000 0.96286  0.78097  0.47103  Biso   1.000  C
  C8       1.0000 0.03714  0.28097  0.02897  Biso   1.000  C
  H5       1.0000 0.02180  0.13190  0.50470  Biso   1.000  H
  H6       1.0000 0.97820  0.63190  0.99530  Biso   1.000  H
  H7       1.0000 0.97820  0.86810  0.49530  Biso   1.000  H
  H8       1.0000 0.02180  0.36810  0.00470  Biso   1.000  H
  C9       1.0000 0.80668  0.42093  0.87389  Biso   1.000  C
  C10      1.0000 0.19332  0.92093  0.62611  Biso   1.000  C
  C11      1.0000 0.19332  0.57907  0.12611  Biso   1.000  C
  C12      1.0000 0.80668  0.07907  0.37389  Biso   1.000  C
  H9       1.0000 0.81150  0.47740  0.91630  Biso   1.000  H
  H10      1.0000 0.18850  0.97740  0.58370  Biso   1.000  H
  H11      1.0000 0.18850  0.52260  0.08370  Biso   1.000  H
  H12      1.0000 0.81150  0.02260  0.41630  Biso   1.000  H
  N13      1.0000 0.86337  0.23838  0.64772  Biso   1.000  N
  N14      1.0000 0.13663  0.73838  0.85228  Biso   1.000  N
  N15      1.0000 0.13663  0.76162  0.35228  Biso   1.000  N
  N16      1.0000 0.86337  0.26162  0.14772  Biso   1.000  N
  C13      1.0000 0.98126  0.26544  0.57571  Biso   1.000  C
  C14      1.0000 0.01874  0.76544  0.92429  Biso   1.000  C
  C15      1.0000 0.01874  0.73456  0.42429  Biso   1.000  C
  C16      1.0000 0.98126  0.23456  0.07571  Biso   1.000  C
  N17      1.0000 0.84942  0.38382  0.76105  Biso   1.000  N
  N18      1.0000 0.15058  0.88382  0.73895  Biso   1.000  N
  N19      1.0000 0.15058  0.61618  0.23895  Biso   1.000  N
  N20      1.0000 0.84942  0.11618  0.26105  Biso   1.000  N
  C17      1.0000 0.65610  0.91900  0.49801  Biso   1.000  C
  C18      1.0000 0.34390  0.41900  0.00199  Biso   1.000  C
  C19      1.0000 0.34390  0.08100  0.50199  Biso   1.000  C
  C20      1.0000 0.65610  0.58100  0.99801  Biso   1.000  C
  H13      1.0000 0.71580  0.97840  0.50910  Biso   1.000  H
  H14      1.0000 0.28420  0.47840  0.99090  Biso   1.000  H
  H15      1.0000 0.28420  0.02160  0.49090  Biso   1.000  H
  H16      1.0000 0.71580  0.52160  0.00910  Biso   1.000  H
  C21      1.0000 0.13557  0.43087  0.55252  Biso   1.000  C
  C22      1.0000 0.86443  0.93087  0.94748  Biso   1.000  C
  C23      1.0000 0.86443  0.56913  0.44748  Biso   1.000  C
  C24      1.0000 0.13557  0.06913  0.05252  Biso   1.000  C
  H17      1.0000 0.18950  0.48930  0.54580  Biso   1.000  H
  H18      1.0000 0.81050  0.98930  0.95420  Biso   1.000  H
  H19      1.0000 0.81050  0.51070  0.45420  Biso   1.000  H
  H20      1.0000 0.18950  0.01070  0.04580  Biso   1.000  H
  C25      1.0000 0.11624  0.30294  0.51831  Biso   1.000  C
  C26      1.0000 0.88376  0.80294  0.98169  Biso   1.000  C
  C27      1.0000 0.88376  0.69706  0.48169  Biso   1.000  C
  C28      1.0000 0.11624  0.19706  0.01831  Biso   1.000  C
  H21      1.0000 0.15700  0.27240  0.48750  Biso   1.000  H
  H22      1.0000 0.84300  0.77240  0.01250  Biso   1.000  H
  H23      1.0000 0.84300  0.72760  0.51250  Biso   1.000  H
  H24      1.0000 0.15700  0.22760  0.98750  Biso   1.000  H
  C29      1.0000 0.75273  0.29668  0.86428  Biso   1.000  C
  C30      1.0000 0.24727  0.79668  0.63572  Biso   1.000  C
  C31      1.0000 0.24727  0.70332  0.13572  Biso   1.000  C
  C32      1.0000 0.75273  0.20332  0.36428  Biso   1.000  C
  H25      1.0000 0.71930  0.26700  0.89980  Biso   1.000  H
  H26      1.0000 0.28070  0.76700  0.60020  Biso   1.000  H
  H27      1.0000 0.28070  0.73300  0.10020  Biso   1.000  H
  H28      1.0000 0.71930  0.23300  0.39980  Biso   1.000  H
  C33      1.0000 0.48508  0.85503  0.41799  Biso   1.000  C
  C34      1.0000 0.51492  0.35503  0.08201  Biso   1.000  C
  C35      1.0000 0.51492  0.14497  0.58201  Biso   1.000  C
  C36      1.0000 0.48508  0.64497  0.91799  Biso   1.000  C
  H29      1.0000 0.42770  0.86950  0.37390  Biso   1.000  H
  H30      1.0000 0.57230  0.36950  0.12610  Biso   1.000  H
  H31      1.0000 0.57230  0.13050  0.62610  Biso   1.000  H
  H32      1.0000 0.42770  0.63050  0.87390  Biso   1.000  H
  C37      1.0000 0.79967  0.68279  0.63594  Biso   1.000  C
  C38      1.0000 0.20033  0.18279  0.86406  Biso   1.000  C
  C39      1.0000 0.20033  0.31721  0.36406  Biso   1.000  C
  C40      1.0000 0.79967  0.81721  0.13594  Biso   1.000  C
  C41      1.0000 0.47221  0.57426  0.59566  Biso   1.000  C
  C42      1.0000 0.52779  0.07426  0.90434  Biso   1.000  C
  C43      1.0000 0.52779  0.42574  0.40434  Biso   1.000  C
  C44      1.0000 0.47221  0.92574  0.09566  Biso   1.000  C
  C45      1.0000 0.74794  0.21569  0.80220  Biso   1.000  C
  C46      1.0000 0.25206  0.71569  0.69780  Biso   1.000  C
  C47      1.0000 0.25206  0.78431  0.19780  Biso   1.000  C
  C48      1.0000 0.74794  0.28431  0.30220  Biso   1.000  C
  H33      1.0000 0.71080  0.13030  0.79440  Biso   1.000  H
  H34      1.0000 0.28920  0.63030  0.70560  Biso   1.000  H
  H35      1.0000 0.28920  0.86970  0.20560  Biso   1.000  H
  H36      1.0000 0.71080  0.36970  0.29440  Biso   1.000  H
  C49      1.0000 0.56535  0.72391  0.53049  Biso   1.000  C
  C50      1.0000 0.43465  0.22391  0.96951  Biso   1.000  C
  C51      1.0000 0.43465  0.27609  0.46951  Biso   1.000  C
  C52      1.0000 0.56535  0.77609  0.03049  Biso   1.000  C
  C53      1.0000 0.90154  0.17453  0.59657  Biso   1.000  C
  C54      1.0000 0.09846  0.67453  0.90343  Biso   1.000  C
  C55      1.0000 0.09846  0.82547  0.40343  Biso   1.000  C
  C56      1.0000 0.90154  0.32547  0.09657  Biso   1.000  C
  C57      1.0000 0.65414  0.81026  0.54593  Biso   1.000  C
  C58      1.0000 0.34586  0.31026  0.95407  Biso   1.000  C
  C59      1.0000 0.34586  0.18974  0.45407  Biso   1.000  C
  C60      1.0000 0.65414  0.68974  0.04593  Biso   1.000  C
  C61      1.0000 0.07420  0.47205  0.59699  Biso   1.000  C
  C62      1.0000 0.92580  0.97205  0.90301  Biso   1.000  C
  C63      1.0000 0.92580  0.52795  0.40301  Biso   1.000  C
  C64      1.0000 0.07420  0.02795  0.09699  Biso   1.000  C
  H37      1.0000 0.08560  0.56090  0.61960  Biso   1.000  H
  H38      1.0000 0.91440  0.06090  0.88040  Biso   1.000  H
  H39      1.0000 0.91440  0.43910  0.38040  Biso   1.000  H
  H40      1.0000 0.08560  0.93910  0.11960  Biso   1.000  H
  C65      1.0000 0.49790  0.46916  0.66070  Biso   1.000  C
  C66      1.0000 0.50210  0.96916  0.83930  Biso   1.000  C
  C67      1.0000 0.50210  0.53084  0.33930  Biso   1.000  C
  C68      1.0000 0.49790  0.03084  0.16070  Biso   1.000  C
  C69      1.0000 0.85351  0.46151  0.82061  Biso   1.000  C
  C70      1.0000 0.14649  0.96151  0.67939  Biso   1.000  C
  C71      1.0000 0.14649  0.53849  0.17939  Biso   1.000  C
  C72      1.0000 0.85351  0.03849  0.32061  Biso   1.000  C
  H41      1.0000 0.88970  0.54750  0.82670  Biso   1.000  H
  H42      1.0000 0.11030  0.04750  0.67330  Biso   1.000  H
  H43      1.0000 0.11030  0.45250  0.17330  Biso   1.000  H
  H44      1.0000 0.88970  0.95250  0.32670  Biso   1.000  H
  C73      1.0000 0.48133  0.74729  0.46574  Biso   1.000  C
  C74      1.0000 0.51867  0.24729  0.03426  Biso   1.000  C
  C75      1.0000 0.51867  0.25271  0.53426  Biso   1.000  C
  C76      1.0000 0.48133  0.75271  0.96574  Biso   1.000  C
  H45      1.0000 0.42110  0.68880  0.45440  Biso   1.000  H
  H46      1.0000 0.57890  0.18880  0.04560  Biso   1.000  H
  H47      1.0000 0.57890  0.31120  0.54560  Biso   1.000  H
  H48      1.0000 0.42110  0.81120  0.95440  Biso   1.000  H
  C77      1.0000 0.79824  0.26162  0.75194  Biso   1.000  C
  C78      1.0000 0.20176  0.76162  0.74806  Biso   1.000  C
  C79      1.0000 0.20176  0.73838  0.24806  Biso   1.000  C
  C80      1.0000 0.79824  0.23838  0.25194  Biso   1.000  C
  C81      1.0000 0.80391  0.17540  0.68609  Biso   1.000  C
  C82      1.0000 0.19609  0.67540  0.81391  Biso   1.000  C
  C83      1.0000 0.19609  0.82460  0.31391  Biso   1.000  C
  C84      1.0000 0.80391  0.32460  0.18609  Biso   1.000  C
  C85      1.0000 0.90562  0.71024  0.69815  Biso   1.000  C
  C86      1.0000 0.09438  0.21024  0.80185  Biso   1.000  C
  C87      1.0000 0.09438  0.28976  0.30185  Biso   1.000  C
  C88      1.0000 0.90562  0.78976  0.19815  Biso   1.000  C
  O29      1.0000 0.40957  0.42225  0.67049  Biso   1.000  O
  O30      1.0000 0.59043  0.92225  0.82951  Biso   1.000  O
  O31      1.0000 0.59043  0.57775  0.32951  Biso   1.000  O
  O32      1.0000 0.40957  0.07775  0.17049  Biso   1.000  O
  C89      1.0000 0.42195  0.31820  0.72973  Biso   1.000  C
  C90      1.0000 0.57805  0.81820  0.77027  Biso   1.000  C
  C91      1.0000 0.57805  0.68180  0.27027  Biso   1.000  C
  C92      1.0000 0.42195  0.18180  0.22973  Biso   1.000  C
  H49      1.0000 0.44550  0.36250  0.77960  Biso   1.000  H
  H50      1.0000 0.55450  0.86250  0.72040  Biso   1.000  H
  H51      1.0000 0.55450  0.63750  0.22040  Biso   1.000  H
  H52      1.0000 0.44550  0.13750  0.27960  Biso   1.000  H
  H53      1.0000 0.47480  0.24790  0.72700  Biso   1.000  H
  H54      1.0000 0.52520  0.74790  0.77300  Biso   1.000  H
  H55      1.0000 0.52520  0.75210  0.27300  Biso   1.000  H
  H56      1.0000 0.47480  0.25210  0.22700  Biso   1.000  H
  C93      1.0000 0.31650  0.25320  0.71686  Biso   1.000  C
  C94      1.0000 0.68350  0.75320  0.78314  Biso   1.000  C
  C95      1.0000 0.68350  0.74680  0.28314  Biso   1.000  C
  C96      1.0000 0.31650  0.24680  0.21686  Biso   1.000  C
  H57      1.0000 0.26640  0.32250  0.72360  Biso   1.000  H
  H58      1.0000 0.73360  0.82250  0.77640  Biso   1.000  H
  H59      1.0000 0.73360  0.67750  0.27640  Biso   1.000  H
  H60      1.0000 0.26640  0.17750  0.22360  Biso   1.000  H
  H61      1.0000 0.32200  0.17760  0.75270  Biso   1.000  H
  H62      1.0000 0.67800  0.67760  0.74730  Biso   1.000  H
  H63      1.0000 0.67800  0.82240  0.24730  Biso   1.000  H
  H64      1.0000 0.32200  0.32240  0.25270  Biso   1.000  H
  H65      1.0000 0.29170  0.21650  0.66580  Biso   1.000  H
  H66      1.0000 0.70830  0.71650  0.83420  Biso   1.000  H
  H67      1.0000 0.70830  0.78350  0.33420  Biso   1.000  H
  H68      1.0000 0.29170  0.28350  0.16580  Biso   1.000  H
  H69      1.0000 0.77350  0.87560  0.63230  Biso   1.000  H
  H70      1.0000 0.22650  0.37560  0.86770  Biso   1.000  H
  H71      1.0000 0.22650  0.12440  0.36770  Biso   1.000  H
  H72      1.0000 0.77350  0.62440  0.13230  Biso   1.000  H
  H73      1.0000 0.62010  0.57500  0.60540  Biso   1.000  H
  H74      1.0000 0.37990  0.07500  0.89460  Biso   1.000  H
  H75      1.0000 0.37990  0.42500  0.39460  Biso   1.000  H
  H76      1.0000 0.62010  0.92500  0.10540  Biso   1.000  H
