data_image0
_cell_length_a       12.1097
_cell_length_b       12.7228
_cell_length_c       25.46
_cell_angle_alpha    90
_cell_angle_beta     90
_cell_angle_gamma    90

_symmetry_space_group_name_H-M    "P 1"
_symmetry_int_tables_number       1

loop_
  _symmetry_equiv_pos_as_xyz
  'x, y, z'

loop_
  _atom_site_label
  _atom_site_occupancy
  _atom_site_fract_x
  _atom_site_fract_y
  _atom_site_fract_z
  _atom_site_thermal_displace_type
  _atom_site_B_iso_or_equiv
  _atom_site_type_symbol
  Cu1      1.0000 0.33070  0.14424  0.74351  Biso   1.000  Cu
  Cu2      1.0000 0.16930  0.85576  0.24351  Biso   1.000  Cu
  Cu3      1.0000 0.83070  0.35576  0.25649  Biso   1.000  Cu
  Cu4      1.0000 0.66930  0.64424  0.75649  Biso   1.000  Cu
  Cu5      1.0000 0.66930  0.85576  0.25649  Biso   1.000  Cu
  Cu6      1.0000 0.83070  0.14424  0.75649  Biso   1.000  Cu
  Cu7      1.0000 0.16930  0.64424  0.74351  Biso   1.000  Cu
  Cu8      1.0000 0.33070  0.35576  0.24351  Biso   1.000  Cu
  Cl1      1.0000 0.29359  0.24731  0.95875  Biso   1.000  Cl
  Cl2      1.0000 0.20641  0.75269  0.45875  Biso   1.000  Cl
  Cl3      1.0000 0.79359  0.25269  0.04125  Biso   1.000  Cl
  Cl4      1.0000 0.70641  0.74731  0.54125  Biso   1.000  Cl
  Cl5      1.0000 0.70641  0.75269  0.04125  Biso   1.000  Cl
  Cl6      1.0000 0.79359  0.24731  0.54125  Biso   1.000  Cl
  Cl7      1.0000 0.20641  0.74731  0.95875  Biso   1.000  Cl
  Cl8      1.0000 0.29359  0.25269  0.45875  Biso   1.000  Cl
  O1       1.0000 0.35870  0.16286  0.67086  Biso   1.000  O
  O2       1.0000 0.14130  0.83714  0.17086  Biso   1.000  O
  O3       1.0000 0.85870  0.33714  0.32914  Biso   1.000  O
  O4       1.0000 0.64130  0.66286  0.82914  Biso   1.000  O
  O5       1.0000 0.64130  0.83714  0.32914  Biso   1.000  O
  O6       1.0000 0.85870  0.16286  0.82914  Biso   1.000  O
  O7       1.0000 0.14130  0.66286  0.67086  Biso   1.000  O
  O8       1.0000 0.35870  0.33714  0.17086  Biso   1.000  O
  O9       1.0000 0.22660  0.05254  0.91314  Biso   1.000  O
  O10      1.0000 0.27340  0.94746  0.41314  Biso   1.000  O
  O11      1.0000 0.72660  0.44746  0.08686  Biso   1.000  O
  O12      1.0000 0.77340  0.55254  0.58686  Biso   1.000  O
  O13      1.0000 0.77340  0.94746  0.08686  Biso   1.000  O
  O14      1.0000 0.72660  0.05254  0.58686  Biso   1.000  O
  O15      1.0000 0.27340  0.55254  0.91314  Biso   1.000  O
  O16      1.0000 0.22660  0.44746  0.41314  Biso   1.000  O
  O17      1.0000 0.28663  0.11455  0.81582  Biso   1.000  O
  O18      1.0000 0.21337  0.88545  0.31582  Biso   1.000  O
  O19      1.0000 0.78663  0.38545  0.18418  Biso   1.000  O
  O20      1.0000 0.71337  0.61455  0.68418  Biso   1.000  O
  O21      1.0000 0.71337  0.88545  0.18418  Biso   1.000  O
  O22      1.0000 0.78663  0.11455  0.68418  Biso   1.000  O
  O23      1.0000 0.21337  0.61455  0.81582  Biso   1.000  O
  O24      1.0000 0.28663  0.38545  0.31582  Biso   1.000  O
  O25      1.0000 0.64883  0.22791  0.76452  Biso   1.000  O
  O26      1.0000 0.85117  0.77209  0.26452  Biso   1.000  O
  O27      1.0000 0.14883  0.27209  0.23548  Biso   1.000  O
  O28      1.0000 0.35117  0.72791  0.73548  Biso   1.000  O
  O29      1.0000 0.35117  0.77209  0.23548  Biso   1.000  O
  O30      1.0000 0.14883  0.22791  0.73548  Biso   1.000  O
  O31      1.0000 0.85117  0.72791  0.76452  Biso   1.000  O
  O32      1.0000 0.64883  0.27209  0.26452  Biso   1.000  O
  N1       1.0000 0.27200  0.00459  0.73382  Biso   1.000  N
  N2       1.0000 0.22800  0.99541  0.23382  Biso   1.000  N
  N3       1.0000 0.77200  0.49541  0.26618  Biso   1.000  N
  N4       1.0000 0.72800  0.50459  0.76618  Biso   1.000  N
  N5       1.0000 0.72800  0.99541  0.26618  Biso   1.000  N
  N6       1.0000 0.77200  0.00459  0.76618  Biso   1.000  N
  N7       1.0000 0.22800  0.50459  0.73382  Biso   1.000  N
  N8       1.0000 0.27200  0.49541  0.23382  Biso   1.000  N
  N9       1.0000 0.22730  0.95879  0.77925  Biso   1.000  N
  N10      1.0000 0.27270  0.04121  0.27925  Biso   1.000  N
  N11      1.0000 0.72730  0.54121  0.22075  Biso   1.000  N
  N12      1.0000 0.77270  0.45879  0.72075  Biso   1.000  N
  N13      1.0000 0.77270  0.04121  0.22075  Biso   1.000  N
  N14      1.0000 0.72730  0.95879  0.72075  Biso   1.000  N
  N15      1.0000 0.27270  0.45879  0.77925  Biso   1.000  N
  N16      1.0000 0.22730  0.54121  0.27925  Biso   1.000  N
  N17      1.0000 0.41780  0.27242  0.76592  Biso   1.000  N
  N18      1.0000 0.08220  0.72758  0.26592  Biso   1.000  N
  N19      1.0000 0.91780  0.22758  0.23408  Biso   1.000  N
  N20      1.0000 0.58220  0.77242  0.73408  Biso   1.000  N
  N21      1.0000 0.58220  0.72758  0.23408  Biso   1.000  N
  N22      1.0000 0.91780  0.27242  0.73408  Biso   1.000  N
  N23      1.0000 0.08220  0.77242  0.76592  Biso   1.000  N
  N24      1.0000 0.41780  0.22758  0.26592  Biso   1.000  N
  H1       1.0000 0.36710  0.32300  0.77340  Biso   1.000  H
  H2       1.0000 0.13290  0.67700  0.27340  Biso   1.000  H
  H3       1.0000 0.86710  0.17700  0.22660  Biso   1.000  H
  H4       1.0000 0.63290  0.82300  0.72660  Biso   1.000  H
  H5       1.0000 0.63290  0.67700  0.22660  Biso   1.000  H
  H6       1.0000 0.86710  0.32300  0.72660  Biso   1.000  H
  H7       1.0000 0.13290  0.82300  0.77340  Biso   1.000  H
  H8       1.0000 0.36710  0.17700  0.27340  Biso   1.000  H
  C1       1.0000 0.31480  0.98650  0.64183  Biso   1.000  C
  C2       1.0000 0.18520  0.01350  0.14183  Biso   1.000  C
  C3       1.0000 0.81480  0.51350  0.35817  Biso   1.000  C
  C4       1.0000 0.68520  0.48650  0.85817  Biso   1.000  C
  C5       1.0000 0.68520  0.01350  0.35817  Biso   1.000  C
  C6       1.0000 0.81480  0.98650  0.85817  Biso   1.000  C
  C7       1.0000 0.18520  0.48650  0.64183  Biso   1.000  C
  C8       1.0000 0.31480  0.51350  0.14183  Biso   1.000  C
  C9       1.0000 0.31500  0.91490  0.59935  Biso   1.000  C
  C10      1.0000 0.18500  0.08510  0.09935  Biso   1.000  C
  C11      1.0000 0.81500  0.58510  0.40065  Biso   1.000  C
  C12      1.0000 0.68500  0.41490  0.90065  Biso   1.000  C
  C13      1.0000 0.68500  0.08510  0.40065  Biso   1.000  C
  C14      1.0000 0.81500  0.91490  0.90065  Biso   1.000  C
  C15      1.0000 0.18500  0.41490  0.59935  Biso   1.000  C
  C16      1.0000 0.31500  0.58510  0.09935  Biso   1.000  C
  H9       1.0000 0.28970  0.84670  0.60460  Biso   1.000  H
  H10      1.0000 0.21030  0.15330  0.10460  Biso   1.000  H
  H11      1.0000 0.78970  0.65330  0.39540  Biso   1.000  H
  H12      1.0000 0.71030  0.34670  0.89540  Biso   1.000  H
  H13      1.0000 0.71030  0.15330  0.39540  Biso   1.000  H
  H14      1.0000 0.78970  0.84670  0.89540  Biso   1.000  H
  H15      1.0000 0.21030  0.34670  0.60460  Biso   1.000  H
  H16      1.0000 0.28970  0.65330  0.10460  Biso   1.000  H
  C17      1.0000 0.35160  0.94400  0.55069  Biso   1.000  C
  C18      1.0000 0.14840  0.05600  0.05069  Biso   1.000  C
  C19      1.0000 0.85160  0.55600  0.44931  Biso   1.000  C
  C20      1.0000 0.64840  0.44400  0.94931  Biso   1.000  C
  C21      1.0000 0.64840  0.05600  0.44931  Biso   1.000  C
  C22      1.0000 0.85160  0.94400  0.94931  Biso   1.000  C
  C23      1.0000 0.14840  0.44400  0.55069  Biso   1.000  C
  C24      1.0000 0.35160  0.55600  0.05069  Biso   1.000  C
  H17      1.0000 0.35010  0.89640  0.52300  Biso   1.000  H
  H18      1.0000 0.14990  0.10360  0.02300  Biso   1.000  H
  H19      1.0000 0.85010  0.60360  0.47700  Biso   1.000  H
  H20      1.0000 0.64990  0.39640  0.97700  Biso   1.000  H
  H21      1.0000 0.64990  0.10360  0.47700  Biso   1.000  H
  H22      1.0000 0.85010  0.89640  0.97700  Biso   1.000  H
  H23      1.0000 0.14990  0.39640  0.52300  Biso   1.000  H
  H24      1.0000 0.35010  0.60360  0.02300  Biso   1.000  H
  C25      1.0000 0.39080  0.04450  0.54306  Biso   1.000  C
  C26      1.0000 0.10920  0.95550  0.04306  Biso   1.000  C
  C27      1.0000 0.89080  0.45550  0.45694  Biso   1.000  C
  C28      1.0000 0.60920  0.54450  0.95694  Biso   1.000  C
  C29      1.0000 0.60920  0.95550  0.45694  Biso   1.000  C
  C30      1.0000 0.89080  0.04450  0.95694  Biso   1.000  C
  C31      1.0000 0.10920  0.54450  0.54306  Biso   1.000  C
  C32      1.0000 0.39080  0.45550  0.04306  Biso   1.000  C
  H25      1.0000 0.41630  0.06440  0.51010  Biso   1.000  H
  H26      1.0000 0.08370  0.93560  0.01010  Biso   1.000  H
  H27      1.0000 0.91630  0.43560  0.48990  Biso   1.000  H
  H28      1.0000 0.58370  0.56440  0.98990  Biso   1.000  H
  H29      1.0000 0.58370  0.93560  0.48990  Biso   1.000  H
  H30      1.0000 0.91630  0.06440  0.98990  Biso   1.000  H
  H31      1.0000 0.08370  0.56440  0.51010  Biso   1.000  H
  H32      1.0000 0.41630  0.43560  0.01010  Biso   1.000  H
  C33      1.0000 0.39250  0.11550  0.58357  Biso   1.000  C
  C34      1.0000 0.10750  0.88450  0.08357  Biso   1.000  C
  C35      1.0000 0.89250  0.38450  0.41643  Biso   1.000  C
  C36      1.0000 0.60750  0.61550  0.91643  Biso   1.000  C
  C37      1.0000 0.60750  0.88450  0.41643  Biso   1.000  C
  C38      1.0000 0.89250  0.11550  0.91643  Biso   1.000  C
  C39      1.0000 0.10750  0.61550  0.58357  Biso   1.000  C
  C40      1.0000 0.39250  0.38450  0.08357  Biso   1.000  C
  H33      1.0000 0.41950  0.18270  0.57730  Biso   1.000  H
  H34      1.0000 0.08050  0.81730  0.07730  Biso   1.000  H
  H35      1.0000 0.91950  0.31730  0.42270  Biso   1.000  H
  H36      1.0000 0.58050  0.68270  0.92270  Biso   1.000  H
  H37      1.0000 0.58050  0.81730  0.42270  Biso   1.000  H
  H38      1.0000 0.91950  0.18270  0.92270  Biso   1.000  H
  H39      1.0000 0.08050  0.68270  0.57730  Biso   1.000  H
  H40      1.0000 0.41950  0.31730  0.07730  Biso   1.000  H
  C41      1.0000 0.35500  0.09010  0.63397  Biso   1.000  C
  C42      1.0000 0.14500  0.90990  0.13397  Biso   1.000  C
  C43      1.0000 0.85500  0.40990  0.36603  Biso   1.000  C
  C44      1.0000 0.64500  0.59010  0.86603  Biso   1.000  C
  C45      1.0000 0.64500  0.90990  0.36603  Biso   1.000  C
  C46      1.0000 0.85500  0.09010  0.86603  Biso   1.000  C
  C47      1.0000 0.14500  0.59010  0.63397  Biso   1.000  C
  C48      1.0000 0.35500  0.40990  0.13397  Biso   1.000  C
  C49      1.0000 0.27210  0.94980  0.69113  Biso   1.000  C
  C50      1.0000 0.22790  0.05020  0.19113  Biso   1.000  C
  C51      1.0000 0.77210  0.55020  0.30887  Biso   1.000  C
  C52      1.0000 0.72790  0.44980  0.80887  Biso   1.000  C
  C53      1.0000 0.72790  0.05020  0.30887  Biso   1.000  C
  C54      1.0000 0.77210  0.94980  0.80887  Biso   1.000  C
  C55      1.0000 0.22790  0.44980  0.69113  Biso   1.000  C
  C56      1.0000 0.27210  0.55020  0.19113  Biso   1.000  C
  H41      1.0000 0.24270  0.88230  0.69240  Biso   1.000  H
  H42      1.0000 0.25730  0.11770  0.19240  Biso   1.000  H
  H43      1.0000 0.74270  0.61770  0.30760  Biso   1.000  H
  H44      1.0000 0.75730  0.38230  0.80760  Biso   1.000  H
  H45      1.0000 0.75730  0.11770  0.30760  Biso   1.000  H
  H46      1.0000 0.74270  0.88230  0.80760  Biso   1.000  H
  H47      1.0000 0.25730  0.38230  0.69240  Biso   1.000  H
  H48      1.0000 0.24270  0.61770  0.19240  Biso   1.000  H
  C57      1.0000 0.23890  0.02520  0.81830  Biso   1.000  C
  C58      1.0000 0.26110  0.97480  0.31830  Biso   1.000  C
  C59      1.0000 0.73890  0.47480  0.18170  Biso   1.000  C
  C60      1.0000 0.76110  0.52520  0.68170  Biso   1.000  C
  C61      1.0000 0.76110  0.97480  0.18170  Biso   1.000  C
  C62      1.0000 0.73890  0.02520  0.68170  Biso   1.000  C
  C63      1.0000 0.26110  0.52520  0.81830  Biso   1.000  C
  C64      1.0000 0.23890  0.47480  0.31830  Biso   1.000  C
  C65      1.0000 0.18750  0.99240  0.87037  Biso   1.000  C
  C66      1.0000 0.31250  0.00760  0.37037  Biso   1.000  C
  C67      1.0000 0.68750  0.50760  0.12963  Biso   1.000  C
  C68      1.0000 0.81250  0.49240  0.62963  Biso   1.000  C
  C69      1.0000 0.81250  0.00760  0.12963  Biso   1.000  C
  C70      1.0000 0.68750  0.99240  0.62963  Biso   1.000  C
  C71      1.0000 0.31250  0.49240  0.87037  Biso   1.000  C
  C72      1.0000 0.18750  0.50760  0.37037  Biso   1.000  C
  H49      1.0000 0.10790  0.99980  0.86810  Biso   1.000  H
  H50      1.0000 0.39210  0.00020  0.36810  Biso   1.000  H
  H51      1.0000 0.60790  0.50020  0.13190  Biso   1.000  H
  H52      1.0000 0.89210  0.49980  0.63190  Biso   1.000  H
  H53      1.0000 0.89210  0.00020  0.13190  Biso   1.000  H
  H54      1.0000 0.60790  0.99980  0.63190  Biso   1.000  H
  H55      1.0000 0.39210  0.49980  0.86810  Biso   1.000  H
  H56      1.0000 0.10790  0.50020  0.36810  Biso   1.000  H
  H57      1.0000 0.20370  0.91880  0.87670  Biso   1.000  H
  H58      1.0000 0.29630  0.08120  0.37670  Biso   1.000  H
  H59      1.0000 0.70370  0.58120  0.12330  Biso   1.000  H
  H60      1.0000 0.79630  0.41880  0.62330  Biso   1.000  H
  H61      1.0000 0.79630  0.08120  0.12330  Biso   1.000  H
  H62      1.0000 0.70370  0.91880  0.62330  Biso   1.000  H
  H63      1.0000 0.29630  0.41880  0.87670  Biso   1.000  H
  H64      1.0000 0.20370  0.58120  0.37670  Biso   1.000  H
  C73      1.0000 0.33770  0.05400  0.92159  Biso   1.000  C
  C74      1.0000 0.16230  0.94600  0.42159  Biso   1.000  C
  C75      1.0000 0.83770  0.44600  0.07841  Biso   1.000  C
  C76      1.0000 0.66230  0.55400  0.57841  Biso   1.000  C
  C77      1.0000 0.66230  0.94600  0.07841  Biso   1.000  C
  C78      1.0000 0.83770  0.05400  0.57841  Biso   1.000  C
  C79      1.0000 0.16230  0.55400  0.92159  Biso   1.000  C
  C80      1.0000 0.33770  0.44600  0.42159  Biso   1.000  C
  C81      1.0000 0.40910  0.97300  0.90935  Biso   1.000  C
  C82      1.0000 0.09090  0.02700  0.40935  Biso   1.000  C
  C83      1.0000 0.90910  0.52700  0.09065  Biso   1.000  C
  C84      1.0000 0.59090  0.47300  0.59065  Biso   1.000  C
  C85      1.0000 0.59090  0.02700  0.09065  Biso   1.000  C
  C86      1.0000 0.90910  0.97300  0.59065  Biso   1.000  C
  C87      1.0000 0.09090  0.47300  0.90935  Biso   1.000  C
  C88      1.0000 0.40910  0.52700  0.40935  Biso   1.000  C
  H65      1.0000 0.38150  0.91240  0.89370  Biso   1.000  H
  H66      1.0000 0.11850  0.08760  0.39370  Biso   1.000  H
  H67      1.0000 0.88150  0.58760  0.10630  Biso   1.000  H
  H68      1.0000 0.61850  0.41240  0.60630  Biso   1.000  H
  H69      1.0000 0.61850  0.08760  0.10630  Biso   1.000  H
  H70      1.0000 0.88150  0.91240  0.60630  Biso   1.000  H
  H71      1.0000 0.11850  0.41240  0.89370  Biso   1.000  H
  H72      1.0000 0.38150  0.58760  0.39370  Biso   1.000  H
  C89      1.0000 0.52020  0.98020  0.91986  Biso   1.000  C
  C90      1.0000 0.97980  0.01980  0.41986  Biso   1.000  C
  C91      1.0000 0.02020  0.51980  0.08014  Biso   1.000  C
  C92      1.0000 0.47980  0.48020  0.58014  Biso   1.000  C
  C93      1.0000 0.47980  0.01980  0.08014  Biso   1.000  C
  C94      1.0000 0.02020  0.98020  0.58014  Biso   1.000  C
  C95      1.0000 0.97980  0.48020  0.91986  Biso   1.000  C
  C96      1.0000 0.52020  0.51980  0.41986  Biso   1.000  C
  H73      1.0000 0.56690  0.92490  0.91110  Biso   1.000  H
  H74      1.0000 0.93310  0.07510  0.41110  Biso   1.000  H
  H75      1.0000 0.06690  0.57510  0.08890  Biso   1.000  H
  H76      1.0000 0.43310  0.42490  0.58890  Biso   1.000  H
  H77      1.0000 0.43310  0.07510  0.08890  Biso   1.000  H
  H78      1.0000 0.06690  0.92490  0.58890  Biso   1.000  H
  H79      1.0000 0.93310  0.42490  0.91110  Biso   1.000  H
  H80      1.0000 0.56690  0.57510  0.41110  Biso   1.000  H
  C97      1.0000 0.56180  0.06720  0.94280  Biso   1.000  C
  C98      1.0000 0.93820  0.93280  0.44280  Biso   1.000  C
  C99      1.0000 0.06180  0.43280  0.05720  Biso   1.000  C
  C100     1.0000 0.43820  0.56720  0.55720  Biso   1.000  C
  C101     1.0000 0.43820  0.93280  0.05720  Biso   1.000  C
  C102     1.0000 0.06180  0.06720  0.55720  Biso   1.000  C
  C103     1.0000 0.93820  0.56720  0.94280  Biso   1.000  C
  C104     1.0000 0.56180  0.43280  0.44280  Biso   1.000  C
  H81      1.0000 0.63700  0.07140  0.94990  Biso   1.000  H
  H82      1.0000 0.86300  0.92860  0.44990  Biso   1.000  H
  H83      1.0000 0.13700  0.42860  0.05010  Biso   1.000  H
  H84      1.0000 0.36300  0.57140  0.55010  Biso   1.000  H
  H85      1.0000 0.36300  0.92860  0.05010  Biso   1.000  H
  H86      1.0000 0.13700  0.07140  0.55010  Biso   1.000  H
  H87      1.0000 0.86300  0.57140  0.94990  Biso   1.000  H
  H88      1.0000 0.63700  0.42860  0.44990  Biso   1.000  H
  C105     1.0000 0.49370  0.15000  0.95590  Biso   1.000  C
  C106     1.0000 0.00630  0.85000  0.45590  Biso   1.000  C
  C107     1.0000 0.99370  0.35000  0.04410  Biso   1.000  C
  C108     1.0000 0.50630  0.65000  0.54410  Biso   1.000  C
  C109     1.0000 0.50630  0.85000  0.04410  Biso   1.000  C
  C110     1.0000 0.99370  0.15000  0.54410  Biso   1.000  C
  C111     1.0000 0.00630  0.65000  0.95590  Biso   1.000  C
  C112     1.0000 0.49370  0.35000  0.45590  Biso   1.000  C
  H89      1.0000 0.52260  0.20980  0.97180  Biso   1.000  H
  H90      1.0000 0.97740  0.79020  0.47180  Biso   1.000  H
  H91      1.0000 0.02260  0.29020  0.02820  Biso   1.000  H
  H92      1.0000 0.47740  0.70980  0.52820  Biso   1.000  H
  H93      1.0000 0.47740  0.79020  0.02820  Biso   1.000  H
  H94      1.0000 0.02260  0.20980  0.52820  Biso   1.000  H
  H95      1.0000 0.97740  0.70980  0.97180  Biso   1.000  H
  H96      1.0000 0.52260  0.29020  0.47180  Biso   1.000  H
  C113     1.0000 0.38020  0.14330  0.94509  Biso   1.000  C
  C114     1.0000 0.11980  0.85670  0.44509  Biso   1.000  C
  C115     1.0000 0.88020  0.35670  0.05491  Biso   1.000  C
  C116     1.0000 0.61980  0.64330  0.55491  Biso   1.000  C
  C117     1.0000 0.61980  0.85670  0.05491  Biso   1.000  C
  C118     1.0000 0.88020  0.14330  0.55491  Biso   1.000  C
  C119     1.0000 0.11980  0.64330  0.94509  Biso   1.000  C
  C120     1.0000 0.38020  0.35670  0.44509  Biso   1.000  C
  C121     1.0000 0.49300  0.31860  0.72579  Biso   1.000  C
  C122     1.0000 0.00700  0.68140  0.22579  Biso   1.000  C
  C123     1.0000 0.99300  0.18140  0.27421  Biso   1.000  C
  C124     1.0000 0.50700  0.81860  0.77421  Biso   1.000  C
  C125     1.0000 0.50700  0.68140  0.27421  Biso   1.000  C
  C126     1.0000 0.99300  0.31860  0.77421  Biso   1.000  C
  C127     1.0000 0.00700  0.81860  0.72579  Biso   1.000  C
  C128     1.0000 0.49300  0.18140  0.22579  Biso   1.000  C
  H97      1.0000 0.51930  0.38650  0.73770  Biso   1.000  H
  H98      1.0000 0.98070  0.61350  0.23770  Biso   1.000  H
  H99      1.0000 0.01930  0.11350  0.26230  Biso   1.000  H
  H100     1.0000 0.48070  0.88650  0.76230  Biso   1.000  H
  H101     1.0000 0.48070  0.61350  0.26230  Biso   1.000  H
  H102     1.0000 0.01930  0.38650  0.76230  Biso   1.000  H
  H103     1.0000 0.98070  0.88650  0.73770  Biso   1.000  H
  H104     1.0000 0.51930  0.11350  0.23770  Biso   1.000  H
  H105     1.0000 0.45330  0.32870  0.69310  Biso   1.000  H
  H106     1.0000 0.04670  0.67130  0.19310  Biso   1.000  H
  H107     1.0000 0.95330  0.17130  0.30690  Biso   1.000  H
  H108     1.0000 0.54670  0.82870  0.80690  Biso   1.000  H
  H109     1.0000 0.54670  0.67130  0.30690  Biso   1.000  H
  H110     1.0000 0.95330  0.32870  0.80690  Biso   1.000  H
  H111     1.0000 0.04670  0.82870  0.69310  Biso   1.000  H
  H112     1.0000 0.45330  0.17130  0.19310  Biso   1.000  H
  C129     1.0000 0.58920  0.24620  0.71704  Biso   1.000  C
  C130     1.0000 0.91080  0.75380  0.21704  Biso   1.000  C
  C131     1.0000 0.08920  0.25380  0.28296  Biso   1.000  C
  C132     1.0000 0.41080  0.74620  0.78296  Biso   1.000  C
  C133     1.0000 0.41080  0.75380  0.28296  Biso   1.000  C
  C134     1.0000 0.08920  0.24620  0.78296  Biso   1.000  C
  C135     1.0000 0.91080  0.74620  0.71704  Biso   1.000  C
  C136     1.0000 0.58920  0.25380  0.21704  Biso   1.000  C
  H113     1.0000 0.56260  0.17970  0.70330  Biso   1.000  H
  H114     1.0000 0.93740  0.82030  0.20330  Biso   1.000  H
  H115     1.0000 0.06260  0.32030  0.29670  Biso   1.000  H
  H116     1.0000 0.43740  0.67970  0.79670  Biso   1.000  H
  H117     1.0000 0.43740  0.82030  0.29670  Biso   1.000  H
  H118     1.0000 0.06260  0.17970  0.79670  Biso   1.000  H
  H119     1.0000 0.93740  0.67970  0.70330  Biso   1.000  H
  H120     1.0000 0.56260  0.32030  0.20330  Biso   1.000  H
  H121     1.0000 0.63840  0.27680  0.69110  Biso   1.000  H
  H122     1.0000 0.86160  0.72320  0.19110  Biso   1.000  H
  H123     1.0000 0.13840  0.22320  0.30890  Biso   1.000  H
  H124     1.0000 0.36160  0.77680  0.80890  Biso   1.000  H
  H125     1.0000 0.36160  0.72320  0.30890  Biso   1.000  H
  H126     1.0000 0.13840  0.27680  0.80890  Biso   1.000  H
  H127     1.0000 0.86160  0.77680  0.69110  Biso   1.000  H
  H128     1.0000 0.63840  0.22320  0.19110  Biso   1.000  H
  C137     1.0000 0.57800  0.18400  0.80407  Biso   1.000  C
  C138     1.0000 0.92200  0.81600  0.30407  Biso   1.000  C
  C139     1.0000 0.07800  0.31600  0.19593  Biso   1.000  C
  C140     1.0000 0.42200  0.68400  0.69593  Biso   1.000  C
  C141     1.0000 0.42200  0.81600  0.19593  Biso   1.000  C
  C142     1.0000 0.07800  0.18400  0.69593  Biso   1.000  C
  C143     1.0000 0.92200  0.68400  0.80407  Biso   1.000  C
  C144     1.0000 0.57800  0.31600  0.30407  Biso   1.000  C
  H129     1.0000 0.61980  0.17330  0.83610  Biso   1.000  H
  H130     1.0000 0.88020  0.82670  0.33610  Biso   1.000  H
  H131     1.0000 0.11980  0.32670  0.16390  Biso   1.000  H
  H132     1.0000 0.38020  0.67330  0.66390  Biso   1.000  H
  H133     1.0000 0.38020  0.82670  0.16390  Biso   1.000  H
  H134     1.0000 0.11980  0.17330  0.66390  Biso   1.000  H
  H135     1.0000 0.88020  0.67330  0.83610  Biso   1.000  H
  H136     1.0000 0.61980  0.32670  0.33610  Biso   1.000  H
  H137     1.0000 0.55090  0.11620  0.79240  Biso   1.000  H
  H138     1.0000 0.94910  0.88380  0.29240  Biso   1.000  H
  H139     1.0000 0.05090  0.38380  0.20760  Biso   1.000  H
  H140     1.0000 0.44910  0.61620  0.70760  Biso   1.000  H
  H141     1.0000 0.44910  0.88380  0.20760  Biso   1.000  H
  H142     1.0000 0.05090  0.11620  0.70760  Biso   1.000  H
  H143     1.0000 0.94910  0.61620  0.79240  Biso   1.000  H
  H144     1.0000 0.55090  0.38380  0.29240  Biso   1.000  H
  C145     1.0000 0.48150  0.25560  0.81505  Biso   1.000  C
  C146     1.0000 0.01850  0.74440  0.31505  Biso   1.000  C
  C147     1.0000 0.98150  0.24440  0.18495  Biso   1.000  C
  C148     1.0000 0.51850  0.75560  0.68495  Biso   1.000  C
  C149     1.0000 0.51850  0.74440  0.18495  Biso   1.000  C
  C150     1.0000 0.98150  0.25560  0.68495  Biso   1.000  C
  C151     1.0000 0.01850  0.75560  0.81505  Biso   1.000  C
  C152     1.0000 0.48150  0.24440  0.31505  Biso   1.000  C
  H145     1.0000 0.43430  0.22440  0.84150  Biso   1.000  H
  H146     1.0000 0.06570  0.77560  0.34150  Biso   1.000  H
  H147     1.0000 0.93430  0.27560  0.15850  Biso   1.000  H
  H148     1.0000 0.56570  0.72440  0.65850  Biso   1.000  H
  H149     1.0000 0.56570  0.77560  0.15850  Biso   1.000  H
  H150     1.0000 0.93430  0.22440  0.65850  Biso   1.000  H
  H151     1.0000 0.06570  0.72440  0.84150  Biso   1.000  H
  H152     1.0000 0.43430  0.27560  0.34150  Biso   1.000  H
  H153     1.0000 0.50800  0.32250  0.82830  Biso   1.000  H
  H154     1.0000 0.99200  0.67750  0.32830  Biso   1.000  H
  H155     1.0000 0.00800  0.17750  0.17170  Biso   1.000  H
  H156     1.0000 0.49200  0.82250  0.67170  Biso   1.000  H
  H157     1.0000 0.49200  0.67750  0.17170  Biso   1.000  H
  H158     1.0000 0.00800  0.32250  0.67170  Biso   1.000  H
  H159     1.0000 0.99200  0.82250  0.82830  Biso   1.000  H
  H160     1.0000 0.50800  0.17750  0.32830  Biso   1.000  H
