data_image0
_cell_length_a       9.962
_cell_length_b       10.1592
_cell_length_c       13.7049
_cell_angle_alpha    100.607
_cell_angle_beta     107.197
_cell_angle_gamma    102.838

_symmetry_space_group_name_H-M    "P 1"
_symmetry_int_tables_number       1

loop_
  _symmetry_equiv_pos_as_xyz
  'x, y, z'

loop_
  _atom_site_label
  _atom_site_occupancy
  _atom_site_fract_x
  _atom_site_fract_y
  _atom_site_fract_z
  _atom_site_thermal_displace_type
  _atom_site_B_iso_or_equiv
  _atom_site_type_symbol
  Cu1      1.0000 0.42651  0.13624  0.03034  Biso   1.000  Cu
  Cu2      1.0000 0.57349  0.86376  0.96966  Biso   1.000  Cu
  Mo1      1.0000 0.42714  0.40068  0.27634  Biso   1.000  Mo
  Mo2      1.0000 0.57286  0.59932  0.72366  Biso   1.000  Mo
  Mo3      1.0000 0.31406  0.47056  0.49784  Biso   1.000  Mo
  Mo4      1.0000 0.68594  0.52944  0.50216  Biso   1.000  Mo
  Mo5      1.0000 0.42297  0.19768  0.45350  Biso   1.000  Mo
  Mo6      1.0000 0.57703  0.80232  0.54650  Biso   1.000  Mo
  Mo7      1.0000 0.30653  0.67085  0.31835  Biso   1.000  Mo
  Mo8      1.0000 0.69347  0.32915  0.68165  Biso   1.000  Mo
  O1       1.0000 0.53430  0.03410  0.11300  Biso   1.000  O
  O2       1.0000 0.46570  0.96590  0.88700  Biso   1.000  O
  O3       1.0000 0.32160  0.24100  0.95090  Biso   1.000  O
  O4       1.0000 0.67840  0.75900  0.04910  Biso   1.000  O
  O5       1.0000 0.54790  0.49360  0.23150  Biso   1.000  O
  O6       1.0000 0.45210  0.50640  0.76850  Biso   1.000  O
  O7       1.0000 0.30510  0.31410  0.38810  Biso   1.000  O
  O8       1.0000 0.69490  0.68590  0.61190  Biso   1.000  O
  O9       1.0000 0.35850  0.23810  0.18840  Biso   1.000  O
  O10      1.0000 0.64150  0.76190  0.81160  Biso   1.000  O
  O11      1.0000 0.26910  0.47840  0.24150  Biso   1.000  O
  O12      1.0000 0.73090  0.52160  0.75850  Biso   1.000  O
  O13      1.0000 0.57210  0.35780  0.39310  Biso   1.000  O
  O14      1.0000 0.42790  0.64220  0.60690  Biso   1.000  O
  O15      1.0000 0.39250  0.07230  0.34350  Biso   1.000  O
  O16      1.0000 0.60750  0.92770  0.65650  Biso   1.000  O
  O17      1.0000 0.20270  0.38640  0.55470  Biso   1.000  O
  O18      1.0000 0.79730  0.61360  0.44530  Biso   1.000  O
  O19      1.0000 0.20210  0.54450  0.41460  Biso   1.000  O
  O20      1.0000 0.79790  0.45550  0.58540  Biso   1.000  O
  O21      1.0000 0.30740  0.12440  0.51280  Biso   1.000  O
  O22      1.0000 0.69260  0.87560  0.48720  Biso   1.000  O
  O23      1.0000 0.60840  0.19910  0.54280  Biso   1.000  O
  O24      1.0000 0.39160  0.80090  0.45720  Biso   1.000  O
  O25      1.0000 0.41840  0.74720  0.25760  Biso   1.000  O
  O26      1.0000 0.58160  0.25280  0.74240  Biso   1.000  O
  O27      1.0000 0.48790  0.58010  0.42710  Biso   1.000  O
  O28      1.0000 0.51210  0.41990  0.57290  Biso   1.000  O
  O29      1.0000 0.14470  0.70400  0.26820  Biso   1.000  O
  O30      1.0000 0.85530  0.29600  0.73180  Biso   1.000  O
  N1       1.0000 0.23370  0.99020  0.99200  Biso   1.000  N
  N2       1.0000 0.76630  0.00980  0.00800  Biso   1.000  N
  N3       1.0000 0.12950  0.19880  0.67880  Biso   1.000  N
  N4       1.0000 0.87050  0.80120  0.32120  Biso   1.000  N
  H1       1.0000 0.16100  0.24800  0.63800  Biso   1.000  H
  H2       1.0000 0.83900  0.75200  0.36200  Biso   1.000  H
  N5       1.0000 0.61660  0.28410  0.06420  Biso   1.000  N
  N6       1.0000 0.38340  0.71590  0.93580  Biso   1.000  N
  N7       1.0000 0.73570  0.09630  0.38580  Biso   1.000  N
  N8       1.0000 0.26430  0.90370  0.61420  Biso   1.000  N
  H3       1.0000 0.74800  0.06000  0.44100  Biso   1.000  H
  H4       1.0000 0.25200  0.94000  0.55900  Biso   1.000  H
  C1       1.0000 0.22290  0.91850  0.06510  Biso   1.000  C
  C2       1.0000 0.77710  0.08150  0.93490  Biso   1.000  C
  H5       1.0000 0.30700  0.93500  0.12630  Biso   1.000  H
  H6       1.0000 0.69300  0.06500  0.87370  Biso   1.000  H
  C3       1.0000 0.09180  0.82150  0.05290  Biso   1.000  C
  C4       1.0000 0.90820  0.17850  0.94710  Biso   1.000  C
  H7       1.0000 0.08560  0.77480  0.10620  Biso   1.000  H
  H8       1.0000 0.91440  0.22520  0.89380  Biso   1.000  H
  C5       1.0000 0.97030  0.79390  0.96160  Biso   1.000  C
  C6       1.0000 0.02970  0.20610  0.03840  Biso   1.000  C
  H9       1.0000 0.88050  0.72700  0.95120  Biso   1.000  H
  H10      1.0000 0.11950  0.27300  0.04880  Biso   1.000  H
  C7       1.0000 0.98170  0.86510  0.88620  Biso   1.000  C
  C8       1.0000 0.01830  0.13490  0.11380  Biso   1.000  C
  H11      1.0000 0.89980  0.84630  0.82320  Biso   1.000  H
  H12      1.0000 0.10020  0.15370  0.17680  Biso   1.000  H
  C9       1.0000 0.11250  0.96370  0.90270  Biso   1.000  C
  C10      1.0000 0.88750  0.03630  0.09730  Biso   1.000  C
  C11      1.0000 0.12160  0.04810  0.82570  Biso   1.000  C
  C12      1.0000 0.87840  0.95190  0.17430  Biso   1.000  C
  C13      1.0000 0.22570  0.17800  0.85750  Biso   1.000  C
  C14      1.0000 0.77430  0.82200  0.14250  Biso   1.000  C
  C15      1.0000 0.22600  0.25330  0.77820  Biso   1.000  C
  C16      1.0000 0.77400  0.74670  0.22180  Biso   1.000  C
  H13      1.0000 0.29540  0.34290  0.79660  Biso   1.000  H
  H14      1.0000 0.70460  0.65710  0.20340  Biso   1.000  H
  C17      1.0000 0.02240  0.99850  0.72250  Biso   1.000  C
  C18      1.0000 0.97760  0.00150  0.27750  Biso   1.000  C
  H15      1.0000 0.95060  0.90970  0.70130  Biso   1.000  H
  H16      1.0000 0.04940  0.09030  0.29870  Biso   1.000  H
  C19      1.0000 0.02650  0.07630  0.65010  Biso   1.000  C
  C20      1.0000 0.97350  0.92370  0.34990  Biso   1.000  C
  H17      1.0000 0.95610  0.04250  0.58020  Biso   1.000  H
  H18      1.0000 0.04390  0.95750  0.41980  Biso   1.000  H
  C21      1.0000 0.62580  0.35620  0.98980  Biso   1.000  C
  C22      1.0000 0.37420  0.64380  0.01020  Biso   1.000  C
  H19      1.0000 0.54080  0.33700  0.92880  Biso   1.000  H
  H20      1.0000 0.45920  0.66300  0.07120  Biso   1.000  H
  C23      1.0000 0.74930  0.45300  0.99900  Biso   1.000  C
  C24      1.0000 0.25070  0.54700  0.00100  Biso   1.000  C
  H21      1.0000 0.74950  0.49970  0.94500  Biso   1.000  H
  H22      1.0000 0.25050  0.50030  0.05500  Biso   1.000  H
  C25      1.0000 0.87570  0.48430  0.08650  Biso   1.000  C
  C26      1.0000 0.12430  0.51570  0.91350  Biso   1.000  C
  H23      1.0000 0.96320  0.55280  0.09420  Biso   1.000  H
  H24      1.0000 0.03680  0.44720  0.90580  Biso   1.000  H
  C27      1.0000 0.87010  0.41190  0.16300  Biso   1.000  C
  C28      1.0000 0.12990  0.58810  0.83700  Biso   1.000  C
  H25      1.0000 0.95510  0.42980  0.22370  Biso   1.000  H
  H26      1.0000 0.04490  0.57020  0.77630  Biso   1.000  H
  C29      1.0000 0.74070  0.31370  0.15060  Biso   1.000  C
  C30      1.0000 0.25930  0.68630  0.84940  Biso   1.000  C
  C31      1.0000 0.73610  0.23530  0.23270  Biso   1.000  C
  C32      1.0000 0.26390  0.76470  0.76730  Biso   1.000  C
  C33      1.0000 0.63360  0.10200  0.20600  Biso   1.000  C
  C34      1.0000 0.36640  0.89800  0.79400  Biso   1.000  C
  C35      1.0000 0.63940  0.03480  0.28800  Biso   1.000  C
  C36      1.0000 0.36060  0.96520  0.71200  Biso   1.000  C
  H27      1.0000 0.57360  0.94420  0.27300  Biso   1.000  H
  H28      1.0000 0.42640  0.05580  0.72700  Biso   1.000  H
  C37      1.0000 0.83460  0.29460  0.33660  Biso   1.000  C
  C38      1.0000 0.16540  0.70540  0.66340  Biso   1.000  C
  H29      1.0000 0.90300  0.38480  0.35500  Biso   1.000  H
  H30      1.0000 0.09700  0.61520  0.64500  Biso   1.000  H
  C39      1.0000 0.83310  0.22240  0.41300  Biso   1.000  C
  C40      1.0000 0.16690  0.77760  0.58700  Biso   1.000  C
  H31      1.0000 0.90040  0.26210  0.48370  Biso   1.000  H
  H32      1.0000 0.09960  0.73790  0.51630  Biso   1.000  H
