data_image0
_cell_length_a       42.7196
_cell_length_b       23.6272
_cell_length_c       21.5936
_cell_angle_alpha    90
_cell_angle_beta     120.317
_cell_angle_gamma    90

_symmetry_space_group_name_H-M    "P 1"
_symmetry_int_tables_number       1

loop_
  _symmetry_equiv_pos_as_xyz
  'x, y, z'

loop_
  _atom_site_label
  _atom_site_occupancy
  _atom_site_fract_x
  _atom_site_fract_y
  _atom_site_fract_z
  _atom_site_thermal_displace_type
  _atom_site_B_iso_or_equiv
  _atom_site_type_symbol
  Cu1      1.0000 0.18136  0.96659  0.33919  Biso   1.000  Cu
  Cu2      1.0000 0.81864  0.96659  0.16081  Biso   1.000  Cu
  Cu3      1.0000 0.68136  0.46659  0.33919  Biso   1.000  Cu
  Cu4      1.0000 0.31864  0.46659  0.16081  Biso   1.000  Cu
  Cu5      1.0000 0.81864  0.03341  0.66081  Biso   1.000  Cu
  Cu6      1.0000 0.18136  0.03341  0.83919  Biso   1.000  Cu
  Cu7      1.0000 0.31864  0.53341  0.66081  Biso   1.000  Cu
  Cu8      1.0000 0.68136  0.53341  0.83919  Biso   1.000  Cu
  Cu9      1.0000 0.18004  0.96248  0.93209  Biso   1.000  Cu
  Cu10     1.0000 0.81996  0.96248  0.56791  Biso   1.000  Cu
  Cu11     1.0000 0.68004  0.46248  0.93209  Biso   1.000  Cu
  Cu12     1.0000 0.31996  0.46248  0.56791  Biso   1.000  Cu
  Cu13     1.0000 0.81996  0.03752  0.06791  Biso   1.000  Cu
  Cu14     1.0000 0.18004  0.03752  0.43209  Biso   1.000  Cu
  Cu15     1.0000 0.31996  0.53752  0.06791  Biso   1.000  Cu
  Cu16     1.0000 0.68004  0.53752  0.43209  Biso   1.000  Cu
  O1       1.0000 0.18368  0.90840  0.26630  Biso   1.000  O
  O2       1.0000 0.81632  0.90840  0.23370  Biso   1.000  O
  O3       1.0000 0.68368  0.40840  0.26630  Biso   1.000  O
  O4       1.0000 0.31632  0.40840  0.23370  Biso   1.000  O
  O5       1.0000 0.81632  0.09160  0.73370  Biso   1.000  O
  O6       1.0000 0.18368  0.09160  0.76630  Biso   1.000  O
  O7       1.0000 0.31632  0.59160  0.73370  Biso   1.000  O
  O8       1.0000 0.68368  0.59160  0.76630  Biso   1.000  O
  H1       1.0000 0.19851  0.88089  0.27582  Biso   1.000  H
  H2       1.0000 0.80149  0.88089  0.22418  Biso   1.000  H
  H3       1.0000 0.69851  0.38089  0.27582  Biso   1.000  H
  H4       1.0000 0.30149  0.38089  0.22418  Biso   1.000  H
  H5       1.0000 0.80149  0.11911  0.72418  Biso   1.000  H
  H6       1.0000 0.19851  0.11911  0.77582  Biso   1.000  H
  H7       1.0000 0.30149  0.61911  0.72418  Biso   1.000  H
  H8       1.0000 0.69851  0.61911  0.77582  Biso   1.000  H
  H9       1.0000 0.16985  0.90734  0.22066  Biso   1.000  H
  H10      1.0000 0.83015  0.90734  0.27934  Biso   1.000  H
  H11      1.0000 0.66985  0.40734  0.22066  Biso   1.000  H
  H12      1.0000 0.33015  0.40734  0.27934  Biso   1.000  H
  H13      1.0000 0.83015  0.09266  0.77934  Biso   1.000  H
  H14      1.0000 0.16985  0.09266  0.72066  Biso   1.000  H
  H15      1.0000 0.33015  0.59266  0.77934  Biso   1.000  H
  H16      1.0000 0.66985  0.59266  0.72066  Biso   1.000  H
  O9       1.0000 0.64542  0.42100  0.84600  Biso   1.000  O
  O10      1.0000 0.35458  0.42100  0.65400  Biso   1.000  O
  O11      1.0000 0.14542  0.92100  0.84600  Biso   1.000  O
  O12      1.0000 0.85458  0.92100  0.65400  Biso   1.000  O
  O13      1.0000 0.35458  0.57900  0.15400  Biso   1.000  O
  O14      1.0000 0.64542  0.57900  0.34600  Biso   1.000  O
  O15      1.0000 0.85458  0.07900  0.15400  Biso   1.000  O
  O16      1.0000 0.14542  0.07900  0.34600  Biso   1.000  O
  O17      1.0000 0.17857  0.90700  0.00700  Biso   1.000  O
  O18      1.0000 0.82143  0.90700  0.49300  Biso   1.000  O
  O19      1.0000 0.67857  0.40700  0.00700  Biso   1.000  O
  O20      1.0000 0.32143  0.40700  0.49300  Biso   1.000  O
  O21      1.0000 0.82143  0.09300  0.99300  Biso   1.000  O
  O22      1.0000 0.17857  0.09300  0.50700  Biso   1.000  O
  O23      1.0000 0.32143  0.59300  0.99300  Biso   1.000  O
  O24      1.0000 0.67857  0.59300  0.50700  Biso   1.000  O
  H17      1.0000 0.19819  0.89495  0.05196  Biso   1.000  H
  H18      1.0000 0.80181  0.89495  0.44804  Biso   1.000  H
  H19      1.0000 0.69819  0.39495  0.05196  Biso   1.000  H
  H20      1.0000 0.30181  0.39495  0.44804  Biso   1.000  H
  H21      1.0000 0.80181  0.10505  0.94804  Biso   1.000  H
  H22      1.0000 0.19819  0.10505  0.55196  Biso   1.000  H
  H23      1.0000 0.30181  0.60505  0.94804  Biso   1.000  H
  H24      1.0000 0.69819  0.60505  0.55196  Biso   1.000  H
  H25      1.0000 0.15824  0.88814  0.00433  Biso   1.000  H
  H26      1.0000 0.84176  0.88814  0.49567  Biso   1.000  H
  H27      1.0000 0.65824  0.38814  0.00433  Biso   1.000  H
  H28      1.0000 0.34176  0.38814  0.49567  Biso   1.000  H
  H29      1.0000 0.84176  0.11186  0.99567  Biso   1.000  H
  H30      1.0000 0.15824  0.11186  0.50433  Biso   1.000  H
  H31      1.0000 0.34176  0.61186  0.99567  Biso   1.000  H
  H32      1.0000 0.65824  0.61186  0.50433  Biso   1.000  H
  O25      1.0000 0.64563  0.48130  0.76830  Biso   1.000  O
  O26      1.0000 0.35437  0.48130  0.73170  Biso   1.000  O
  O27      1.0000 0.14563  0.98130  0.76830  Biso   1.000  O
  O28      1.0000 0.85437  0.98130  0.73170  Biso   1.000  O
  O29      1.0000 0.35437  0.51870  0.23170  Biso   1.000  O
  O30      1.0000 0.64563  0.51870  0.26830  Biso   1.000  O
  O31      1.0000 0.85437  0.01870  0.23170  Biso   1.000  O
  O32      1.0000 0.14563  0.01870  0.26830  Biso   1.000  O
  O33      1.0000 0.21841  0.07460  0.92400  Biso   1.000  O
  O34      1.0000 0.78159  0.07460  0.57600  Biso   1.000  O
  O35      1.0000 0.71841  0.57460  0.92400  Biso   1.000  O
  O36      1.0000 0.28159  0.57460  0.57600  Biso   1.000  O
  O37      1.0000 0.78159  0.92540  0.07600  Biso   1.000  O
  O38      1.0000 0.21841  0.92540  0.42400  Biso   1.000  O
  O39      1.0000 0.28159  0.42540  0.07600  Biso   1.000  O
  O40      1.0000 0.71841  0.42540  0.42400  Biso   1.000  O
  O41      1.0000 0.64183  0.42620  0.34260  Biso   1.000  O
  O42      1.0000 0.35817  0.42620  0.15740  Biso   1.000  O
  O43      1.0000 0.14183  0.92620  0.34260  Biso   1.000  O
  O44      1.0000 0.85817  0.92620  0.15740  Biso   1.000  O
  O45      1.0000 0.35817  0.57380  0.65740  Biso   1.000  O
  O46      1.0000 0.64183  0.57380  0.84260  Biso   1.000  O
  O47      1.0000 0.85817  0.07380  0.65740  Biso   1.000  O
  O48      1.0000 0.14183  0.07380  0.84260  Biso   1.000  O
  O49      1.0000 0.22003  0.01580  0.34770  Biso   1.000  O
  O50      1.0000 0.77997  0.01580  0.15230  Biso   1.000  O
  O51      1.0000 0.72003  0.51580  0.34770  Biso   1.000  O
  O52      1.0000 0.27997  0.51580  0.15230  Biso   1.000  O
  O53      1.0000 0.77997  0.98420  0.65230  Biso   1.000  O
  O54      1.0000 0.22003  0.98420  0.84770  Biso   1.000  O
  O55      1.0000 0.27997  0.48420  0.65230  Biso   1.000  O
  O56      1.0000 0.72003  0.48420  0.84770  Biso   1.000  O
  O57      1.0000 0.22042  0.07440  0.42890  Biso   1.000  O
  O58      1.0000 0.77958  0.07440  0.07110  Biso   1.000  O
  O59      1.0000 0.72042  0.57440  0.42890  Biso   1.000  O
  O60      1.0000 0.27958  0.57440  0.07110  Biso   1.000  O
  O61      1.0000 0.77958  0.92560  0.57110  Biso   1.000  O
  O62      1.0000 0.22042  0.92560  0.92890  Biso   1.000  O
  O63      1.0000 0.27958  0.42560  0.57110  Biso   1.000  O
  O64      1.0000 0.72042  0.42560  0.92890  Biso   1.000  O
  O65      1.0000 0.21433  0.01530  0.00310  Biso   1.000  O
  O66      1.0000 0.78567  0.01530  0.49690  Biso   1.000  O
  O67      1.0000 0.71433  0.51530  0.00310  Biso   1.000  O
  O68      1.0000 0.28567  0.51530  0.49690  Biso   1.000  O
  O69      1.0000 0.78567  0.98470  0.99690  Biso   1.000  O
  O70      1.0000 0.21433  0.98470  0.50310  Biso   1.000  O
  O71      1.0000 0.28567  0.48470  0.99690  Biso   1.000  O
  O72      1.0000 0.71433  0.48470  0.50310  Biso   1.000  O
  O73      1.0000 0.64000  0.48830  0.41820  Biso   1.000  O
  O74      1.0000 0.36000  0.48830  0.08180  Biso   1.000  O
  O75      1.0000 0.14000  0.98830  0.41820  Biso   1.000  O
  O76      1.0000 0.86000  0.98830  0.08180  Biso   1.000  O
  O77      1.0000 0.36000  0.51170  0.58180  Biso   1.000  O
  O78      1.0000 0.64000  0.51170  0.91820  Biso   1.000  O
  O79      1.0000 0.86000  0.01170  0.58180  Biso   1.000  O
  O80      1.0000 0.14000  0.01170  0.91820  Biso   1.000  O
  C1       1.0000 0.23222  0.05510  0.38850  Biso   1.000  C
  C2       1.0000 0.76778  0.05510  0.11150  Biso   1.000  C
  C3       1.0000 0.73222  0.55510  0.38850  Biso   1.000  C
  C4       1.0000 0.26778  0.55510  0.11150  Biso   1.000  C
  C5       1.0000 0.76778  0.94490  0.61150  Biso   1.000  C
  C6       1.0000 0.23222  0.94490  0.88850  Biso   1.000  C
  C7       1.0000 0.26778  0.44490  0.61150  Biso   1.000  C
  C8       1.0000 0.73222  0.44490  0.88850  Biso   1.000  C
  C9       1.0000 0.26390  0.08960  0.39400  Biso   1.000  C
  C10      1.0000 0.73610  0.08960  0.10600  Biso   1.000  C
  C11      1.0000 0.76390  0.58960  0.39400  Biso   1.000  C
  C12      1.0000 0.23610  0.58960  0.10600  Biso   1.000  C
  C13      1.0000 0.73610  0.91040  0.60600  Biso   1.000  C
  C14      1.0000 0.26390  0.91040  0.89400  Biso   1.000  C
  C15      1.0000 0.23610  0.41040  0.60600  Biso   1.000  C
  C16      1.0000 0.76390  0.41040  0.89400  Biso   1.000  C
  C17      1.0000 0.40467  0.21620  0.32600  Biso   1.000  C
  C18      1.0000 0.59533  0.21620  0.17400  Biso   1.000  C
  C19      1.0000 0.90467  0.71620  0.32600  Biso   1.000  C
  C20      1.0000 0.09533  0.71620  0.17400  Biso   1.000  C
  C21      1.0000 0.59533  0.78380  0.67400  Biso   1.000  C
  C22      1.0000 0.40467  0.78380  0.82600  Biso   1.000  C
  C23      1.0000 0.09533  0.28380  0.67400  Biso   1.000  C
  C24      1.0000 0.90467  0.28380  0.82600  Biso   1.000  C
  C25      1.0000 0.45984  0.27350  0.37470  Biso   1.000  C
  C26      1.0000 0.54016  0.27350  0.12530  Biso   1.000  C
  C27      1.0000 0.95984  0.77350  0.37470  Biso   1.000  C
  C28      1.0000 0.04016  0.77350  0.12530  Biso   1.000  C
  C29      1.0000 0.54016  0.72650  0.62530  Biso   1.000  C
  C30      1.0000 0.45984  0.72650  0.87470  Biso   1.000  C
  C31      1.0000 0.04016  0.22650  0.62530  Biso   1.000  C
  C32      1.0000 0.95984  0.22650  0.87470  Biso   1.000  C
  C33      1.0000 0.32330  0.13920  0.40180  Biso   1.000  C
  C34      1.0000 0.67670  0.13920  0.09820  Biso   1.000  C
  C35      1.0000 0.82330  0.63920  0.40180  Biso   1.000  C
  C36      1.0000 0.17670  0.63920  0.09820  Biso   1.000  C
  C37      1.0000 0.67670  0.86080  0.59820  Biso   1.000  C
  C38      1.0000 0.32330  0.86080  0.90180  Biso   1.000  C
  C39      1.0000 0.17670  0.36080  0.59820  Biso   1.000  C
  C40      1.0000 0.82330  0.36080  0.90180  Biso   1.000  C
  C41      1.0000 0.43210  0.24240  0.31850  Biso   1.000  C
  C42      1.0000 0.56790  0.24240  0.18150  Biso   1.000  C
  C43      1.0000 0.93210  0.74240  0.31850  Biso   1.000  C
  C44      1.0000 0.06790  0.74240  0.18150  Biso   1.000  C
  C45      1.0000 0.56790  0.75760  0.68150  Biso   1.000  C
  C46      1.0000 0.43210  0.75760  0.81850  Biso   1.000  C
  C47      1.0000 0.06790  0.25760  0.68150  Biso   1.000  C
  C48      1.0000 0.93210  0.25760  0.81850  Biso   1.000  C
  H33      1.0000 0.43182  0.23898  0.27439  Biso   1.000  H
  H34      1.0000 0.56818  0.23898  0.22561  Biso   1.000  H
  H35      1.0000 0.93182  0.73898  0.27439  Biso   1.000  H
  H36      1.0000 0.06818  0.73898  0.22561  Biso   1.000  H
  H37      1.0000 0.56818  0.76102  0.72561  Biso   1.000  H
  H38      1.0000 0.43182  0.76102  0.77439  Biso   1.000  H
  H39      1.0000 0.06818  0.26102  0.72561  Biso   1.000  H
  H40      1.0000 0.93182  0.26102  0.77439  Biso   1.000  H
  C49      1.0000 0.27810  0.13400  0.43550  Biso   1.000  C
  C50      1.0000 0.72190  0.13400  0.06450  Biso   1.000  C
  C51      1.0000 0.77810  0.63400  0.43550  Biso   1.000  C
  C52      1.0000 0.22190  0.63400  0.06450  Biso   1.000  C
  C53      1.0000 0.72190  0.86600  0.56450  Biso   1.000  C
  C54      1.0000 0.27810  0.86600  0.93550  Biso   1.000  C
  C55      1.0000 0.22190  0.36600  0.56450  Biso   1.000  C
  C56      1.0000 0.77810  0.36600  0.93550  Biso   1.000  C
  H41      1.0000 0.26668  0.15026  0.45929  Biso   1.000  H
  H42      1.0000 0.73332  0.15026  0.04071  Biso   1.000  H
  H43      1.0000 0.76668  0.65026  0.45929  Biso   1.000  H
  H44      1.0000 0.23332  0.65026  0.04071  Biso   1.000  H
  H45      1.0000 0.73332  0.84974  0.54071  Biso   1.000  H
  H46      1.0000 0.26668  0.84974  0.95929  Biso   1.000  H
  H47      1.0000 0.23332  0.34974  0.54071  Biso   1.000  H
  H48      1.0000 0.76668  0.34974  0.95929  Biso   1.000  H
  C57      1.0000 0.49020  0.30200  0.50490  Biso   1.000  C
  C58      1.0000 0.50980  0.30200  0.99510  Biso   1.000  C
  C59      1.0000 0.99020  0.80200  0.50490  Biso   1.000  C
  C60      1.0000 0.00980  0.80200  0.99510  Biso   1.000  C
  C61      1.0000 0.50980  0.69800  0.49510  Biso   1.000  C
  C62      1.0000 0.49020  0.69800  0.00490  Biso   1.000  C
  C63      1.0000 0.00980  0.19800  0.49510  Biso   1.000  C
  C64      1.0000 0.99020  0.19800  0.00490  Biso   1.000  C
  C65      1.0000 0.48620  0.30060  0.36900  Biso   1.000  C
  C66      1.0000 0.51380  0.30060  0.13100  Biso   1.000  C
  C67      1.0000 0.98620  0.80060  0.36900  Biso   1.000  C
  C68      1.0000 0.01380  0.80060  0.13100  Biso   1.000  C
  C69      1.0000 0.51380  0.69940  0.63100  Biso   1.000  C
  C70      1.0000 0.48620  0.69940  0.86900  Biso   1.000  C
  C71      1.0000 0.01380  0.19940  0.63100  Biso   1.000  C
  C72      1.0000 0.98620  0.19940  0.86900  Biso   1.000  C
  C73      1.0000 0.46140  0.27280  0.44560  Biso   1.000  C
  C74      1.0000 0.53860  0.27280  0.05440  Biso   1.000  C
  C75      1.0000 0.96140  0.77280  0.44560  Biso   1.000  C
  C76      1.0000 0.03860  0.77280  0.05440  Biso   1.000  C
  C77      1.0000 0.53860  0.72720  0.55440  Biso   1.000  C
  C78      1.0000 0.46140  0.72720  0.94560  Biso   1.000  C
  C79      1.0000 0.03860  0.22720  0.55440  Biso   1.000  C
  C80      1.0000 0.96140  0.22720  0.94560  Biso   1.000  C
  C81      1.0000 0.43510  0.24480  0.45330  Biso   1.000  C
  C82      1.0000 0.56490  0.24480  0.04670  Biso   1.000  C
  C83      1.0000 0.93510  0.74480  0.45330  Biso   1.000  C
  C84      1.0000 0.06490  0.74480  0.04670  Biso   1.000  C
  C85      1.0000 0.56490  0.75520  0.54670  Biso   1.000  C
  C86      1.0000 0.43510  0.75520  0.95330  Biso   1.000  C
  C87      1.0000 0.06490  0.25520  0.54670  Biso   1.000  C
  C88      1.0000 0.93510  0.25520  0.95330  Biso   1.000  C
  H49      1.0000 0.43632  0.24376  0.49848  Biso   1.000  H
  H50      1.0000 0.56368  0.24376  0.00152  Biso   1.000  H
  H51      1.0000 0.93632  0.74376  0.49848  Biso   1.000  H
  H52      1.0000 0.06368  0.74376  0.00152  Biso   1.000  H
  H53      1.0000 0.56368  0.75624  0.50152  Biso   1.000  H
  H54      1.0000 0.43632  0.75624  0.99848  Biso   1.000  H
  H55      1.0000 0.06368  0.25624  0.50152  Biso   1.000  H
  H56      1.0000 0.93632  0.25624  0.99848  Biso   1.000  H
  C89      1.0000 0.27920  0.06950  0.35650  Biso   1.000  C
  C90      1.0000 0.72080  0.06950  0.14350  Biso   1.000  C
  C91      1.0000 0.77920  0.56950  0.35650  Biso   1.000  C
  C92      1.0000 0.22080  0.56950  0.14350  Biso   1.000  C
  C93      1.0000 0.72080  0.93050  0.64350  Biso   1.000  C
  C94      1.0000 0.27920  0.93050  0.85650  Biso   1.000  C
  C95      1.0000 0.22080  0.43050  0.64350  Biso   1.000  C
  C96      1.0000 0.77920  0.43050  0.85650  Biso   1.000  C
  H57      1.0000 0.26871  0.03789  0.32556  Biso   1.000  H
  H58      1.0000 0.73129  0.03789  0.17444  Biso   1.000  H
  H59      1.0000 0.76871  0.53789  0.32556  Biso   1.000  H
  H60      1.0000 0.23129  0.53789  0.17444  Biso   1.000  H
  H61      1.0000 0.73129  0.96211  0.67444  Biso   1.000  H
  H62      1.0000 0.26871  0.96211  0.82556  Biso   1.000  H
  H63      1.0000 0.23129  0.46211  0.67444  Biso   1.000  H
  H64      1.0000 0.76871  0.46211  0.82556  Biso   1.000  H
  C97      1.0000 0.37580  0.18780  0.26850  Biso   1.000  C
  C98      1.0000 0.62420  0.18780  0.23150  Biso   1.000  C
  C99      1.0000 0.87580  0.68780  0.26850  Biso   1.000  C
  C100     1.0000 0.12420  0.68780  0.23150  Biso   1.000  C
  C101     1.0000 0.62420  0.81220  0.73150  Biso   1.000  C
  C102     1.0000 0.37580  0.81220  0.76850  Biso   1.000  C
  C103     1.0000 0.12420  0.31220  0.73150  Biso   1.000  C
  C104     1.0000 0.87580  0.31220  0.76850  Biso   1.000  C
  C105     1.0000 0.54482  0.35070  0.61270  Biso   1.000  C
  C106     1.0000 0.45518  0.35070  0.88730  Biso   1.000  C
  C107     1.0000 0.04482  0.85070  0.61270  Biso   1.000  C
  C108     1.0000 0.95518  0.85070  0.88730  Biso   1.000  C
  C109     1.0000 0.45518  0.64930  0.38730  Biso   1.000  C
  C110     1.0000 0.54482  0.64930  0.11270  Biso   1.000  C
  C111     1.0000 0.95518  0.14930  0.38730  Biso   1.000  C
  C112     1.0000 0.04482  0.14930  0.11270  Biso   1.000  C
  C113     1.0000 0.40655  0.21780  0.39350  Biso   1.000  C
  C114     1.0000 0.59345  0.21780  0.10650  Biso   1.000  C
  C115     1.0000 0.90655  0.71780  0.39350  Biso   1.000  C
  C116     1.0000 0.09345  0.71780  0.10650  Biso   1.000  C
  C117     1.0000 0.59345  0.78220  0.60650  Biso   1.000  C
  C118     1.0000 0.40655  0.78220  0.89350  Biso   1.000  C
  C119     1.0000 0.09345  0.28220  0.60650  Biso   1.000  C
  C120     1.0000 0.90655  0.28220  0.89350  Biso   1.000  C
  C121     1.0000 0.34960  0.16380  0.22090  Biso   1.000  C
  C122     1.0000 0.65040  0.16380  0.27910  Biso   1.000  C
  C123     1.0000 0.84960  0.66380  0.22090  Biso   1.000  C
  C124     1.0000 0.15040  0.66380  0.27910  Biso   1.000  C
  C125     1.0000 0.65040  0.83620  0.77910  Biso   1.000  C
  C126     1.0000 0.34960  0.83620  0.72090  Biso   1.000  C
  C127     1.0000 0.15040  0.33620  0.77910  Biso   1.000  C
  C128     1.0000 0.84960  0.33620  0.72090  Biso   1.000  C
  C129     1.0000 0.31050  0.15720  0.44430  Biso   1.000  C
  C130     1.0000 0.68950  0.15720  0.05570  Biso   1.000  C
  C131     1.0000 0.81050  0.65720  0.44430  Biso   1.000  C
  C132     1.0000 0.18950  0.65720  0.05570  Biso   1.000  C
  C133     1.0000 0.68950  0.84280  0.55570  Biso   1.000  C
  C134     1.0000 0.31050  0.84280  0.94430  Biso   1.000  C
  C135     1.0000 0.18950  0.34280  0.55570  Biso   1.000  C
  C136     1.0000 0.81050  0.34280  0.94430  Biso   1.000  C
  H65      1.0000 0.32322  0.18532  0.47976  Biso   1.000  H
  H66      1.0000 0.67678  0.18532  0.02024  Biso   1.000  H
  H67      1.0000 0.82322  0.68532  0.47976  Biso   1.000  H
  H68      1.0000 0.17678  0.68532  0.02024  Biso   1.000  H
  H69      1.0000 0.67678  0.81468  0.52024  Biso   1.000  H
  H70      1.0000 0.32322  0.81468  0.97976  Biso   1.000  H
  H71      1.0000 0.17678  0.31468  0.52024  Biso   1.000  H
  H72      1.0000 0.82322  0.31468  0.97976  Biso   1.000  H
  C137     1.0000 0.37770  0.19140  0.40080  Biso   1.000  C
  C138     1.0000 0.62230  0.19140  0.09920  Biso   1.000  C
  C139     1.0000 0.87770  0.69140  0.40080  Biso   1.000  C
  C140     1.0000 0.12230  0.69140  0.09920  Biso   1.000  C
  C141     1.0000 0.62230  0.80860  0.59920  Biso   1.000  C
  C142     1.0000 0.37770  0.80860  0.90080  Biso   1.000  C
  C143     1.0000 0.12230  0.30860  0.59920  Biso   1.000  C
  C144     1.0000 0.87770  0.30860  0.90080  Biso   1.000  C
  C145     1.0000 0.50870  0.32400  0.36520  Biso   1.000  C
  C146     1.0000 0.49130  0.32400  0.13480  Biso   1.000  C
  C147     1.0000 0.00870  0.82400  0.36520  Biso   1.000  C
  C148     1.0000 0.99130  0.82400  0.13480  Biso   1.000  C
  C149     1.0000 0.49130  0.67600  0.63480  Biso   1.000  C
  C150     1.0000 0.50870  0.67600  0.86520  Biso   1.000  C
  C151     1.0000 0.99130  0.17600  0.63480  Biso   1.000  C
  C152     1.0000 0.00870  0.17600  0.86520  Biso   1.000  C
  C153     1.0000 0.35460  0.16460  0.40410  Biso   1.000  C
  C154     1.0000 0.64540  0.16460  0.09590  Biso   1.000  C
  C155     1.0000 0.85460  0.66460  0.40410  Biso   1.000  C
  C156     1.0000 0.14540  0.66460  0.09590  Biso   1.000  C
  C157     1.0000 0.64540  0.83540  0.59590  Biso   1.000  C
  C158     1.0000 0.35460  0.83540  0.90410  Biso   1.000  C
  C159     1.0000 0.14540  0.33540  0.59590  Biso   1.000  C
  C160     1.0000 0.85460  0.33540  0.90410  Biso   1.000  C
  C161     1.0000 0.30990  0.09450  0.36280  Biso   1.000  C
  C162     1.0000 0.69010  0.09450  0.13720  Biso   1.000  C
  C163     1.0000 0.80990  0.59450  0.36280  Biso   1.000  C
  C164     1.0000 0.19010  0.59450  0.13720  Biso   1.000  C
  C165     1.0000 0.69010  0.90550  0.63720  Biso   1.000  C
  C166     1.0000 0.30990  0.90550  0.86280  Biso   1.000  C
  C167     1.0000 0.19010  0.40550  0.63720  Biso   1.000  C
  C168     1.0000 0.80990  0.40550  0.86280  Biso   1.000  C
  H73      1.0000 0.32122  0.07875  0.33848  Biso   1.000  H
  H74      1.0000 0.67878  0.07875  0.16152  Biso   1.000  H
  H75      1.0000 0.82122  0.57875  0.33848  Biso   1.000  H
  H76      1.0000 0.17878  0.57875  0.16152  Biso   1.000  H
  H77      1.0000 0.67878  0.92125  0.66152  Biso   1.000  H
  H78      1.0000 0.32122  0.92125  0.83848  Biso   1.000  H
  H79      1.0000 0.17878  0.42125  0.66152  Biso   1.000  H
  H80      1.0000 0.82122  0.42125  0.83848  Biso   1.000  H
  C169     1.0000 0.22794  0.05810  0.98640  Biso   1.000  C
  C170     1.0000 0.77206  0.05810  0.51360  Biso   1.000  C
  C171     1.0000 0.72794  0.55810  0.98640  Biso   1.000  C
  C172     1.0000 0.27206  0.55810  0.51360  Biso   1.000  C
  C173     1.0000 0.77206  0.94190  0.01360  Biso   1.000  C
  C174     1.0000 0.22794  0.94190  0.48640  Biso   1.000  C
  C175     1.0000 0.27206  0.44190  0.01360  Biso   1.000  C
  C176     1.0000 0.72794  0.44190  0.48640  Biso   1.000  C
  C177     1.0000 0.62950  0.44410  0.37710  Biso   1.000  C
  C178     1.0000 0.37050  0.44410  0.12290  Biso   1.000  C
  C179     1.0000 0.12950  0.94410  0.37710  Biso   1.000  C
  C180     1.0000 0.87050  0.94410  0.12290  Biso   1.000  C
  C181     1.0000 0.37050  0.55590  0.62290  Biso   1.000  C
  C182     1.0000 0.62950  0.55590  0.87710  Biso   1.000  C
  C183     1.0000 0.87050  0.05590  0.62290  Biso   1.000  C
  C184     1.0000 0.12950  0.05590  0.87710  Biso   1.000  C
  C185     1.0000 0.58385  0.37170  0.33170  Biso   1.000  C
  C186     1.0000 0.41615  0.37170  0.16830  Biso   1.000  C
  C187     1.0000 0.08385  0.87170  0.33170  Biso   1.000  C
  C188     1.0000 0.91615  0.87170  0.16830  Biso   1.000  C
  C189     1.0000 0.41615  0.62830  0.66830  Biso   1.000  C
  C190     1.0000 0.58385  0.62830  0.83170  Biso   1.000  C
  C191     1.0000 0.91615  0.12830  0.66830  Biso   1.000  C
  C192     1.0000 0.08385  0.12830  0.83170  Biso   1.000  C
  H81      1.0000 0.59327  0.36128  0.30182  Biso   1.000  H
  H82      1.0000 0.40673  0.36128  0.19818  Biso   1.000  H
  H83      1.0000 0.09327  0.86128  0.30182  Biso   1.000  H
  H84      1.0000 0.90673  0.86128  0.19818  Biso   1.000  H
  H85      1.0000 0.40673  0.63872  0.69818  Biso   1.000  H
  H86      1.0000 0.59327  0.63872  0.80182  Biso   1.000  H
  H87      1.0000 0.90673  0.13872  0.69818  Biso   1.000  H
  H88      1.0000 0.09327  0.13872  0.80182  Biso   1.000  H
  C193     1.0000 0.59708  0.41620  0.37310  Biso   1.000  C
  C194     1.0000 0.40292  0.41620  0.12690  Biso   1.000  C
  C195     1.0000 0.09708  0.91620  0.37310  Biso   1.000  C
  C196     1.0000 0.90292  0.91620  0.12690  Biso   1.000  C
  C197     1.0000 0.40292  0.58380  0.62690  Biso   1.000  C
  C198     1.0000 0.59708  0.58380  0.87310  Biso   1.000  C
  C199     1.0000 0.90292  0.08380  0.62690  Biso   1.000  C
  C200     1.0000 0.09708  0.08380  0.87310  Biso   1.000  C
  C201     1.0000 0.58040  0.43650  0.40950  Biso   1.000  C
  C202     1.0000 0.41960  0.43650  0.09050  Biso   1.000  C
  C203     1.0000 0.08040  0.93650  0.40950  Biso   1.000  C
  C204     1.0000 0.91960  0.93650  0.09050  Biso   1.000  C
  C205     1.0000 0.41960  0.56350  0.59050  Biso   1.000  C
  C206     1.0000 0.58040  0.56350  0.90950  Biso   1.000  C
  C207     1.0000 0.91960  0.06350  0.59050  Biso   1.000  C
  C208     1.0000 0.08040  0.06350  0.90950  Biso   1.000  C
  H89      1.0000 0.58931  0.46993  0.43753  Biso   1.000  H
  H90      1.0000 0.41069  0.46993  0.06247  Biso   1.000  H
  H91      1.0000 0.08931  0.96993  0.43753  Biso   1.000  H
  H92      1.0000 0.91069  0.96993  0.06247  Biso   1.000  H
  H93      1.0000 0.41069  0.53007  0.56247  Biso   1.000  H
  H94      1.0000 0.58931  0.53007  0.93753  Biso   1.000  H
  H95      1.0000 0.91069  0.03007  0.56247  Biso   1.000  H
  H96      1.0000 0.08931  0.03007  0.93753  Biso   1.000  H
  C209     1.0000 0.60362  0.40820  0.72660  Biso   1.000  C
  C210     1.0000 0.39638  0.40820  0.77340  Biso   1.000  C
  C211     1.0000 0.10362  0.90820  0.72660  Biso   1.000  C
  C212     1.0000 0.89638  0.90820  0.77340  Biso   1.000  C
  C213     1.0000 0.39638  0.59180  0.27340  Biso   1.000  C
  C214     1.0000 0.60362  0.59180  0.22660  Biso   1.000  C
  C215     1.0000 0.89638  0.09180  0.27340  Biso   1.000  C
  C216     1.0000 0.10362  0.09180  0.22660  Biso   1.000  C
  C217     1.0000 0.25910  0.08650  0.04710  Biso   1.000  C
  C218     1.0000 0.74090  0.08650  0.45290  Biso   1.000  C
  C219     1.0000 0.75910  0.58650  0.04710  Biso   1.000  C
  C220     1.0000 0.24090  0.58650  0.45290  Biso   1.000  C
  C221     1.0000 0.74090  0.91350  0.95290  Biso   1.000  C
  C222     1.0000 0.25910  0.91350  0.54710  Biso   1.000  C
  C223     1.0000 0.24090  0.41350  0.95290  Biso   1.000  C
  C224     1.0000 0.75910  0.41350  0.54710  Biso   1.000  C
  C225     1.0000 0.28110  0.11790  0.03560  Biso   1.000  C
  C226     1.0000 0.71890  0.11790  0.46440  Biso   1.000  C
  C227     1.0000 0.78110  0.61790  0.03560  Biso   1.000  C
  C228     1.0000 0.21890  0.61790  0.46440  Biso   1.000  C
  C229     1.0000 0.71890  0.88210  0.96440  Biso   1.000  C
  C230     1.0000 0.28110  0.88210  0.53560  Biso   1.000  C
  C231     1.0000 0.21890  0.38210  0.96440  Biso   1.000  C
  C232     1.0000 0.78110  0.38210  0.53560  Biso   1.000  C
  H97      1.0000 0.27631  0.12340  0.98798  Biso   1.000  H
  H98      1.0000 0.72369  0.12340  0.51202  Biso   1.000  H
  H99      1.0000 0.77631  0.62340  0.98798  Biso   1.000  H
  H100     1.0000 0.22369  0.62340  0.51202  Biso   1.000  H
  H101     1.0000 0.72369  0.87660  0.01202  Biso   1.000  H
  H102     1.0000 0.27631  0.87660  0.48798  Biso   1.000  H
  H103     1.0000 0.22369  0.37660  0.01202  Biso   1.000  H
  H104     1.0000 0.77631  0.37660  0.48798  Biso   1.000  H
  C233     1.0000 0.63362  0.43750  0.78620  Biso   1.000  C
  C234     1.0000 0.36638  0.43750  0.71380  Biso   1.000  C
  C235     1.0000 0.13362  0.93750  0.78620  Biso   1.000  C
  C236     1.0000 0.86638  0.93750  0.71380  Biso   1.000  C
  C237     1.0000 0.36638  0.56250  0.21380  Biso   1.000  C
  C238     1.0000 0.63362  0.56250  0.28620  Biso   1.000  C
  C239     1.0000 0.86638  0.06250  0.21380  Biso   1.000  C
  C240     1.0000 0.13362  0.06250  0.28620  Biso   1.000  C
  C241     1.0000 0.51500  0.32270  0.55400  Biso   1.000  C
  C242     1.0000 0.48500  0.32270  0.94600  Biso   1.000  C
  C243     1.0000 0.01500  0.82270  0.55400  Biso   1.000  C
  C244     1.0000 0.98500  0.82270  0.94600  Biso   1.000  C
  C245     1.0000 0.48500  0.67730  0.44600  Biso   1.000  C
  C246     1.0000 0.51500  0.67730  0.05400  Biso   1.000  C
  C247     1.0000 0.98500  0.17730  0.44600  Biso   1.000  C
  C248     1.0000 0.01500  0.17730  0.05400  Biso   1.000  C
  C249     1.0000 0.59230  0.42540  0.65480  Biso   1.000  C
  C250     1.0000 0.40770  0.42540  0.84520  Biso   1.000  C
  C251     1.0000 0.09230  0.92540  0.65480  Biso   1.000  C
  C252     1.0000 0.90770  0.92540  0.84520  Biso   1.000  C
  C253     1.0000 0.40770  0.57460  0.34520  Biso   1.000  C
  C254     1.0000 0.59230  0.57460  0.15480  Biso   1.000  C
  C255     1.0000 0.90770  0.07460  0.34520  Biso   1.000  C
  C256     1.0000 0.09230  0.07460  0.15480  Biso   1.000  C
  H105     1.0000 0.60425  0.45450  0.64433  Biso   1.000  H
  H106     1.0000 0.39575  0.45450  0.85567  Biso   1.000  H
  H107     1.0000 0.10425  0.95450  0.64433  Biso   1.000  H
  H108     1.0000 0.89575  0.95450  0.85567  Biso   1.000  H
  H109     1.0000 0.39575  0.54550  0.35567  Biso   1.000  H
  H110     1.0000 0.60425  0.54550  0.14433  Biso   1.000  H
  H111     1.0000 0.89575  0.04550  0.35567  Biso   1.000  H
  H112     1.0000 0.10425  0.04550  0.14433  Biso   1.000  H
  C257     1.0000 0.55440  0.33690  0.33040  Biso   1.000  C
  C258     1.0000 0.44560  0.33690  0.16960  Biso   1.000  C
  C259     1.0000 0.05440  0.83690  0.33040  Biso   1.000  C
  C260     1.0000 0.94560  0.83690  0.16960  Biso   1.000  C
  C261     1.0000 0.44560  0.66310  0.66960  Biso   1.000  C
  C262     1.0000 0.55440  0.66310  0.83040  Biso   1.000  C
  C263     1.0000 0.94560  0.16310  0.66960  Biso   1.000  C
  C264     1.0000 0.05440  0.16310  0.83040  Biso   1.000  C
  H113     1.0000 0.54671  0.30265  0.30381  Biso   1.000  H
  H114     1.0000 0.45329  0.30265  0.19619  Biso   1.000  H
  H115     1.0000 0.04671  0.80265  0.30381  Biso   1.000  H
  H116     1.0000 0.95329  0.80265  0.19619  Biso   1.000  H
  H117     1.0000 0.45329  0.69735  0.69619  Biso   1.000  H
  H118     1.0000 0.54671  0.69735  0.80381  Biso   1.000  H
  H119     1.0000 0.95329  0.19735  0.69619  Biso   1.000  H
  H120     1.0000 0.04671  0.19735  0.80381  Biso   1.000  H
  C265     1.0000 0.58830  0.36550  0.73940  Biso   1.000  C
  C266     1.0000 0.41170  0.36550  0.76060  Biso   1.000  C
  C267     1.0000 0.08830  0.86550  0.73940  Biso   1.000  C
  C268     1.0000 0.91170  0.86550  0.76060  Biso   1.000  C
  C269     1.0000 0.41170  0.63450  0.26060  Biso   1.000  C
  C270     1.0000 0.58830  0.63450  0.23940  Biso   1.000  C
  C271     1.0000 0.91170  0.13450  0.26060  Biso   1.000  C
  C272     1.0000 0.08830  0.13450  0.23940  Biso   1.000  C
  H121     1.0000 0.59688  0.35390  0.78748  Biso   1.000  H
  H122     1.0000 0.40312  0.35390  0.71252  Biso   1.000  H
  H123     1.0000 0.09688  0.85390  0.78748  Biso   1.000  H
  H124     1.0000 0.90312  0.85390  0.71252  Biso   1.000  H
  H125     1.0000 0.40312  0.64610  0.21252  Biso   1.000  H
  H126     1.0000 0.59688  0.64610  0.28748  Biso   1.000  H
  H127     1.0000 0.90312  0.14610  0.21252  Biso   1.000  H
  H128     1.0000 0.09688  0.14610  0.28748  Biso   1.000  H
  C273     1.0000 0.55090  0.40890  0.40580  Biso   1.000  C
  C274     1.0000 0.44910  0.40890  0.09420  Biso   1.000  C
  C275     1.0000 0.05090  0.90890  0.40580  Biso   1.000  C
  C276     1.0000 0.94910  0.90890  0.09420  Biso   1.000  C
  C277     1.0000 0.44910  0.59110  0.59420  Biso   1.000  C
  C278     1.0000 0.55090  0.59110  0.90580  Biso   1.000  C
  C279     1.0000 0.94910  0.09110  0.59420  Biso   1.000  C
  C280     1.0000 0.05090  0.09110  0.90580  Biso   1.000  C
  H129     1.0000 0.53856  0.42472  0.42794  Biso   1.000  H
  H130     1.0000 0.46144  0.42472  0.07206  Biso   1.000  H
  H131     1.0000 0.03856  0.92472  0.42794  Biso   1.000  H
  H132     1.0000 0.96144  0.92472  0.07206  Biso   1.000  H
  H133     1.0000 0.46144  0.57528  0.57206  Biso   1.000  H
  H134     1.0000 0.53856  0.57528  0.92794  Biso   1.000  H
  H135     1.0000 0.96144  0.07528  0.57206  Biso   1.000  H
  H136     1.0000 0.03856  0.07528  0.92794  Biso   1.000  H
  C281     1.0000 0.53902  0.35530  0.36760  Biso   1.000  C
  C282     1.0000 0.46098  0.35530  0.13240  Biso   1.000  C
  C283     1.0000 0.03902  0.85530  0.36760  Biso   1.000  C
  C284     1.0000 0.96098  0.85530  0.13240  Biso   1.000  C
  C285     1.0000 0.46098  0.64470  0.63240  Biso   1.000  C
  C286     1.0000 0.53902  0.64470  0.86760  Biso   1.000  C
  C287     1.0000 0.96098  0.14470  0.63240  Biso   1.000  C
  C288     1.0000 0.03902  0.14470  0.86760  Biso   1.000  C
  C289     1.0000 0.32010  0.13790  0.16020  Biso   1.000  C
  C290     1.0000 0.67990  0.13790  0.33980  Biso   1.000  C
  C291     1.0000 0.82010  0.63790  0.16020  Biso   1.000  C
  C292     1.0000 0.17990  0.63790  0.33980  Biso   1.000  C
  C293     1.0000 0.67990  0.86210  0.83980  Biso   1.000  C
  C294     1.0000 0.32010  0.86210  0.66020  Biso   1.000  C
  C295     1.0000 0.17990  0.36210  0.83980  Biso   1.000  C
  C296     1.0000 0.82010  0.36210  0.66020  Biso   1.000  C
  C297     1.0000 0.55820  0.33550  0.68080  Biso   1.000  C
  C298     1.0000 0.44180  0.33550  0.81920  Biso   1.000  C
  C299     1.0000 0.05820  0.83550  0.68080  Biso   1.000  C
  C300     1.0000 0.94180  0.83550  0.81920  Biso   1.000  C
  C301     1.0000 0.44180  0.66450  0.31920  Biso   1.000  C
  C302     1.0000 0.55820  0.66450  0.18080  Biso   1.000  C
  C303     1.0000 0.94180  0.16450  0.31920  Biso   1.000  C
  C304     1.0000 0.05820  0.16450  0.18080  Biso   1.000  C
  H137     1.0000 0.54787  0.30406  0.69146  Biso   1.000  H
  H138     1.0000 0.45213  0.30406  0.80854  Biso   1.000  H
  H139     1.0000 0.04787  0.80406  0.69146  Biso   1.000  H
  H140     1.0000 0.95213  0.80406  0.80854  Biso   1.000  H
  H141     1.0000 0.45213  0.69594  0.30854  Biso   1.000  H
  H142     1.0000 0.54787  0.69594  0.19146  Biso   1.000  H
  H143     1.0000 0.95213  0.19594  0.30854  Biso   1.000  H
  H144     1.0000 0.04787  0.19594  0.19146  Biso   1.000  H
  C305     1.0000 0.56100  0.39480  0.59870  Biso   1.000  C
  C306     1.0000 0.43900  0.39480  0.90130  Biso   1.000  C
  C307     1.0000 0.06100  0.89480  0.59870  Biso   1.000  C
  C308     1.0000 0.93900  0.89480  0.90130  Biso   1.000  C
  C309     1.0000 0.43900  0.60520  0.40130  Biso   1.000  C
  C310     1.0000 0.56100  0.60520  0.09870  Biso   1.000  C
  C311     1.0000 0.93900  0.10520  0.40130  Biso   1.000  C
  C312     1.0000 0.06100  0.10520  0.09870  Biso   1.000  C
  H145     1.0000 0.55148  0.40618  0.55024  Biso   1.000  H
  H146     1.0000 0.44852  0.40618  0.94976  Biso   1.000  H
  H147     1.0000 0.05148  0.90618  0.55024  Biso   1.000  H
  H148     1.0000 0.94852  0.90618  0.94976  Biso   1.000  H
  H149     1.0000 0.44852  0.59382  0.44976  Biso   1.000  H
  H150     1.0000 0.55148  0.59382  0.05024  Biso   1.000  H
  H151     1.0000 0.94852  0.09382  0.44976  Biso   1.000  H
  H152     1.0000 0.05148  0.09382  0.05024  Biso   1.000  H
  C313     1.0000 0.31130  0.14300  0.09260  Biso   1.000  C
  C314     1.0000 0.68870  0.14300  0.40740  Biso   1.000  C
  C315     1.0000 0.81130  0.64300  0.09260  Biso   1.000  C
  C316     1.0000 0.18870  0.64300  0.40740  Biso   1.000  C
  C317     1.0000 0.68870  0.85700  0.90740  Biso   1.000  C
  C318     1.0000 0.31130  0.85700  0.59260  Biso   1.000  C
  C319     1.0000 0.18870  0.35700  0.90740  Biso   1.000  C
  C320     1.0000 0.81130  0.35700  0.59260  Biso   1.000  C
  H153     1.0000 0.32659  0.16524  0.08216  Biso   1.000  H
  H154     1.0000 0.67341  0.16524  0.41784  Biso   1.000  H
  H155     1.0000 0.82659  0.66524  0.08216  Biso   1.000  H
  H156     1.0000 0.17341  0.66524  0.41784  Biso   1.000  H
  H157     1.0000 0.67341  0.83476  0.91784  Biso   1.000  H
  H158     1.0000 0.32659  0.83476  0.58216  Biso   1.000  H
  H159     1.0000 0.17341  0.33476  0.91784  Biso   1.000  H
  H160     1.0000 0.82659  0.33476  0.58216  Biso   1.000  H
  C321     1.0000 0.29960  0.10420  0.17010  Biso   1.000  C
  C322     1.0000 0.70040  0.10420  0.32990  Biso   1.000  C
  C323     1.0000 0.79960  0.60420  0.17010  Biso   1.000  C
  C324     1.0000 0.20040  0.60420  0.32990  Biso   1.000  C
  C325     1.0000 0.70040  0.89580  0.82990  Biso   1.000  C
  C326     1.0000 0.29960  0.89580  0.67010  Biso   1.000  C
  C327     1.0000 0.20040  0.39580  0.82990  Biso   1.000  C
  C328     1.0000 0.79960  0.39580  0.67010  Biso   1.000  C
  H161     1.0000 0.30633  0.09457  0.21800  Biso   1.000  H
  H162     1.0000 0.69367  0.09457  0.28200  Biso   1.000  H
  H163     1.0000 0.80633  0.59457  0.21800  Biso   1.000  H
  H164     1.0000 0.19367  0.59457  0.28200  Biso   1.000  H
  H165     1.0000 0.69367  0.90543  0.78200  Biso   1.000  H
  H166     1.0000 0.30633  0.90543  0.71800  Biso   1.000  H
  H167     1.0000 0.19367  0.40543  0.78200  Biso   1.000  H
  H168     1.0000 0.80633  0.40543  0.71800  Biso   1.000  H
  C329     1.0000 0.26730  0.08050  0.11330  Biso   1.000  C
  C330     1.0000 0.73270  0.08050  0.38670  Biso   1.000  C
  C331     1.0000 0.76730  0.58050  0.11330  Biso   1.000  C
  C332     1.0000 0.23270  0.58050  0.38670  Biso   1.000  C
  C333     1.0000 0.73270  0.91950  0.88670  Biso   1.000  C
  C334     1.0000 0.26730  0.91950  0.61330  Biso   1.000  C
  C335     1.0000 0.23270  0.41950  0.88670  Biso   1.000  C
  C336     1.0000 0.76730  0.41950  0.61330  Biso   1.000  C
  H169     1.0000 0.25153  0.05982  0.12393  Biso   1.000  H
  H170     1.0000 0.74847  0.05982  0.37607  Biso   1.000  H
  H171     1.0000 0.75153  0.55982  0.12393  Biso   1.000  H
  H172     1.0000 0.24847  0.55982  0.37607  Biso   1.000  H
  H173     1.0000 0.74847  0.94018  0.87607  Biso   1.000  H
  H174     1.0000 0.25153  0.94018  0.62393  Biso   1.000  H
  H175     1.0000 0.24847  0.44018  0.87607  Biso   1.000  H
  H176     1.0000 0.75153  0.44018  0.62393  Biso   1.000  H
