data_image0
_cell_length_a       10.734
_cell_length_b       19.4932
_cell_length_c       23.3901
_cell_angle_alpha    90
_cell_angle_beta     98.849
_cell_angle_gamma    90

_symmetry_space_group_name_H-M    "P 1"
_symmetry_int_tables_number       1

loop_
  _symmetry_equiv_pos_as_xyz
  'x, y, z'

loop_
  _atom_site_label
  _atom_site_occupancy
  _atom_site_fract_x
  _atom_site_fract_y
  _atom_site_fract_z
  _atom_site_thermal_displace_type
  _atom_site_B_iso_or_equiv
  _atom_site_type_symbol
  C1       1.0000 0.72780  0.58150  0.54997  Biso   1.000  C
  C2       1.0000 0.27220  0.08150  0.95003  Biso   1.000  C
  C3       1.0000 0.27220  0.41850  0.45003  Biso   1.000  C
  C4       1.0000 0.72780  0.91850  0.04997  Biso   1.000  C
  N1       1.0000 0.92530  0.33552  0.25385  Biso   1.000  N
  N2       1.0000 0.07470  0.83552  0.24615  Biso   1.000  N
  N3       1.0000 0.07470  0.66448  0.74615  Biso   1.000  N
  N4       1.0000 0.92530  0.16448  0.75385  Biso   1.000  N
  O1       1.0000 0.03240  0.13356  0.04772  Biso   1.000  O
  O2       1.0000 0.96760  0.63356  0.45228  Biso   1.000  O
  O3       1.0000 0.96760  0.86644  0.95228  Biso   1.000  O
  O4       1.0000 0.03240  0.36644  0.54772  Biso   1.000  O
  Nd1      1.0000 0.12957  0.54006  0.45373  Biso   1.000  Nd
  Nd2      1.0000 0.87042  0.04006  0.04627  Biso   1.000  Nd
  Nd3      1.0000 0.87042  0.45994  0.54627  Biso   1.000  Nd
  Nd4      1.0000 0.12957  0.95994  0.95373  Biso   1.000  Nd
  Cu1      1.0000 0.99763  0.36049  0.17449  Biso   1.000  Cu
  Cu2      1.0000 0.00237  0.86049  0.32551  Biso   1.000  Cu
  Cu3      1.0000 0.00237  0.63951  0.82551  Biso   1.000  Cu
  Cu4      1.0000 0.99763  0.13951  0.67449  Biso   1.000  Cu
  C5       1.0000 0.64060  0.63820  0.56250  Biso   1.000  C
  C6       1.0000 0.35940  0.13820  0.93750  Biso   1.000  C
  C7       1.0000 0.35940  0.36180  0.43750  Biso   1.000  C
  C8       1.0000 0.64060  0.86180  0.06250  Biso   1.000  C
  N5       1.0000 0.82690  0.32542  0.14593  Biso   1.000  N
  N6       1.0000 0.17310  0.82542  0.35407  Biso   1.000  N
  N7       1.0000 0.17310  0.67458  0.85407  Biso   1.000  N
  N8       1.0000 0.82690  0.17458  0.64593  Biso   1.000  N
  O5       1.0000 0.00640  0.23117  0.99664  Biso   1.000  O
  O6       1.0000 0.99360  0.73117  0.50336  Biso   1.000  O
  O7       1.0000 0.99360  0.76883  0.00336  Biso   1.000  O
  O8       1.0000 0.00640  0.26883  0.49664  Biso   1.000  O
  C9       1.0000 0.68590  0.69369  0.59689  Biso   1.000  C
  C10      1.0000 0.31410  0.19369  0.90311  Biso   1.000  C
  C11      1.0000 0.31410  0.30631  0.40311  Biso   1.000  C
  C12      1.0000 0.68590  0.80631  0.09689  Biso   1.000  C
  H1       1.0000 0.77110  0.69660  0.61200  Biso   1.000  H
  H2       1.0000 0.22890  0.19660  0.88800  Biso   1.000  H
  H3       1.0000 0.22890  0.30340  0.38800  Biso   1.000  H
  H4       1.0000 0.77110  0.80340  0.11200  Biso   1.000  H
  N9       1.0000 0.98450  0.37476  0.08285  Biso   1.000  N
  N10      1.0000 0.01550  0.87476  0.41715  Biso   1.000  N
  N11      1.0000 0.01550  0.62524  0.91715  Biso   1.000  N
  N12      1.0000 0.98450  0.12524  0.58285  Biso   1.000  N
  O9       1.0000 0.84410  0.58558  0.56892  Biso   1.000  O
  O10      1.0000 0.15590  0.08558  0.93108  Biso   1.000  O
  O11      1.0000 0.15590  0.41442  0.43108  Biso   1.000  O
  O12      1.0000 0.84410  0.91442  0.06892  Biso   1.000  O
  C13      1.0000 0.60300  0.74502  0.60859  Biso   1.000  C
  C14      1.0000 0.39700  0.24502  0.89141  Biso   1.000  C
  C15      1.0000 0.39700  0.25498  0.39141  Biso   1.000  C
  C16      1.0000 0.60300  0.75498  0.10859  Biso   1.000  C
  H5       1.0000 0.63270  0.78250  0.63120  Biso   1.000  H
  H6       1.0000 0.36730  0.28250  0.86880  Biso   1.000  H
  H7       1.0000 0.36730  0.21750  0.36880  Biso   1.000  H
  H8       1.0000 0.63270  0.71750  0.13120  Biso   1.000  H
  N13      1.0000 0.10620  0.26571  0.18797  Biso   1.000  N
  N14      1.0000 0.89380  0.76571  0.31203  Biso   1.000  N
  N15      1.0000 0.89380  0.73429  0.81203  Biso   1.000  N
  N16      1.0000 0.10620  0.23429  0.68797  Biso   1.000  N
  O13      1.0000 0.68120  0.53007  0.52159  Biso   1.000  O
  O14      1.0000 0.31880  0.03007  0.97841  Biso   1.000  O
  O15      1.0000 0.31880  0.46993  0.47841  Biso   1.000  O
  O16      1.0000 0.68120  0.96993  0.02159  Biso   1.000  O
  C17      1.0000 0.47610  0.73991  0.58639  Biso   1.000  C
  C18      1.0000 0.52390  0.23991  0.91361  Biso   1.000  C
  C19      1.0000 0.52390  0.26009  0.41361  Biso   1.000  C
  C20      1.0000 0.47610  0.76009  0.08639  Biso   1.000  C
  H9       1.0000 0.42090  0.77430  0.59400  Biso   1.000  H
  H10      1.0000 0.57910  0.27430  0.90600  Biso   1.000  H
  H11      1.0000 0.57910  0.22570  0.40600  Biso   1.000  H
  H12      1.0000 0.42090  0.72570  0.09400  Biso   1.000  H
  N17      1.0000 0.16920  0.39382  0.20700  Biso   1.000  N
  N18      1.0000 0.83080  0.89382  0.29300  Biso   1.000  N
  N19      1.0000 0.83080  0.60618  0.79300  Biso   1.000  N
  N20      1.0000 0.16920  0.10618  0.70700  Biso   1.000  N
  O17      1.0000 0.97570  0.51267  0.36701  Biso   1.000  O
  O18      1.0000 0.02430  0.01267  0.13299  Biso   1.000  O
  O19      1.0000 0.02430  0.48733  0.63299  Biso   1.000  O
  O20      1.0000 0.97570  0.98733  0.86701  Biso   1.000  O
  C21      1.0000 0.43050  0.68377  0.55280  Biso   1.000  C
  C22      1.0000 0.56950  0.18377  0.94720  Biso   1.000  C
  C23      1.0000 0.56950  0.31623  0.44720  Biso   1.000  C
  C24      1.0000 0.43050  0.81623  0.05280  Biso   1.000  C
  N21      1.0000 0.97270  0.47284  0.17986  Biso   1.000  N
  N22      1.0000 0.02730  0.97284  0.32014  Biso   1.000  N
  N23      1.0000 0.02730  0.52716  0.82014  Biso   1.000  N
  N24      1.0000 0.97270  0.02716  0.67986  Biso   1.000  N
  O21      1.0000 0.90600  0.49055  0.44898  Biso   1.000  O
  O22      1.0000 0.09400  0.99055  0.05102  Biso   1.000  O
  O23      1.0000 0.09400  0.50945  0.55102  Biso   1.000  O
  O24      1.0000 0.90600  0.00945  0.94898  Biso   1.000  O
  C25      1.0000 0.51350  0.63303  0.54110  Biso   1.000  C
  C26      1.0000 0.48650  0.13303  0.95890  Biso   1.000  C
  C27      1.0000 0.48650  0.36697  0.45890  Biso   1.000  C
  C28      1.0000 0.51350  0.86697  0.04110  Biso   1.000  C
  H13      1.0000 0.48360  0.59530  0.51870  Biso   1.000  H
  H14      1.0000 0.51640  0.09530  0.98130  Biso   1.000  H
  H15      1.0000 0.51640  0.40470  0.48130  Biso   1.000  H
  H16      1.0000 0.48360  0.90470  0.01870  Biso   1.000  H
  N25      1.0000 0.23910  0.60044  0.35450  Biso   1.000  N
  N26      1.0000 0.76090  0.10044  0.14550  Biso   1.000  N
  N27      1.0000 0.76090  0.39956  0.64550  Biso   1.000  N
  N28      1.0000 0.23910  0.89956  0.85450  Biso   1.000  N
  O25      1.0000 0.24910  0.53719  0.36622  Biso   1.000  O
  O26      1.0000 0.75090  0.03719  0.13378  Biso   1.000  O
  O27      1.0000 0.75090  0.46281  0.63378  Biso   1.000  O
  O28      1.0000 0.24910  0.96281  0.86622  Biso   1.000  O
  C29      1.0000 0.29320  0.67648  0.52943  Biso   1.000  C
  C30      1.0000 0.70680  0.17648  0.97057  Biso   1.000  C
  C31      1.0000 0.70680  0.32352  0.47057  Biso   1.000  C
  C32      1.0000 0.29320  0.82352  0.02943  Biso   1.000  C
  O29      1.0000 0.28070  0.62584  0.31346  Biso   1.000  O
  O30      1.0000 0.71930  0.12584  0.18654  Biso   1.000  O
  O31      1.0000 0.71930  0.37416  0.68654  Biso   1.000  O
  O32      1.0000 0.28070  0.87416  0.81346  Biso   1.000  O
  C33      1.0000 0.88820  0.49545  0.39334  Biso   1.000  C
  C34      1.0000 0.11180  0.99545  0.10666  Biso   1.000  C
  C35      1.0000 0.11180  0.50455  0.60666  Biso   1.000  C
  C36      1.0000 0.88820  0.00455  0.89334  Biso   1.000  C
  O33      1.0000 0.18380  0.63670  0.38817  Biso   1.000  O
  O34      1.0000 0.81620  0.13670  0.11183  Biso   1.000  O
  O35      1.0000 0.81620  0.36330  0.61183  Biso   1.000  O
  O36      1.0000 0.18380  0.86330  0.88817  Biso   1.000  O
  C37      1.0000 0.76140  0.48264  0.35952  Biso   1.000  C
  C38      1.0000 0.23860  0.98264  0.14048  Biso   1.000  C
  C39      1.0000 0.23860  0.51736  0.64048  Biso   1.000  C
  C40      1.0000 0.76140  0.01736  0.85952  Biso   1.000  C
  O37      1.0000 0.25470  0.61902  0.51118  Biso   1.000  O
  O38      1.0000 0.74530  0.11902  0.98882  Biso   1.000  O
  O39      1.0000 0.74530  0.38098  0.48882  Biso   1.000  O
  O40      1.0000 0.25470  0.88098  0.01118  Biso   1.000  O
  C41      1.0000 0.75340  0.46609  0.30086  Biso   1.000  C
  C42      1.0000 0.24660  0.96609  0.19914  Biso   1.000  C
  C43      1.0000 0.24660  0.53391  0.69914  Biso   1.000  C
  C44      1.0000 0.75340  0.03391  0.80086  Biso   1.000  C
  H17      1.0000 0.82620  0.46410  0.28390  Biso   1.000  H
  H18      1.0000 0.17380  0.96410  0.21610  Biso   1.000  H
  H19      1.0000 0.17380  0.53590  0.71610  Biso   1.000  H
  H20      1.0000 0.82620  0.03590  0.78390  Biso   1.000  H
  O41      1.0000 0.22360  0.72858  0.53038  Biso   1.000  O
  O42      1.0000 0.77640  0.22858  0.96962  Biso   1.000  O
  O43      1.0000 0.77640  0.27142  0.46962  Biso   1.000  O
  O44      1.0000 0.22360  0.77142  0.03038  Biso   1.000  O
  C45      1.0000 0.63770  0.45269  0.26815  Biso   1.000  C
  C46      1.0000 0.36230  0.95269  0.23185  Biso   1.000  C
  C47      1.0000 0.36230  0.54731  0.73185  Biso   1.000  C
  C48      1.0000 0.63770  0.04731  0.76815  Biso   1.000  C
  H21      1.0000 0.63290  0.43920  0.22970  Biso   1.000  H
  H22      1.0000 0.36710  0.93920  0.27030  Biso   1.000  H
  H23      1.0000 0.36710  0.56080  0.77030  Biso   1.000  H
  H24      1.0000 0.63290  0.06080  0.72970  Biso   1.000  H
  C49      1.0000 0.52860  0.45932  0.29269  Biso   1.000  C
  C50      1.0000 0.47140  0.95932  0.20731  Biso   1.000  C
  C51      1.0000 0.47140  0.54068  0.70731  Biso   1.000  C
  C52      1.0000 0.52860  0.04068  0.79269  Biso   1.000  C
  C53      1.0000 0.53540  0.47890  0.35008  Biso   1.000  C
  C54      1.0000 0.46460  0.97890  0.14992  Biso   1.000  C
  C55      1.0000 0.46460  0.52110  0.64992  Biso   1.000  C
  C56      1.0000 0.53540  0.02110  0.85008  Biso   1.000  C
  H25      1.0000 0.46190  0.48510  0.36600  Biso   1.000  H
  H26      1.0000 0.53810  0.98510  0.13400  Biso   1.000  H
  H27      1.0000 0.53810  0.51490  0.63400  Biso   1.000  H
  H28      1.0000 0.46190  0.01490  0.86600  Biso   1.000  H
  C57      1.0000 0.65210  0.48920  0.38380  Biso   1.000  C
  C58      1.0000 0.34790  0.98920  0.11620  Biso   1.000  C
  C59      1.0000 0.34790  0.51080  0.61620  Biso   1.000  C
  C60      1.0000 0.65210  0.01080  0.88380  Biso   1.000  C
  H29      1.0000 0.65700  0.50050  0.42270  Biso   1.000  H
  H30      1.0000 0.34300  0.00050  0.07730  Biso   1.000  H
  H31      1.0000 0.34300  0.49950  0.57730  Biso   1.000  H
  H32      1.0000 0.65700  0.99950  0.92270  Biso   1.000  H
  C61      1.0000 0.86820  0.50940  0.16122  Biso   1.000  C
  C62      1.0000 0.13180  0.00940  0.33878  Biso   1.000  C
  C63      1.0000 0.13180  0.49060  0.83878  Biso   1.000  C
  C64      1.0000 0.86820  0.99060  0.66122  Biso   1.000  C
  H33      1.0000 0.79280  0.48620  0.14980  Biso   1.000  H
  H34      1.0000 0.20720  0.98620  0.35020  Biso   1.000  H
  H35      1.0000 0.20720  0.51380  0.85020  Biso   1.000  H
  H36      1.0000 0.79280  0.01380  0.64980  Biso   1.000  H
  C65      1.0000 0.86860  0.58010  0.15833  Biso   1.000  C
  C66      1.0000 0.13140  0.08010  0.34167  Biso   1.000  C
  C67      1.0000 0.13140  0.41990  0.84167  Biso   1.000  C
  C68      1.0000 0.86860  0.91990  0.65833  Biso   1.000  C
  H37      1.0000 0.79500  0.60430  0.14530  Biso   1.000  H
  H38      1.0000 0.20500  0.10430  0.35470  Biso   1.000  H
  H39      1.0000 0.20500  0.39570  0.85470  Biso   1.000  H
  H40      1.0000 0.79500  0.89570  0.64530  Biso   1.000  H
  C69      1.0000 0.98060  0.61390  0.17525  Biso   1.000  C
  C70      1.0000 0.01940  0.11390  0.32475  Biso   1.000  C
  C71      1.0000 0.01940  0.38610  0.82475  Biso   1.000  C
  C72      1.0000 0.98060  0.88610  0.67525  Biso   1.000  C
  H41      1.0000 0.98330  0.66150  0.17350  Biso   1.000  H
  H42      1.0000 0.01670  0.16150  0.32650  Biso   1.000  H
  H43      1.0000 0.01670  0.33850  0.82650  Biso   1.000  H
  H44      1.0000 0.98330  0.83850  0.67350  Biso   1.000  H
  C73      1.0000 0.08860  0.57757  0.19468  Biso   1.000  C
  C74      1.0000 0.91140  0.07757  0.30532  Biso   1.000  C
  C75      1.0000 0.91140  0.42243  0.80532  Biso   1.000  C
  C76      1.0000 0.08860  0.92243  0.69468  Biso   1.000  C
  H45      1.0000 0.16460  0.60010  0.20640  Biso   1.000  H
  H46      1.0000 0.83540  0.10010  0.29360  Biso   1.000  H
  H47      1.0000 0.83540  0.39990  0.79360  Biso   1.000  H
  H48      1.0000 0.16460  0.89990  0.70640  Biso   1.000  H
  C77      1.0000 0.08150  0.50650  0.19647  Biso   1.000  C
  C78      1.0000 0.91850  0.00650  0.30353  Biso   1.000  C
  C79      1.0000 0.91850  0.49350  0.80353  Biso   1.000  C
  C80      1.0000 0.08150  0.99350  0.69647  Biso   1.000  C
  C81      1.0000 0.19200  0.46165  0.21553  Biso   1.000  C
  C82      1.0000 0.80800  0.96165  0.28447  Biso   1.000  C
  C83      1.0000 0.80800  0.53835  0.78447  Biso   1.000  C
  C84      1.0000 0.19200  0.03835  0.71553  Biso   1.000  C
  C85      1.0000 0.30830  0.48570  0.24245  Biso   1.000  C
  C86      1.0000 0.69170  0.98570  0.25755  Biso   1.000  C
  C87      1.0000 0.69170  0.51430  0.75755  Biso   1.000  C
  C88      1.0000 0.30830  0.01430  0.74245  Biso   1.000  C
  H49      1.0000 0.32190  0.53240  0.24870  Biso   1.000  H
  H50      1.0000 0.67810  0.03240  0.25130  Biso   1.000  H
  H51      1.0000 0.67810  0.46760  0.75130  Biso   1.000  H
  H52      1.0000 0.32190  0.96760  0.74870  Biso   1.000  H
  C89      1.0000 0.40340  0.43873  0.25979  Biso   1.000  C
  C90      1.0000 0.59660  0.93873  0.24021  Biso   1.000  C
  C91      1.0000 0.59660  0.56127  0.74021  Biso   1.000  C
  C92      1.0000 0.40340  0.06127  0.75979  Biso   1.000  C
  C93      1.0000 0.38070  0.36949  0.24927  Biso   1.000  C
  C94      1.0000 0.61930  0.86949  0.25073  Biso   1.000  C
  C95      1.0000 0.61930  0.63051  0.75073  Biso   1.000  C
  C96      1.0000 0.38070  0.13051  0.74927  Biso   1.000  C
  H53      1.0000 0.44460  0.33750  0.25950  Biso   1.000  H
  H54      1.0000 0.55540  0.83750  0.24050  Biso   1.000  H
  H55      1.0000 0.55540  0.66250  0.74050  Biso   1.000  H
  H56      1.0000 0.44460  0.16250  0.75950  Biso   1.000  H
  C97      1.0000 0.26210  0.34820  0.22346  Biso   1.000  C
  C98      1.0000 0.73790  0.84820  0.27654  Biso   1.000  C
  C99      1.0000 0.73790  0.65180  0.77654  Biso   1.000  C
  C100     1.0000 0.26210  0.15180  0.72346  Biso   1.000  C
  C101     1.0000 0.22580  0.27544  0.21504  Biso   1.000  C
  C102     1.0000 0.77420  0.77544  0.28496  Biso   1.000  C
  C103     1.0000 0.77420  0.72456  0.78496  Biso   1.000  C
  C104     1.0000 0.22580  0.22456  0.71504  Biso   1.000  C
  C105     1.0000 0.30250  0.22140  0.23611  Biso   1.000  C
  C106     1.0000 0.69750  0.72140  0.26389  Biso   1.000  C
  C107     1.0000 0.69750  0.77860  0.76389  Biso   1.000  C
  C108     1.0000 0.30250  0.27860  0.73611  Biso   1.000  C
  H57      1.0000 0.38420  0.22970  0.25460  Biso   1.000  H
  H58      1.0000 0.61580  0.72970  0.24540  Biso   1.000  H
  H59      1.0000 0.61580  0.77030  0.74540  Biso   1.000  H
  H60      1.0000 0.38420  0.27030  0.75460  Biso   1.000  H
  C109     1.0000 0.25760  0.15510  0.22965  Biso   1.000  C
  C110     1.0000 0.74240  0.65510  0.27035  Biso   1.000  C
  C111     1.0000 0.74240  0.84490  0.77035  Biso   1.000  C
  C112     1.0000 0.25760  0.34490  0.72965  Biso   1.000  C
  H61      1.0000 0.30810  0.11820  0.24350  Biso   1.000  H
  H62      1.0000 0.69190  0.61820  0.25650  Biso   1.000  H
  H63      1.0000 0.69190  0.88180  0.75650  Biso   1.000  H
  H64      1.0000 0.30810  0.38180  0.74350  Biso   1.000  H
  C113     1.0000 0.13630  0.14510  0.20219  Biso   1.000  C
  C114     1.0000 0.86370  0.64510  0.29781  Biso   1.000  C
  C115     1.0000 0.86370  0.85490  0.79781  Biso   1.000  C
  C116     1.0000 0.13630  0.35490  0.70219  Biso   1.000  C
  H65      1.0000 0.10290  0.10110  0.19740  Biso   1.000  H
  H66      1.0000 0.89710  0.60110  0.30260  Biso   1.000  H
  H67      1.0000 0.89710  0.89890  0.80260  Biso   1.000  H
  H68      1.0000 0.10290  0.39890  0.69740  Biso   1.000  H
  C117     1.0000 0.06530  0.20090  0.18195  Biso   1.000  C
  C118     1.0000 0.93470  0.70090  0.31805  Biso   1.000  C
  C119     1.0000 0.93470  0.79910  0.81805  Biso   1.000  C
  C120     1.0000 0.06530  0.29910  0.68195  Biso   1.000  C
  H69      1.0000 0.98390  0.19330  0.16290  Biso   1.000  H
  H70      1.0000 0.01610  0.69330  0.33710  Biso   1.000  H
  H71      1.0000 0.01610  0.80670  0.83710  Biso   1.000  H
  H72      1.0000 0.98390  0.30670  0.66290  Biso   1.000  H
  C121     1.0000 0.98400  0.34260  0.30862  Biso   1.000  C
  C122     1.0000 0.01600  0.84260  0.19138  Biso   1.000  C
  C123     1.0000 0.01600  0.65740  0.69138  Biso   1.000  C
  C124     1.0000 0.98400  0.15740  0.80862  Biso   1.000  C
  H73      1.0000 0.05590  0.36980  0.31590  Biso   1.000  H
  H74      1.0000 0.94410  0.86980  0.18410  Biso   1.000  H
  H75      1.0000 0.94410  0.63020  0.68410  Biso   1.000  H
  H76      1.0000 0.05590  0.13020  0.81590  Biso   1.000  H
  C125     1.0000 0.94060  0.31050  0.35429  Biso   1.000  C
  C126     1.0000 0.05940  0.81050  0.14571  Biso   1.000  C
  C127     1.0000 0.05940  0.68950  0.64571  Biso   1.000  C
  C128     1.0000 0.94060  0.18950  0.85429  Biso   1.000  C
  H77      1.0000 0.98130  0.31710  0.39200  Biso   1.000  H
  H78      1.0000 0.01870  0.81710  0.10800  Biso   1.000  H
  H79      1.0000 0.01870  0.68290  0.60800  Biso   1.000  H
  H80      1.0000 0.98130  0.18290  0.89200  Biso   1.000  H
  C129     1.0000 0.83600  0.26860  0.34333  Biso   1.000  C
  C130     1.0000 0.16400  0.76860  0.15667  Biso   1.000  C
  C131     1.0000 0.16400  0.73140  0.65667  Biso   1.000  C
  C132     1.0000 0.83600  0.23140  0.84333  Biso   1.000  C
  H81      1.0000 0.80760  0.24500  0.37340  Biso   1.000  H
  H82      1.0000 0.19240  0.74500  0.12660  Biso   1.000  H
  H83      1.0000 0.19240  0.75500  0.62660  Biso   1.000  H
  H84      1.0000 0.80760  0.25500  0.87340  Biso   1.000  H
  C133     1.0000 0.77380  0.26200  0.28718  Biso   1.000  C
  C134     1.0000 0.22620  0.76200  0.21282  Biso   1.000  C
  C135     1.0000 0.22620  0.73800  0.71282  Biso   1.000  C
  C136     1.0000 0.77380  0.23800  0.78718  Biso   1.000  C
  H85      1.0000 0.70270  0.23440  0.27890  Biso   1.000  H
  H86      1.0000 0.29730  0.73440  0.22110  Biso   1.000  H
  H87      1.0000 0.29730  0.76560  0.72110  Biso   1.000  H
  H88      1.0000 0.70270  0.26560  0.77890  Biso   1.000  H
  C137     1.0000 0.81970  0.29729  0.24386  Biso   1.000  C
  C138     1.0000 0.18030  0.79729  0.25614  Biso   1.000  C
  C139     1.0000 0.18030  0.70271  0.75614  Biso   1.000  C
  C140     1.0000 0.81970  0.20271  0.74386  Biso   1.000  C
  C141     1.0000 0.75790  0.29663  0.18259  Biso   1.000  C
  C142     1.0000 0.24210  0.79663  0.31741  Biso   1.000  C
  C143     1.0000 0.24210  0.70337  0.81741  Biso   1.000  C
  C144     1.0000 0.75790  0.20337  0.68259  Biso   1.000  C
  C145     1.0000 0.63830  0.27119  0.16371  Biso   1.000  C
  C146     1.0000 0.36170  0.77119  0.33629  Biso   1.000  C
  C147     1.0000 0.36170  0.72881  0.83629  Biso   1.000  C
  C148     1.0000 0.63830  0.22881  0.66371  Biso   1.000  C
  H89      1.0000 0.59250  0.25090  0.18990  Biso   1.000  H
  H90      1.0000 0.40750  0.75090  0.31010  Biso   1.000  H
  H91      1.0000 0.40750  0.74910  0.81010  Biso   1.000  H
  H92      1.0000 0.59250  0.24910  0.68990  Biso   1.000  H
  C149     1.0000 0.58660  0.27602  0.10543  Biso   1.000  C
  C150     1.0000 0.41340  0.77602  0.39457  Biso   1.000  C
  C151     1.0000 0.41340  0.72398  0.89457  Biso   1.000  C
  C152     1.0000 0.58660  0.22398  0.60543  Biso   1.000  C
  C153     1.0000 0.66010  0.30665  0.06805  Biso   1.000  C
  C154     1.0000 0.33990  0.80665  0.43195  Biso   1.000  C
  C155     1.0000 0.33990  0.69335  0.93195  Biso   1.000  C
  C156     1.0000 0.66010  0.19335  0.56805  Biso   1.000  C
  H93      1.0000 0.62840  0.31100  0.02890  Biso   1.000  H
  H94      1.0000 0.37160  0.81100  0.47110  Biso   1.000  H
  H95      1.0000 0.37160  0.68900  0.97110  Biso   1.000  H
  H96      1.0000 0.62840  0.18900  0.52890  Biso   1.000  H
  C157     1.0000 0.77990  0.33054  0.08912  Biso   1.000  C
  C158     1.0000 0.22010  0.83054  0.41088  Biso   1.000  C
  C159     1.0000 0.22010  0.66946  0.91088  Biso   1.000  C
  C160     1.0000 0.77990  0.16946  0.58912  Biso   1.000  C
  C161     1.0000 0.86780  0.36213  0.05386  Biso   1.000  C
  C162     1.0000 0.13220  0.86213  0.44614  Biso   1.000  C
  C163     1.0000 0.13220  0.63787  0.94614  Biso   1.000  C
  C164     1.0000 0.86780  0.13787  0.55386  Biso   1.000  C
  C165     1.0000 0.83470  0.37814  0.99564  Biso   1.000  C
  C166     1.0000 0.16530  0.87814  0.50436  Biso   1.000  C
  C167     1.0000 0.16530  0.62186  0.00436  Biso   1.000  C
  C168     1.0000 0.83470  0.12186  0.49564  Biso   1.000  C
  H97      1.0000 0.75360  0.36970  0.97650  Biso   1.000  H
  H98      1.0000 0.24640  0.86970  0.52350  Biso   1.000  H
  H99      1.0000 0.24640  0.63030  0.02350  Biso   1.000  H
  H100     1.0000 0.75360  0.13030  0.47650  Biso   1.000  H
  C169     1.0000 0.92540  0.40690  0.96683  Biso   1.000  C
  C170     1.0000 0.07460  0.90690  0.53317  Biso   1.000  C
  C171     1.0000 0.07460  0.59310  0.03317  Biso   1.000  C
  C172     1.0000 0.92540  0.09310  0.46683  Biso   1.000  C
  H101     1.0000 0.90570  0.41830  0.92790  Biso   1.000  H
  H102     1.0000 0.09430  0.91830  0.57210  Biso   1.000  H
  H103     1.0000 0.09430  0.58170  0.07210  Biso   1.000  H
  H104     1.0000 0.90570  0.08170  0.42790  Biso   1.000  H
  C173     1.0000 0.04380  0.41860  0.99583  Biso   1.000  C
  C174     1.0000 0.95620  0.91860  0.50417  Biso   1.000  C
  C175     1.0000 0.95620  0.58140  0.00417  Biso   1.000  C
  C176     1.0000 0.04380  0.08140  0.49583  Biso   1.000  C
  H105     1.0000 0.10580  0.43720  0.97670  Biso   1.000  H
  H106     1.0000 0.89420  0.93720  0.52330  Biso   1.000  H
  H107     1.0000 0.89420  0.56280  0.02330  Biso   1.000  H
  H108     1.0000 0.10580  0.06280  0.47670  Biso   1.000  H
  C177     1.0000 0.07030  0.40240  0.05363  Biso   1.000  C
  C178     1.0000 0.92970  0.90240  0.44637  Biso   1.000  C
  C179     1.0000 0.92970  0.59760  0.94637  Biso   1.000  C
  C180     1.0000 0.07030  0.09760  0.55363  Biso   1.000  C
  H109     1.0000 0.15080  0.41100  0.07330  Biso   1.000  H
  H110     1.0000 0.84920  0.91100  0.42670  Biso   1.000  H
  H111     1.0000 0.84920  0.58900  0.92670  Biso   1.000  H
  H112     1.0000 0.15080  0.08900  0.57330  Biso   1.000  H
  C181     1.0000 0.45710  0.25107  0.08452  Biso   1.000  C
  C182     1.0000 0.54290  0.75107  0.41548  Biso   1.000  C
  C183     1.0000 0.54290  0.74893  0.91548  Biso   1.000  C
  C184     1.0000 0.45710  0.24893  0.58452  Biso   1.000  C
  C185     1.0000 0.41290  0.18983  0.10385  Biso   1.000  C
  C186     1.0000 0.58710  0.68983  0.39615  Biso   1.000  C
  C187     1.0000 0.58710  0.81017  0.89615  Biso   1.000  C
  C188     1.0000 0.41290  0.31017  0.60385  Biso   1.000  C
  H113     1.0000 0.46650  0.16280  0.12960  Biso   1.000  H
  H114     1.0000 0.53350  0.66280  0.37040  Biso   1.000  H
  H115     1.0000 0.53350  0.83720  0.87040  Biso   1.000  H
  H116     1.0000 0.46650  0.33720  0.62960  Biso   1.000  H
  C189     1.0000 0.29030  0.16798  0.08554  Biso   1.000  C
  C190     1.0000 0.70970  0.66798  0.41446  Biso   1.000  C
  C191     1.0000 0.70970  0.83202  0.91446  Biso   1.000  C
  C192     1.0000 0.29030  0.33202  0.58554  Biso   1.000  C
  H117     1.0000 0.26250  0.12650  0.09870  Biso   1.000  H
  H118     1.0000 0.73750  0.62650  0.40130  Biso   1.000  H
  H119     1.0000 0.73750  0.87350  0.90130  Biso   1.000  H
  H120     1.0000 0.26250  0.37350  0.59870  Biso   1.000  H
  C193     1.0000 0.20850  0.20864  0.04708  Biso   1.000  C
  C194     1.0000 0.79150  0.70864  0.45292  Biso   1.000  C
  C195     1.0000 0.79150  0.79136  0.95292  Biso   1.000  C
  C196     1.0000 0.20850  0.29136  0.54708  Biso   1.000  C
  C197     1.0000 0.25360  0.26867  0.02624  Biso   1.000  C
  C198     1.0000 0.74640  0.76867  0.47376  Biso   1.000  C
  C199     1.0000 0.74640  0.73133  0.97376  Biso   1.000  C
  C200     1.0000 0.25360  0.23133  0.52624  Biso   1.000  C
  H121     1.0000 0.20050  0.29520  0.99980  Biso   1.000  H
  H122     1.0000 0.79950  0.79520  0.50020  Biso   1.000  H
  H123     1.0000 0.79950  0.70480  0.00020  Biso   1.000  H
  H124     1.0000 0.20050  0.20480  0.49980  Biso   1.000  H
  C201     1.0000 0.37600  0.28980  0.04398  Biso   1.000  C
  C202     1.0000 0.62400  0.78980  0.45602  Biso   1.000  C
  C203     1.0000 0.62400  0.71020  0.95602  Biso   1.000  C
  C204     1.0000 0.37600  0.21020  0.54398  Biso   1.000  C
  H125     1.0000 0.40500  0.33000  0.02900  Biso   1.000  H
  H126     1.0000 0.59500  0.83000  0.47100  Biso   1.000  H
  H127     1.0000 0.59500  0.67000  0.97100  Biso   1.000  H
  H128     1.0000 0.40500  0.17000  0.52900  Biso   1.000  H
  C205     1.0000 0.07370  0.18745  0.03015  Biso   1.000  C
  C206     1.0000 0.92630  0.68745  0.46985  Biso   1.000  C
  C207     1.0000 0.92630  0.81255  0.96985  Biso   1.000  C
  C208     1.0000 0.07370  0.31255  0.53015  Biso   1.000  C
  N29      1.0000 0.44580  0.60110  0.15667  Biso   1.000  N
  N30      1.0000 0.55420  0.10110  0.34333  Biso   1.000  N
  N31      1.0000 0.55420  0.39890  0.84333  Biso   1.000  N
  N32      1.0000 0.44580  0.89890  0.65667  Biso   1.000  N
  O45      1.0000 0.43360  0.63910  0.19790  Biso   1.000  O
  O46      1.0000 0.56640  0.13910  0.30210  Biso   1.000  O
  O47      1.0000 0.56640  0.36090  0.80210  Biso   1.000  O
  O48      1.0000 0.43360  0.86090  0.69790  Biso   1.000  O
  O49      1.0000 0.55290  0.58188  0.14932  Biso   1.000  O
  O50      1.0000 0.44710  0.08188  0.35068  Biso   1.000  O
  O51      1.0000 0.44710  0.41812  0.85068  Biso   1.000  O
  O52      1.0000 0.55290  0.91812  0.64932  Biso   1.000  O
  O53      1.0000 0.35120  0.58180  0.12273  Biso   1.000  O
  O54      1.0000 0.64880  0.08180  0.37727  Biso   1.000  O
  O55      1.0000 0.64880  0.41820  0.87727  Biso   1.000  O
  O56      1.0000 0.35120  0.91820  0.62273  Biso   1.000  O
  O57      1.0000 0.34740  0.47250  0.03770  Biso   1.000  O
  O58      1.0000 0.65260  0.97250  0.46230  Biso   1.000  O
  O59      1.0000 0.65260  0.52750  0.96230  Biso   1.000  O
  O60      1.0000 0.34740  0.02750  0.53770  Biso   1.000  O
  O61      1.0000 0.60840  0.47910  0.07300  Biso   1.000  O
  O62      1.0000 0.39160  0.97910  0.42700  Biso   1.000  O
  O63      1.0000 0.39160  0.52090  0.92700  Biso   1.000  O
  O64      1.0000 0.60840  0.02090  0.57300  Biso   1.000  O
