data_image0
_cell_length_a       10.7145
_cell_length_b       19.6928
_cell_length_c       23.5622
_cell_angle_alpha    90
_cell_angle_beta     99.399
_cell_angle_gamma    90

_symmetry_space_group_name_H-M    "P 1"
_symmetry_int_tables_number       1

loop_
  _symmetry_equiv_pos_as_xyz
  'x, y, z'

loop_
  _atom_site_label
  _atom_site_occupancy
  _atom_site_fract_x
  _atom_site_fract_y
  _atom_site_fract_z
  _atom_site_thermal_displace_type
  _atom_site_B_iso_or_equiv
  _atom_site_type_symbol
  C1       1.0000 0.73030  0.57660  0.55117  Biso   1.000  C
  C2       1.0000 0.26970  0.07660  0.94883  Biso   1.000  C
  C3       1.0000 0.26970  0.42340  0.44883  Biso   1.000  C
  C4       1.0000 0.73030  0.92340  0.05117  Biso   1.000  C
  N1       1.0000 0.97780  0.37869  0.08133  Biso   1.000  N
  N2       1.0000 0.02220  0.87869  0.41867  Biso   1.000  N
  N3       1.0000 0.02220  0.62131  0.91867  Biso   1.000  N
  N4       1.0000 0.97780  0.12131  0.58133  Biso   1.000  N
  O1       1.0000 0.84730  0.57992  0.56966  Biso   1.000  O
  O2       1.0000 0.15270  0.07992  0.93034  Biso   1.000  O
  O3       1.0000 0.15270  0.42008  0.43034  Biso   1.000  O
  O4       1.0000 0.84730  0.92008  0.06966  Biso   1.000  O
  Sm1      1.0000 0.12697  0.54205  0.45485  Biso   1.000  Sm
  Sm2      1.0000 0.87303  0.04205  0.04515  Biso   1.000  Sm
  Sm3      1.0000 0.87303  0.45795  0.54515  Biso   1.000  Sm
  Sm4      1.0000 0.12697  0.95795  0.95485  Biso   1.000  Sm
  Cu1      1.0000 0.99116  0.36668  0.17337  Biso   1.000  Cu
  Cu2      1.0000 0.00884  0.86668  0.32663  Biso   1.000  Cu
  Cu3      1.0000 0.00884  0.63332  0.82663  Biso   1.000  Cu
  Cu4      1.0000 0.99116  0.13332  0.67337  Biso   1.000  Cu
  C5       1.0000 0.64490  0.63270  0.56334  Biso   1.000  C
  C6       1.0000 0.35510  0.13270  0.93666  Biso   1.000  C
  C7       1.0000 0.35510  0.36730  0.43666  Biso   1.000  C
  C8       1.0000 0.64490  0.86730  0.06334  Biso   1.000  C
  N5       1.0000 0.81960  0.33053  0.14399  Biso   1.000  N
  N6       1.0000 0.18040  0.83053  0.35601  Biso   1.000  N
  N7       1.0000 0.18040  0.66947  0.85601  Biso   1.000  N
  N8       1.0000 0.81960  0.16947  0.64399  Biso   1.000  N
  O5       1.0000 0.68310  0.52575  0.52276  Biso   1.000  O
  O6       1.0000 0.31690  0.02575  0.97724  Biso   1.000  O
  O7       1.0000 0.31690  0.47425  0.47724  Biso   1.000  O
  O8       1.0000 0.68310  0.97425  0.02276  Biso   1.000  O
  C9       1.0000 0.51630  0.62855  0.54201  Biso   1.000  C
  C10      1.0000 0.48370  0.12855  0.95799  Biso   1.000  C
  C11      1.0000 0.48370  0.37145  0.45799  Biso   1.000  C
  C12      1.0000 0.51630  0.87145  0.04201  Biso   1.000  C
  H1       1.0000 0.48460  0.59150  0.51970  Biso   1.000  H
  H2       1.0000 0.51540  0.09150  0.98030  Biso   1.000  H
  H3       1.0000 0.51540  0.40850  0.48030  Biso   1.000  H
  H4       1.0000 0.48460  0.90850  0.01970  Biso   1.000  H
  N9       1.0000 0.91770  0.34189  0.25241  Biso   1.000  N
  N10      1.0000 0.08230  0.84189  0.24759  Biso   1.000  N
  N11      1.0000 0.08230  0.65811  0.74759  Biso   1.000  N
  N12      1.0000 0.91770  0.15811  0.75241  Biso   1.000  N
  O9       1.0000 0.23010  0.72552  0.53226  Biso   1.000  O
  O10      1.0000 0.76990  0.22552  0.96774  Biso   1.000  O
  O11      1.0000 0.76990  0.27448  0.46774  Biso   1.000  O
  O12      1.0000 0.23010  0.77448  0.03226  Biso   1.000  O
  C13      1.0000 0.43500  0.67945  0.55382  Biso   1.000  C
  C14      1.0000 0.56500  0.17945  0.94618  Biso   1.000  C
  C15      1.0000 0.56500  0.32055  0.44618  Biso   1.000  C
  C16      1.0000 0.43500  0.82055  0.05382  Biso   1.000  C
  N13      1.0000 0.96430  0.47730  0.17836  Biso   1.000  N
  N14      1.0000 0.03570  0.97730  0.32164  Biso   1.000  N
  N15      1.0000 0.03570  0.52270  0.82164  Biso   1.000  N
  N16      1.0000 0.96430  0.02270  0.67836  Biso   1.000  N
  O13      1.0000 0.25540  0.61747  0.51255  Biso   1.000  O
  O14      1.0000 0.74460  0.11747  0.98745  Biso   1.000  O
  O15      1.0000 0.74460  0.38253  0.48745  Biso   1.000  O
  O16      1.0000 0.25540  0.88253  0.01255  Biso   1.000  O
  C17      1.0000 0.48260  0.73450  0.58751  Biso   1.000  C
  C18      1.0000 0.51740  0.23450  0.91249  Biso   1.000  C
  C19      1.0000 0.51740  0.26550  0.41249  Biso   1.000  C
  C20      1.0000 0.48260  0.76550  0.08751  Biso   1.000  C
  H5       1.0000 0.42820  0.76880  0.59520  Biso   1.000  H
  H6       1.0000 0.57180  0.26880  0.90480  Biso   1.000  H
  H7       1.0000 0.57180  0.23120  0.40480  Biso   1.000  H
  H8       1.0000 0.42820  0.73120  0.09520  Biso   1.000  H
  N17      1.0000 0.16240  0.39964  0.20690  Biso   1.000  N
  N18      1.0000 0.83760  0.89964  0.29310  Biso   1.000  N
  N19      1.0000 0.83760  0.60036  0.79310  Biso   1.000  N
  N20      1.0000 0.16240  0.10036  0.70690  Biso   1.000  N
  O17      1.0000 0.18060  0.63819  0.39177  Biso   1.000  O
  O18      1.0000 0.81940  0.13819  0.10823  Biso   1.000  O
  O19      1.0000 0.81940  0.36181  0.60823  Biso   1.000  O
  O20      1.0000 0.18060  0.86181  0.89177  Biso   1.000  O
  C21      1.0000 0.60970  0.73870  0.60953  Biso   1.000  C
  C22      1.0000 0.39030  0.23870  0.89047  Biso   1.000  C
  C23      1.0000 0.39030  0.26130  0.39047  Biso   1.000  C
  C24      1.0000 0.60970  0.76130  0.10953  Biso   1.000  C
  H9       1.0000 0.64100  0.77540  0.63230  Biso   1.000  H
  H10      1.0000 0.35900  0.27540  0.86770  Biso   1.000  H
  H11      1.0000 0.35900  0.22460  0.36770  Biso   1.000  H
  H12      1.0000 0.64100  0.72460  0.13230  Biso   1.000  H
  N21      1.0000 0.09860  0.27329  0.18609  Biso   1.000  N
  N22      1.0000 0.90140  0.77329  0.31391  Biso   1.000  N
  N23      1.0000 0.90140  0.72671  0.81391  Biso   1.000  N
  N24      1.0000 0.09860  0.22671  0.68609  Biso   1.000  N
  O21      1.0000 0.27560  0.63040  0.31781  Biso   1.000  O
  O22      1.0000 0.72440  0.13040  0.18219  Biso   1.000  O
  O23      1.0000 0.72440  0.36960  0.68219  Biso   1.000  O
  O24      1.0000 0.27560  0.86960  0.81781  Biso   1.000  O
  C25      1.0000 0.69090  0.68740  0.59740  Biso   1.000  C
  C26      1.0000 0.30910  0.18740  0.90260  Biso   1.000  C
  C27      1.0000 0.30910  0.31260  0.40260  Biso   1.000  C
  C28      1.0000 0.69090  0.81260  0.09740  Biso   1.000  C
  H13      1.0000 0.77670  0.68990  0.61230  Biso   1.000  H
  H14      1.0000 0.22330  0.18990  0.88770  Biso   1.000  H
  H15      1.0000 0.22330  0.31010  0.38770  Biso   1.000  H
  H16      1.0000 0.77670  0.81010  0.11230  Biso   1.000  H
  N25      1.0000 0.23390  0.60380  0.35786  Biso   1.000  N
  N26      1.0000 0.76610  0.10380  0.14214  Biso   1.000  N
  N27      1.0000 0.76610  0.39620  0.64214  Biso   1.000  N
  N28      1.0000 0.23390  0.89620  0.85786  Biso   1.000  N
  O25      1.0000 0.24160  0.54178  0.36734  Biso   1.000  O
  O26      1.0000 0.75840  0.04178  0.13266  Biso   1.000  O
  O27      1.0000 0.75840  0.45822  0.63266  Biso   1.000  O
  O28      1.0000 0.24160  0.95822  0.86734  Biso   1.000  O
  C29      1.0000 0.29700  0.67350  0.53082  Biso   1.000  C
  C30      1.0000 0.70300  0.17350  0.96918  Biso   1.000  C
  C31      1.0000 0.70300  0.32650  0.46918  Biso   1.000  C
  C32      1.0000 0.29700  0.82650  0.03082  Biso   1.000  C
  O29      1.0000 0.97020  0.51844  0.36971  Biso   1.000  O
  O30      1.0000 0.02980  0.01844  0.13029  Biso   1.000  O
  O31      1.0000 0.02980  0.48156  0.63029  Biso   1.000  O
  O32      1.0000 0.97020  0.98156  0.86971  Biso   1.000  O
  C33      1.0000 0.88400  0.49920  0.39537  Biso   1.000  C
  C34      1.0000 0.11600  0.99920  0.10463  Biso   1.000  C
  C35      1.0000 0.11600  0.50080  0.60463  Biso   1.000  C
  C36      1.0000 0.88400  0.00080  0.89537  Biso   1.000  C
  O33      1.0000 0.90410  0.49198  0.45011  Biso   1.000  O
  O34      1.0000 0.09590  0.99198  0.04989  Biso   1.000  O
  O35      1.0000 0.09590  0.50802  0.54989  Biso   1.000  O
  O36      1.0000 0.90410  0.00802  0.95011  Biso   1.000  O
  C37      1.0000 0.75620  0.48676  0.36141  Biso   1.000  C
  C38      1.0000 0.24380  0.98676  0.13859  Biso   1.000  C
  C39      1.0000 0.24380  0.51324  0.63859  Biso   1.000  C
  C40      1.0000 0.75620  0.01324  0.86141  Biso   1.000  C
  O37      1.0000 0.00040  0.22986  0.99446  Biso   1.000  O
  O38      1.0000 0.99960  0.72986  0.50554  Biso   1.000  O
  O39      1.0000 0.99960  0.77014  0.00554  Biso   1.000  O
  O40      1.0000 0.00040  0.27014  0.49446  Biso   1.000  O
  C41      1.0000 0.64750  0.49210  0.38534  Biso   1.000  C
  C42      1.0000 0.35250  0.99210  0.11466  Biso   1.000  C
  C43      1.0000 0.35250  0.50790  0.61466  Biso   1.000  C
  C44      1.0000 0.64750  0.00790  0.88534  Biso   1.000  C
  H17      1.0000 0.65320  0.50250  0.42420  Biso   1.000  H
  H18      1.0000 0.34680  0.00250  0.07580  Biso   1.000  H
  H19      1.0000 0.34680  0.49750  0.57580  Biso   1.000  H
  H20      1.0000 0.65320  0.99750  0.92420  Biso   1.000  H
  O41      1.0000 0.03090  0.13354  0.04400  Biso   1.000  O
  O42      1.0000 0.96910  0.63354  0.45600  Biso   1.000  O
  O43      1.0000 0.96910  0.86646  0.95600  Biso   1.000  O
  O44      1.0000 0.03090  0.36646  0.54400  Biso   1.000  O
  C45      1.0000 0.52930  0.48210  0.35177  Biso   1.000  C
  C46      1.0000 0.47070  0.98210  0.14823  Biso   1.000  C
  C47      1.0000 0.47070  0.51790  0.64823  Biso   1.000  C
  C48      1.0000 0.52930  0.01790  0.85177  Biso   1.000  C
  H21      1.0000 0.45600  0.48770  0.36770  Biso   1.000  H
  H22      1.0000 0.54400  0.98770  0.13230  Biso   1.000  H
  H23      1.0000 0.54400  0.51230  0.63230  Biso   1.000  H
  H24      1.0000 0.45600  0.01230  0.86770  Biso   1.000  H
  C49      1.0000 0.52180  0.46370  0.29479  Biso   1.000  C
  C50      1.0000 0.47820  0.96370  0.20521  Biso   1.000  C
  C51      1.0000 0.47820  0.53630  0.70521  Biso   1.000  C
  C52      1.0000 0.52180  0.03630  0.79479  Biso   1.000  C
  C53      1.0000 0.63010  0.45890  0.27027  Biso   1.000  C
  C54      1.0000 0.36990  0.95890  0.22973  Biso   1.000  C
  C55      1.0000 0.36990  0.54110  0.72973  Biso   1.000  C
  C56      1.0000 0.63010  0.04110  0.77027  Biso   1.000  C
  H25      1.0000 0.62470  0.44650  0.23190  Biso   1.000  H
  H26      1.0000 0.37530  0.94650  0.26810  Biso   1.000  H
  H27      1.0000 0.37530  0.55350  0.76810  Biso   1.000  H
  H28      1.0000 0.62470  0.05350  0.73190  Biso   1.000  H
  C57      1.0000 0.74680  0.47260  0.30322  Biso   1.000  C
  C58      1.0000 0.25320  0.97260  0.19678  Biso   1.000  C
  C59      1.0000 0.25320  0.52740  0.69678  Biso   1.000  C
  C60      1.0000 0.74680  0.02740  0.80322  Biso   1.000  C
  H29      1.0000 0.81930  0.47230  0.28620  Biso   1.000  H
  H30      1.0000 0.18070  0.97230  0.21380  Biso   1.000  H
  H31      1.0000 0.18070  0.52770  0.71380  Biso   1.000  H
  H32      1.0000 0.81930  0.02770  0.78620  Biso   1.000  H
  C61      1.0000 0.05710  0.20960  0.17853  Biso   1.000  C
  C62      1.0000 0.94290  0.70960  0.32147  Biso   1.000  C
  C63      1.0000 0.94290  0.79040  0.82147  Biso   1.000  C
  C64      1.0000 0.05710  0.29040  0.67853  Biso   1.000  C
  H33      1.0000 0.97510  0.20270  0.15930  Biso   1.000  H
  H34      1.0000 0.02490  0.70270  0.34070  Biso   1.000  H
  H35      1.0000 0.02490  0.79730  0.84070  Biso   1.000  H
  H36      1.0000 0.97510  0.29730  0.65930  Biso   1.000  H
  C65      1.0000 0.12780  0.15420  0.19740  Biso   1.000  C
  C66      1.0000 0.87220  0.65420  0.30260  Biso   1.000  C
  C67      1.0000 0.87220  0.84580  0.80260  Biso   1.000  C
  C68      1.0000 0.12780  0.34580  0.69740  Biso   1.000  C
  H37      1.0000 0.09410  0.11080  0.19150  Biso   1.000  H
  H38      1.0000 0.90590  0.61080  0.30850  Biso   1.000  H
  H39      1.0000 0.90590  0.88920  0.80850  Biso   1.000  H
  H40      1.0000 0.09410  0.38920  0.69150  Biso   1.000  H
  C69      1.0000 0.24990  0.16340  0.22530  Biso   1.000  C
  C70      1.0000 0.75010  0.66340  0.27470  Biso   1.000  C
  C71      1.0000 0.75010  0.83660  0.77470  Biso   1.000  C
  C72      1.0000 0.24990  0.33660  0.72530  Biso   1.000  C
  H41      1.0000 0.30060  0.12640  0.23820  Biso   1.000  H
  H42      1.0000 0.69940  0.62640  0.26180  Biso   1.000  H
  H43      1.0000 0.69940  0.87360  0.76180  Biso   1.000  H
  H44      1.0000 0.30060  0.37360  0.73820  Biso   1.000  H
  C73      1.0000 0.29500  0.22860  0.23354  Biso   1.000  C
  C74      1.0000 0.70500  0.72860  0.26646  Biso   1.000  C
  C75      1.0000 0.70500  0.77140  0.76646  Biso   1.000  C
  C76      1.0000 0.29500  0.27140  0.73354  Biso   1.000  C
  H45      1.0000 0.37700  0.23640  0.25240  Biso   1.000  H
  H46      1.0000 0.62300  0.73640  0.24760  Biso   1.000  H
  H47      1.0000 0.62300  0.76360  0.74760  Biso   1.000  H
  H48      1.0000 0.37700  0.26360  0.75240  Biso   1.000  H
  C77      1.0000 0.21870  0.28200  0.21384  Biso   1.000  C
  C78      1.0000 0.78130  0.78200  0.28616  Biso   1.000  C
  C79      1.0000 0.78130  0.71800  0.78616  Biso   1.000  C
  C80      1.0000 0.21870  0.21800  0.71384  Biso   1.000  C
  C81      1.0000 0.25490  0.35430  0.22346  Biso   1.000  C
  C82      1.0000 0.74510  0.85430  0.27654  Biso   1.000  C
  C83      1.0000 0.74510  0.64570  0.77654  Biso   1.000  C
  C84      1.0000 0.25490  0.14570  0.72346  Biso   1.000  C
  C85      1.0000 0.37340  0.37530  0.25015  Biso   1.000  C
  C86      1.0000 0.62660  0.87530  0.24985  Biso   1.000  C
  C87      1.0000 0.62660  0.62470  0.74985  Biso   1.000  C
  C88      1.0000 0.37340  0.12470  0.75015  Biso   1.000  C
  H49      1.0000 0.43770  0.34380  0.26040  Biso   1.000  H
  H50      1.0000 0.56230  0.84380  0.23960  Biso   1.000  H
  H51      1.0000 0.56230  0.65620  0.73960  Biso   1.000  H
  H52      1.0000 0.43770  0.15620  0.76040  Biso   1.000  H
  C89      1.0000 0.39550  0.44350  0.26145  Biso   1.000  C
  C90      1.0000 0.60450  0.94350  0.23855  Biso   1.000  C
  C91      1.0000 0.60450  0.55650  0.73855  Biso   1.000  C
  C92      1.0000 0.39550  0.05650  0.76145  Biso   1.000  C
  C93      1.0000 0.30000  0.48950  0.24447  Biso   1.000  C
  C94      1.0000 0.70000  0.98950  0.25553  Biso   1.000  C
  C95      1.0000 0.70000  0.51050  0.75553  Biso   1.000  C
  C96      1.0000 0.30000  0.01050  0.74447  Biso   1.000  C
  H53      1.0000 0.31360  0.53560  0.25160  Biso   1.000  H
  H54      1.0000 0.68640  0.03560  0.24840  Biso   1.000  H
  H55      1.0000 0.68640  0.46440  0.74840  Biso   1.000  H
  H56      1.0000 0.31360  0.96440  0.75160  Biso   1.000  H
  C97      1.0000 0.18330  0.46670  0.21663  Biso   1.000  C
  C98      1.0000 0.81670  0.96670  0.28337  Biso   1.000  C
  C99      1.0000 0.81670  0.53330  0.78337  Biso   1.000  C
  C100     1.0000 0.18330  0.03330  0.71663  Biso   1.000  C
  C101     1.0000 0.07330  0.51050  0.19705  Biso   1.000  C
  C102     1.0000 0.92670  0.01050  0.30295  Biso   1.000  C
  C103     1.0000 0.92670  0.48950  0.80295  Biso   1.000  C
  C104     1.0000 0.07330  0.98950  0.69705  Biso   1.000  C
  C105     1.0000 0.07890  0.58030  0.19679  Biso   1.000  C
  C106     1.0000 0.92110  0.08030  0.30321  Biso   1.000  C
  C107     1.0000 0.92110  0.41970  0.80321  Biso   1.000  C
  C108     1.0000 0.07890  0.91970  0.69679  Biso   1.000  C
  H57      1.0000 0.15450  0.60270  0.21000  Biso   1.000  H
  H58      1.0000 0.84550  0.10270  0.29000  Biso   1.000  H
  H59      1.0000 0.84550  0.39730  0.79000  Biso   1.000  H
  H60      1.0000 0.15450  0.89730  0.71000  Biso   1.000  H
  C109     1.0000 0.97100  0.61650  0.17670  Biso   1.000  C
  C110     1.0000 0.02900  0.11650  0.32330  Biso   1.000  C
  C111     1.0000 0.02900  0.38350  0.82330  Biso   1.000  C
  C112     1.0000 0.97100  0.88350  0.67670  Biso   1.000  C
  H61      1.0000 0.97360  0.66370  0.17590  Biso   1.000  H
  H62      1.0000 0.02640  0.16370  0.32410  Biso   1.000  H
  H63      1.0000 0.02640  0.33630  0.82410  Biso   1.000  H
  H64      1.0000 0.97360  0.83630  0.67590  Biso   1.000  H
  C113     1.0000 0.86070  0.58360  0.15790  Biso   1.000  C
  C114     1.0000 0.13930  0.08360  0.34210  Biso   1.000  C
  C115     1.0000 0.13930  0.41640  0.84210  Biso   1.000  C
  C116     1.0000 0.86070  0.91640  0.65790  Biso   1.000  C
  H65      1.0000 0.78700  0.60750  0.14450  Biso   1.000  H
  H66      1.0000 0.21300  0.10750  0.35550  Biso   1.000  H
  H67      1.0000 0.21300  0.39250  0.85550  Biso   1.000  H
  H68      1.0000 0.78700  0.89250  0.64450  Biso   1.000  H
  C117     1.0000 0.86130  0.51340  0.15930  Biso   1.000  C
  C118     1.0000 0.13870  0.01340  0.34070  Biso   1.000  C
  C119     1.0000 0.13870  0.48660  0.84070  Biso   1.000  C
  C120     1.0000 0.86130  0.98660  0.65930  Biso   1.000  C
  H69      1.0000 0.78620  0.49050  0.14640  Biso   1.000  H
  H70      1.0000 0.21380  0.99050  0.35360  Biso   1.000  H
  H71      1.0000 0.21380  0.50950  0.85360  Biso   1.000  H
  H72      1.0000 0.78620  0.00950  0.64640  Biso   1.000  H
  C121     1.0000 0.97540  0.34830  0.30705  Biso   1.000  C
  C122     1.0000 0.02460  0.84830  0.19295  Biso   1.000  C
  C123     1.0000 0.02460  0.65170  0.69295  Biso   1.000  C
  C124     1.0000 0.97540  0.15170  0.80705  Biso   1.000  C
  H73      1.0000 0.04650  0.37600  0.31490  Biso   1.000  H
  H74      1.0000 0.95350  0.87600  0.18510  Biso   1.000  H
  H75      1.0000 0.95350  0.62400  0.68510  Biso   1.000  H
  H76      1.0000 0.04650  0.12400  0.81490  Biso   1.000  H
  C125     1.0000 0.93350  0.31570  0.35184  Biso   1.000  C
  C126     1.0000 0.06650  0.81570  0.14816  Biso   1.000  C
  C127     1.0000 0.06650  0.68430  0.64816  Biso   1.000  C
  C128     1.0000 0.93350  0.18430  0.85184  Biso   1.000  C
  H77      1.0000 0.97450  0.32170  0.38940  Biso   1.000  H
  H78      1.0000 0.02550  0.82170  0.11060  Biso   1.000  H
  H79      1.0000 0.02550  0.67830  0.61060  Biso   1.000  H
  H80      1.0000 0.97450  0.17830  0.88940  Biso   1.000  H
  C129     1.0000 0.83040  0.27400  0.34011  Biso   1.000  C
  C130     1.0000 0.16960  0.77400  0.15989  Biso   1.000  C
  C131     1.0000 0.16960  0.72600  0.65989  Biso   1.000  C
  C132     1.0000 0.83040  0.22600  0.84011  Biso   1.000  C
  H81      1.0000 0.80210  0.25020  0.36960  Biso   1.000  H
  H82      1.0000 0.19790  0.75020  0.13040  Biso   1.000  H
  H83      1.0000 0.19790  0.74980  0.63040  Biso   1.000  H
  H84      1.0000 0.80210  0.24980  0.86960  Biso   1.000  H
  C133     1.0000 0.76830  0.26760  0.28392  Biso   1.000  C
  C134     1.0000 0.23170  0.76760  0.21608  Biso   1.000  C
  C135     1.0000 0.23170  0.73240  0.71608  Biso   1.000  C
  C136     1.0000 0.76830  0.23240  0.78392  Biso   1.000  C
  H85      1.0000 0.69740  0.23990  0.27520  Biso   1.000  H
  H86      1.0000 0.30260  0.73990  0.22480  Biso   1.000  H
  H87      1.0000 0.30260  0.76010  0.72480  Biso   1.000  H
  H88      1.0000 0.69740  0.26010  0.77520  Biso   1.000  H
  C137     1.0000 0.81360  0.30300  0.24164  Biso   1.000  C
  C138     1.0000 0.18640  0.80300  0.25836  Biso   1.000  C
  C139     1.0000 0.18640  0.69700  0.75836  Biso   1.000  C
  C140     1.0000 0.81360  0.19700  0.74164  Biso   1.000  C
  C141     1.0000 0.75170  0.30170  0.18027  Biso   1.000  C
  C142     1.0000 0.24830  0.80170  0.31973  Biso   1.000  C
  C143     1.0000 0.24830  0.69830  0.81973  Biso   1.000  C
  C144     1.0000 0.75170  0.19830  0.68027  Biso   1.000  C
  C145     1.0000 0.63330  0.27540  0.16070  Biso   1.000  C
  C146     1.0000 0.36670  0.77540  0.33930  Biso   1.000  C
  C147     1.0000 0.36670  0.72460  0.83930  Biso   1.000  C
  C148     1.0000 0.63330  0.22460  0.66070  Biso   1.000  C
  H89      1.0000 0.58770  0.25500  0.18650  Biso   1.000  H
  H90      1.0000 0.41230  0.75500  0.31350  Biso   1.000  H
  H91      1.0000 0.41230  0.74500  0.81350  Biso   1.000  H
  H92      1.0000 0.58770  0.24500  0.68650  Biso   1.000  H
  C149     1.0000 0.58140  0.27920  0.10266  Biso   1.000  C
  C150     1.0000 0.41860  0.77920  0.39734  Biso   1.000  C
  C151     1.0000 0.41860  0.72080  0.89734  Biso   1.000  C
  C152     1.0000 0.58140  0.22080  0.60266  Biso   1.000  C
  C153     1.0000 0.65460  0.30970  0.06556  Biso   1.000  C
  C154     1.0000 0.34540  0.80970  0.43444  Biso   1.000  C
  C155     1.0000 0.34540  0.69030  0.93444  Biso   1.000  C
  C156     1.0000 0.65460  0.19030  0.56556  Biso   1.000  C
  H93      1.0000 0.62310  0.31360  0.02650  Biso   1.000  H
  H94      1.0000 0.37690  0.81360  0.47350  Biso   1.000  H
  H95      1.0000 0.37690  0.68640  0.97350  Biso   1.000  H
  H96      1.0000 0.62310  0.18640  0.52650  Biso   1.000  H
  C157     1.0000 0.77380  0.33410  0.08722  Biso   1.000  C
  C158     1.0000 0.22620  0.83410  0.41278  Biso   1.000  C
  C159     1.0000 0.22620  0.66590  0.91278  Biso   1.000  C
  C160     1.0000 0.77380  0.16590  0.58722  Biso   1.000  C
  C161     1.0000 0.86180  0.36470  0.05194  Biso   1.000  C
  C162     1.0000 0.13820  0.86470  0.44806  Biso   1.000  C
  C163     1.0000 0.13820  0.63530  0.94806  Biso   1.000  C
  C164     1.0000 0.86180  0.13530  0.55194  Biso   1.000  C
  C165     1.0000 0.82990  0.37760  0.99407  Biso   1.000  C
  C166     1.0000 0.17010  0.87760  0.50593  Biso   1.000  C
  C167     1.0000 0.17010  0.62240  0.00593  Biso   1.000  C
  C168     1.0000 0.82990  0.12240  0.49407  Biso   1.000  C
  H97      1.0000 0.74900  0.36820  0.97470  Biso   1.000  H
  H98      1.0000 0.25100  0.86820  0.52530  Biso   1.000  H
  H99      1.0000 0.25100  0.63180  0.02530  Biso   1.000  H
  H100     1.0000 0.74900  0.13180  0.47470  Biso   1.000  H
  C169     1.0000 0.92070  0.40510  0.96540  Biso   1.000  C
  C170     1.0000 0.07930  0.90510  0.53460  Biso   1.000  C
  C171     1.0000 0.07930  0.59490  0.03460  Biso   1.000  C
  C172     1.0000 0.92070  0.09490  0.46540  Biso   1.000  C
  H101     1.0000 0.90120  0.41430  0.92620  Biso   1.000  H
  H102     1.0000 0.09880  0.91430  0.57380  Biso   1.000  H
  H103     1.0000 0.09880  0.58570  0.07380  Biso   1.000  H
  H104     1.0000 0.90120  0.08570  0.42620  Biso   1.000  H
  C173     1.0000 0.03800  0.41860  0.99420  Biso   1.000  C
  C174     1.0000 0.96200  0.91860  0.50580  Biso   1.000  C
  C175     1.0000 0.96200  0.58140  0.00580  Biso   1.000  C
  C176     1.0000 0.03800  0.08140  0.49420  Biso   1.000  C
  H105     1.0000 0.09980  0.43660  0.97510  Biso   1.000  H
  H106     1.0000 0.90020  0.93660  0.52490  Biso   1.000  H
  H107     1.0000 0.90020  0.56340  0.02490  Biso   1.000  H
  H108     1.0000 0.09980  0.06340  0.47510  Biso   1.000  H
  C177     1.0000 0.06430  0.40530  0.05250  Biso   1.000  C
  C178     1.0000 0.93570  0.90530  0.44750  Biso   1.000  C
  C179     1.0000 0.93570  0.59470  0.94750  Biso   1.000  C
  C180     1.0000 0.06430  0.09470  0.55250  Biso   1.000  C
  H109     1.0000 0.14460  0.41510  0.07230  Biso   1.000  H
  H110     1.0000 0.85540  0.91510  0.42770  Biso   1.000  H
  H111     1.0000 0.85540  0.58490  0.92770  Biso   1.000  H
  H112     1.0000 0.14460  0.08490  0.57230  Biso   1.000  H
  C181     1.0000 0.45210  0.25290  0.08111  Biso   1.000  C
  C182     1.0000 0.54790  0.75290  0.41889  Biso   1.000  C
  C183     1.0000 0.54790  0.74710  0.91889  Biso   1.000  C
  C184     1.0000 0.45210  0.24710  0.58111  Biso   1.000  C
  C185     1.0000 0.37000  0.29050  0.04106  Biso   1.000  C
  C186     1.0000 0.63000  0.79050  0.45894  Biso   1.000  C
  C187     1.0000 0.63000  0.70950  0.95894  Biso   1.000  C
  C188     1.0000 0.37000  0.20950  0.54106  Biso   1.000  C
  H113     1.0000 0.39780  0.33050  0.02630  Biso   1.000  H
  H114     1.0000 0.60220  0.83050  0.47370  Biso   1.000  H
  H115     1.0000 0.60220  0.66950  0.97370  Biso   1.000  H
  H116     1.0000 0.39780  0.16950  0.52630  Biso   1.000  H
  C189     1.0000 0.24740  0.26850  0.02325  Biso   1.000  C
  C190     1.0000 0.75260  0.76850  0.47675  Biso   1.000  C
  C191     1.0000 0.75260  0.73150  0.97675  Biso   1.000  C
  C192     1.0000 0.24740  0.23150  0.52325  Biso   1.000  C
  H117     1.0000 0.19310  0.29420  0.99680  Biso   1.000  H
  H118     1.0000 0.80690  0.79420  0.50320  Biso   1.000  H
  H119     1.0000 0.80690  0.70580  0.00320  Biso   1.000  H
  H120     1.0000 0.19310  0.20580  0.49680  Biso   1.000  H
  C193     1.0000 0.20450  0.20880  0.04418  Biso   1.000  C
  C194     1.0000 0.79550  0.70880  0.45582  Biso   1.000  C
  C195     1.0000 0.79550  0.79120  0.95582  Biso   1.000  C
  C196     1.0000 0.20450  0.29120  0.54418  Biso   1.000  C
  C197     1.0000 0.28690  0.17060  0.08207  Biso   1.000  C
  C198     1.0000 0.71310  0.67060  0.41793  Biso   1.000  C
  C199     1.0000 0.71310  0.82940  0.91793  Biso   1.000  C
  C200     1.0000 0.28690  0.32940  0.58207  Biso   1.000  C
  H121     1.0000 0.25990  0.12940  0.09510  Biso   1.000  H
  H122     1.0000 0.74010  0.62940  0.40490  Biso   1.000  H
  H123     1.0000 0.74010  0.87060  0.90490  Biso   1.000  H
  H124     1.0000 0.25990  0.37060  0.59510  Biso   1.000  H
  C201     1.0000 0.41050  0.19250  0.10130  Biso   1.000  C
  C202     1.0000 0.58950  0.69250  0.39870  Biso   1.000  C
  C203     1.0000 0.58950  0.80750  0.89870  Biso   1.000  C
  C204     1.0000 0.41050  0.30750  0.60130  Biso   1.000  C
  H125     1.0000 0.46470  0.16660  0.12760  Biso   1.000  H
  H126     1.0000 0.53530  0.66660  0.37240  Biso   1.000  H
  H127     1.0000 0.53530  0.83340  0.87240  Biso   1.000  H
  H128     1.0000 0.46470  0.33340  0.62760  Biso   1.000  H
  C205     1.0000 0.06920  0.18720  0.02706  Biso   1.000  C
  C206     1.0000 0.93080  0.68720  0.47294  Biso   1.000  C
  C207     1.0000 0.93080  0.81280  0.97294  Biso   1.000  C
  C208     1.0000 0.06920  0.31280  0.52706  Biso   1.000  C
  N29      1.0000 0.44500  0.60770  0.16030  Biso   1.000  N
  N30      1.0000 0.55500  0.10770  0.33970  Biso   1.000  N
  N31      1.0000 0.55500  0.39230  0.83970  Biso   1.000  N
  N32      1.0000 0.44500  0.89230  0.66030  Biso   1.000  N
  O45      1.0000 0.34870  0.59120  0.13210  Biso   1.000  O
  O46      1.0000 0.65130  0.09120  0.36790  Biso   1.000  O
  O47      1.0000 0.65130  0.40880  0.86790  Biso   1.000  O
  O48      1.0000 0.34870  0.90880  0.63210  Biso   1.000  O
  O49      1.0000 0.44360  0.64780  0.20650  Biso   1.000  O
  O50      1.0000 0.55640  0.14780  0.29350  Biso   1.000  O
  O51      1.0000 0.55640  0.35220  0.79350  Biso   1.000  O
  O52      1.0000 0.44360  0.85220  0.70650  Biso   1.000  O
  O53      1.0000 0.54600  0.58580  0.15270  Biso   1.000  O
  O54      1.0000 0.45400  0.08580  0.34730  Biso   1.000  O
  O55      1.0000 0.45400  0.41420  0.84730  Biso   1.000  O
  O56      1.0000 0.54600  0.91420  0.65270  Biso   1.000  O
  O57      1.0000 0.43600  0.46350  0.09630  Biso   1.000  O
  O58      1.0000 0.56400  0.96350  0.40370  Biso   1.000  O
  O59      1.0000 0.56400  0.53650  0.90370  Biso   1.000  O
  O60      1.0000 0.43600  0.03650  0.59630  Biso   1.000  O
  O61      1.0000 0.64130  0.52440  0.03550  Biso   1.000  O
  O62      1.0000 0.35870  0.02440  0.46450  Biso   1.000  O
  O63      1.0000 0.35870  0.47560  0.96450  Biso   1.000  O
  O64      1.0000 0.64130  0.97560  0.53550  Biso   1.000  O
