data_image0
_cell_length_a       11.638
_cell_length_b       19.222
_cell_length_c       19.783
_cell_angle_alpha    90
_cell_angle_beta     91.34
_cell_angle_gamma    90

_symmetry_space_group_name_H-M    "P 1"
_symmetry_int_tables_number       1

loop_
  _symmetry_equiv_pos_as_xyz
  'x, y, z'

loop_
  _atom_site_label
  _atom_site_occupancy
  _atom_site_fract_x
  _atom_site_fract_y
  _atom_site_fract_z
  _atom_site_thermal_displace_type
  _atom_site_B_iso_or_equiv
  _atom_site_type_symbol
  Nd1      1.0000 0.24549  0.87644  0.78377  Biso   1.000  Nd
  Nd2      1.0000 0.75451  0.37644  0.71623  Biso   1.000  Nd
  Nd3      1.0000 0.75451  0.12356  0.21623  Biso   1.000  Nd
  Nd4      1.0000 0.24549  0.62356  0.28377  Biso   1.000  Nd
  Cu1      1.0000 0.26365  0.21998  0.58809  Biso   1.000  Cu
  Cu2      1.0000 0.73635  0.71998  0.91191  Biso   1.000  Cu
  Cu3      1.0000 0.73635  0.78002  0.41191  Biso   1.000  Cu
  Cu4      1.0000 0.26365  0.28002  0.08809  Biso   1.000  Cu
  O1       1.0000 0.11580  0.66000  0.47540  Biso   1.000  O
  O2       1.0000 0.88420  0.16000  0.02460  Biso   1.000  O
  O3       1.0000 0.88420  0.34000  0.52460  Biso   1.000  O
  O4       1.0000 0.11580  0.84000  0.97540  Biso   1.000  O
  O5       1.0000 0.15020  0.68381  0.36775  Biso   1.000  O
  O6       1.0000 0.84980  0.18381  0.13225  Biso   1.000  O
  O7       1.0000 0.84980  0.31619  0.63225  Biso   1.000  O
  O8       1.0000 0.15020  0.81619  0.86775  Biso   1.000  O
  O9       1.0000 0.35280  0.76401  0.77637  Biso   1.000  O
  O10      1.0000 0.64720  0.26401  0.72363  Biso   1.000  O
  O11      1.0000 0.64720  0.23599  0.22363  Biso   1.000  O
  O12      1.0000 0.35280  0.73599  0.27637  Biso   1.000  O
  O13      1.0000 0.23990  0.78988  0.68944  Biso   1.000  O
  O14      1.0000 0.76010  0.28988  0.81056  Biso   1.000  O
  O15      1.0000 0.76010  0.21012  0.31056  Biso   1.000  O
  O16      1.0000 0.23990  0.71012  0.18944  Biso   1.000  O
  O17      1.0000 0.05050  0.86680  0.72390  Biso   1.000  O
  O18      1.0000 0.94950  0.36680  0.77610  Biso   1.000  O
  O19      1.0000 0.94950  0.13320  0.27610  Biso   1.000  O
  O20      1.0000 0.05050  0.63320  0.22390  Biso   1.000  O
  O21      1.0000 0.08250  0.96090  0.81010  Biso   1.000  O
  O22      1.0000 0.91750  0.46090  0.68990  Biso   1.000  O
  O23      1.0000 0.91750  0.03910  0.18990  Biso   1.000  O
  O24      1.0000 0.08250  0.53910  0.31010  Biso   1.000  O
  O25      1.0000 0.26500  0.96980  0.69260  Biso   1.000  O
  O26      1.0000 0.73500  0.46980  0.80740  Biso   1.000  O
  O27      1.0000 0.73500  0.03020  0.30740  Biso   1.000  O
  O28      1.0000 0.26500  0.53020  0.19260  Biso   1.000  O
  O29      1.0000 0.42240  0.91430  0.71620  Biso   1.000  O
  O30      1.0000 0.57760  0.41430  0.78380  Biso   1.000  O
  O31      1.0000 0.57760  0.08570  0.28380  Biso   1.000  O
  O32      1.0000 0.42240  0.58570  0.21620  Biso   1.000  O
  O33      1.0000 0.42640  0.00640  0.65230  Biso   1.000  O
  O34      1.0000 0.57360  0.50640  0.84770  Biso   1.000  O
  O35      1.0000 0.57360  0.99360  0.34770  Biso   1.000  O
  O36      1.0000 0.42640  0.49360  0.15230  Biso   1.000  O
  O37      1.0000 0.33120  0.97990  0.84230  Biso   1.000  O
  O38      1.0000 0.66880  0.47990  0.65770  Biso   1.000  O
  O39      1.0000 0.66880  0.02010  0.15770  Biso   1.000  O
  O40      1.0000 0.33120  0.52010  0.34230  Biso   1.000  O
  O41      1.0000 0.38450  0.87576  0.87790  Biso   1.000  O
  O42      1.0000 0.61550  0.37576  0.62210  Biso   1.000  O
  O43      1.0000 0.61550  0.12424  0.12210  Biso   1.000  O
  O44      1.0000 0.38450  0.62424  0.37790  Biso   1.000  O
  O45      1.0000 0.89140  0.94000  0.74210  Biso   1.000  O
  O46      1.0000 0.10860  0.44000  0.75790  Biso   1.000  O
  O47      1.0000 0.10860  0.06000  0.25790  Biso   1.000  O
  O48      1.0000 0.89140  0.56000  0.24210  Biso   1.000  O
  N1       1.0000 0.43050  0.19460  0.53790  Biso   1.000  N
  N2       1.0000 0.56950  0.69460  0.96210  Biso   1.000  N
  N3       1.0000 0.56950  0.80540  0.46210  Biso   1.000  N
  N4       1.0000 0.43050  0.30540  0.03790  Biso   1.000  N
  N5       1.0000 0.24480  0.12053  0.55960  Biso   1.000  N
  N6       1.0000 0.75520  0.62053  0.94040  Biso   1.000  N
  N7       1.0000 0.75520  0.87947  0.44040  Biso   1.000  N
  N8       1.0000 0.24480  0.37947  0.05960  Biso   1.000  N
  N9       1.0000 0.09520  0.18650  0.63750  Biso   1.000  N
  N10      1.0000 0.90480  0.68650  0.86250  Biso   1.000  N
  N11      1.0000 0.90480  0.81350  0.36250  Biso   1.000  N
  N12      1.0000 0.09520  0.31350  0.13750  Biso   1.000  N
  N13      1.0000 0.20040  0.26540  0.49900  Biso   1.000  N
  N14      1.0000 0.79960  0.76540  0.00100  Biso   1.000  N
  N15      1.0000 0.79960  0.73460  0.50100  Biso   1.000  N
  N16      1.0000 0.20040  0.23460  0.99900  Biso   1.000  N
  N17      1.0000 0.28150  0.31750  0.61050  Biso   1.000  N
  N18      1.0000 0.71850  0.81750  0.88950  Biso   1.000  N
  N19      1.0000 0.71850  0.68250  0.38950  Biso   1.000  N
  N20      1.0000 0.28150  0.18250  0.11050  Biso   1.000  N
  N21      1.0000 0.32730  0.21300  0.68660  Biso   1.000  N
  N22      1.0000 0.67270  0.71300  0.81340  Biso   1.000  N
  N23      1.0000 0.67270  0.78700  0.31340  Biso   1.000  N
  N24      1.0000 0.32730  0.28700  0.18660  Biso   1.000  N
  N25      1.0000 0.37210  0.96480  0.68580  Biso   1.000  N
  N26      1.0000 0.62790  0.46480  0.81420  Biso   1.000  N
  N27      1.0000 0.62790  0.03520  0.31420  Biso   1.000  N
  N28      1.0000 0.37210  0.53520  0.18580  Biso   1.000  N
  N29      1.0000 0.00760  0.92460  0.76500  Biso   1.000  N
  N30      1.0000 0.99240  0.42460  0.73500  Biso   1.000  N
  N31      1.0000 0.99240  0.07540  0.23500  Biso   1.000  N
  N32      1.0000 0.00760  0.57540  0.26500  Biso   1.000  N
  C1       1.0000 0.13920  0.70050  0.42900  Biso   1.000  C
  C2       1.0000 0.86080  0.20050  0.07100  Biso   1.000  C
  C3       1.0000 0.86080  0.29950  0.57100  Biso   1.000  C
  C4       1.0000 0.13920  0.79950  0.92900  Biso   1.000  C
  C5       1.0000 0.15700  0.77590  0.44810  Biso   1.000  C
  C6       1.0000 0.84300  0.27590  0.05190  Biso   1.000  C
  C7       1.0000 0.84300  0.22410  0.55190  Biso   1.000  C
  C8       1.0000 0.15700  0.72410  0.94810  Biso   1.000  C
  C9       1.0000 0.11890  0.79920  0.51010  Biso   1.000  C
  C10      1.0000 0.88110  0.29920  0.98990  Biso   1.000  C
  C11      1.0000 0.88110  0.20080  0.48990  Biso   1.000  C
  C12      1.0000 0.11890  0.70080  0.01010  Biso   1.000  C
  H1       1.0000 0.08210  0.76820  0.53850  Biso   1.000  H
  H2       1.0000 0.91790  0.26820  0.96150  Biso   1.000  H
  H3       1.0000 0.91790  0.23180  0.46150  Biso   1.000  H
  H4       1.0000 0.08210  0.73180  0.03850  Biso   1.000  H
  C13      1.0000 0.13430  0.86720  0.53030  Biso   1.000  C
  C14      1.0000 0.86570  0.36720  0.96970  Biso   1.000  C
  C15      1.0000 0.86570  0.13280  0.46970  Biso   1.000  C
  C16      1.0000 0.13430  0.63280  0.03030  Biso   1.000  C
  H5       1.0000 0.10730  0.88190  0.57180  Biso   1.000  H
  H6       1.0000 0.89270  0.38190  0.92820  Biso   1.000  H
  H7       1.0000 0.89270  0.11810  0.42820  Biso   1.000  H
  H8       1.0000 0.10730  0.61810  0.07180  Biso   1.000  H
  C17      1.0000 0.19090  0.91430  0.48800  Biso   1.000  C
  C18      1.0000 0.80910  0.41430  0.01200  Biso   1.000  C
  C19      1.0000 0.80910  0.08570  0.51200  Biso   1.000  C
  C20      1.0000 0.19090  0.58570  0.98800  Biso   1.000  C
  C21      1.0000 0.23060  0.89030  0.42630  Biso   1.000  C
  C22      1.0000 0.76940  0.39030  0.07370  Biso   1.000  C
  C23      1.0000 0.76940  0.10970  0.57370  Biso   1.000  C
  C24      1.0000 0.23060  0.60970  0.92630  Biso   1.000  C
  H9       1.0000 0.26930  0.92050  0.39810  Biso   1.000  H
  H10      1.0000 0.73070  0.42050  0.10190  Biso   1.000  H
  H11      1.0000 0.73070  0.07950  0.60190  Biso   1.000  H
  H12      1.0000 0.26930  0.57950  0.89810  Biso   1.000  H
  C25      1.0000 0.21320  0.82200  0.40660  Biso   1.000  C
  C26      1.0000 0.78680  0.32200  0.09340  Biso   1.000  C
  C27      1.0000 0.78680  0.17800  0.59340  Biso   1.000  C
  C28      1.0000 0.21320  0.67800  0.90660  Biso   1.000  C
  H13      1.0000 0.23950  0.80700  0.36500  Biso   1.000  H
  H14      1.0000 0.76050  0.30700  0.13500  Biso   1.000  H
  H15      1.0000 0.76050  0.19300  0.63500  Biso   1.000  H
  H16      1.0000 0.23950  0.69300  0.86500  Biso   1.000  H
  C29      1.0000 0.51720  0.23790  0.52540  Biso   1.000  C
  C30      1.0000 0.48280  0.73790  0.97460  Biso   1.000  C
  C31      1.0000 0.48280  0.76210  0.47460  Biso   1.000  C
  C32      1.0000 0.51720  0.26210  0.02540  Biso   1.000  C
  H17      1.0000 0.52830  0.27620  0.55350  Biso   1.000  H
  H18      1.0000 0.47170  0.77620  0.94650  Biso   1.000  H
  H19      1.0000 0.47170  0.72380  0.44650  Biso   1.000  H
  H20      1.0000 0.52830  0.22380  0.05350  Biso   1.000  H
  C33      1.0000 0.59110  0.22840  0.47270  Biso   1.000  C
  C34      1.0000 0.40890  0.72840  0.02730  Biso   1.000  C
  C35      1.0000 0.40890  0.77160  0.52730  Biso   1.000  C
  C36      1.0000 0.59110  0.27160  0.97270  Biso   1.000  C
  H21      1.0000 0.64900  0.26050  0.46450  Biso   1.000  H
  H22      1.0000 0.35100  0.76050  0.03550  Biso   1.000  H
  H23      1.0000 0.35100  0.73950  0.53550  Biso   1.000  H
  H24      1.0000 0.64900  0.23950  0.96450  Biso   1.000  H
  C37      1.0000 0.57730  0.17040  0.43250  Biso   1.000  C
  C38      1.0000 0.42270  0.67040  0.06750  Biso   1.000  C
  C39      1.0000 0.42270  0.82960  0.56750  Biso   1.000  C
  C40      1.0000 0.57730  0.32960  0.93250  Biso   1.000  C
  H25      1.0000 0.62640  0.16250  0.39690  Biso   1.000  H
  H26      1.0000 0.37360  0.66250  0.10310  Biso   1.000  H
  H27      1.0000 0.37360  0.83750  0.60310  Biso   1.000  H
  H28      1.0000 0.62640  0.33750  0.89690  Biso   1.000  H
  C41      1.0000 0.48940  0.12360  0.44540  Biso   1.000  C
  C42      1.0000 0.51060  0.62360  0.05460  Biso   1.000  C
  C43      1.0000 0.51060  0.87640  0.55460  Biso   1.000  C
  C44      1.0000 0.48940  0.37640  0.94540  Biso   1.000  C
  H29      1.0000 0.47920  0.08380  0.41910  Biso   1.000  H
  H30      1.0000 0.52080  0.58380  0.08090  Biso   1.000  H
  H31      1.0000 0.52080  0.91620  0.58090  Biso   1.000  H
  H32      1.0000 0.47920  0.41620  0.91910  Biso   1.000  H
  C45      1.0000 0.41740  0.13780  0.49870  Biso   1.000  C
  C46      1.0000 0.58260  0.63780  0.00130  Biso   1.000  C
  C47      1.0000 0.58260  0.86220  0.50130  Biso   1.000  C
  C48      1.0000 0.41740  0.36220  0.99870  Biso   1.000  C
  C49      1.0000 0.31920  0.09230  0.51660  Biso   1.000  C
  C50      1.0000 0.68080  0.59230  0.98340  Biso   1.000  C
  C51      1.0000 0.68080  0.90770  0.48340  Biso   1.000  C
  C52      1.0000 0.31920  0.40770  0.01660  Biso   1.000  C
  C53      1.0000 0.30460  0.02520  0.49230  Biso   1.000  C
  C54      1.0000 0.69540  0.52520  0.00770  Biso   1.000  C
  C55      1.0000 0.69540  0.97480  0.50770  Biso   1.000  C
  C56      1.0000 0.30460  0.47480  0.99230  Biso   1.000  C
  H33      1.0000 0.35820  0.00600  0.46350  Biso   1.000  H
  H34      1.0000 0.64180  0.50600  0.03650  Biso   1.000  H
  H35      1.0000 0.64180  0.99400  0.53650  Biso   1.000  H
  H36      1.0000 0.35820  0.49400  0.96350  Biso   1.000  H
  C57      1.0000 0.20890  0.98650  0.51110  Biso   1.000  C
  C58      1.0000 0.79110  0.48650  0.98890  Biso   1.000  C
  C59      1.0000 0.79110  0.01350  0.48890  Biso   1.000  C
  C60      1.0000 0.20890  0.51350  0.01110  Biso   1.000  C
  C61      1.0000 0.13220  0.01730  0.55560  Biso   1.000  C
  C62      1.0000 0.86780  0.51730  0.94440  Biso   1.000  C
  C63      1.0000 0.86780  0.98270  0.44440  Biso   1.000  C
  C64      1.0000 0.13220  0.48270  0.05560  Biso   1.000  C
  H37      1.0000 0.06720  0.99330  0.56890  Biso   1.000  H
  H38      1.0000 0.93280  0.49330  0.93110  Biso   1.000  H
  H39      1.0000 0.93280  0.00670  0.43110  Biso   1.000  H
  H40      1.0000 0.06720  0.50670  0.06890  Biso   1.000  H
  C65      1.0000 0.15360  0.08370  0.58000  Biso   1.000  C
  C66      1.0000 0.84640  0.58370  0.92000  Biso   1.000  C
  C67      1.0000 0.84640  0.91630  0.42000  Biso   1.000  C
  C68      1.0000 0.15360  0.41630  0.08000  Biso   1.000  C
  C69      1.0000 0.08270  0.11690  0.63150  Biso   1.000  C
  C70      1.0000 0.91730  0.61690  0.86850  Biso   1.000  C
  C71      1.0000 0.91730  0.88310  0.36850  Biso   1.000  C
  C72      1.0000 0.08270  0.38310  0.13150  Biso   1.000  C
  C73      1.0000 0.01380  0.07930  0.67440  Biso   1.000  C
  C74      1.0000 0.98620  0.57930  0.82560  Biso   1.000  C
  C75      1.0000 0.98620  0.92070  0.32560  Biso   1.000  C
  C76      1.0000 0.01380  0.42070  0.17440  Biso   1.000  C
  H41      1.0000 0.00580  0.03150  0.66900  Biso   1.000  H
  H42      1.0000 0.99420  0.53150  0.83100  Biso   1.000  H
  H43      1.0000 0.99420  0.96850  0.33100  Biso   1.000  H
  H44      1.0000 0.00580  0.46850  0.16900  Biso   1.000  H
  C77      1.0000 0.95670  0.11350  0.72540  Biso   1.000  C
  C78      1.0000 0.04330  0.61350  0.77460  Biso   1.000  C
  C79      1.0000 0.04330  0.88650  0.27460  Biso   1.000  C
  C80      1.0000 0.95670  0.38650  0.22540  Biso   1.000  C
  H45      1.0000 0.91020  0.08910  0.75480  Biso   1.000  H
  H46      1.0000 0.08980  0.58910  0.74520  Biso   1.000  H
  H47      1.0000 0.08980  0.91090  0.24520  Biso   1.000  H
  H48      1.0000 0.91020  0.41090  0.25480  Biso   1.000  H
  C81      1.0000 0.97100  0.18500  0.73140  Biso   1.000  C
  C82      1.0000 0.02900  0.68500  0.76860  Biso   1.000  C
  C83      1.0000 0.02900  0.81500  0.26860  Biso   1.000  C
  C84      1.0000 0.97100  0.31500  0.23140  Biso   1.000  C
  H49      1.0000 0.93450  0.20950  0.76530  Biso   1.000  H
  H50      1.0000 0.06550  0.70950  0.73470  Biso   1.000  H
  H51      1.0000 0.06550  0.79050  0.23470  Biso   1.000  H
  H52      1.0000 0.93450  0.29050  0.26530  Biso   1.000  H
  C85      1.0000 0.03990  0.21900  0.68670  Biso   1.000  C
  C86      1.0000 0.96010  0.71900  0.81330  Biso   1.000  C
  C87      1.0000 0.96010  0.78100  0.31330  Biso   1.000  C
  C88      1.0000 0.03990  0.28100  0.18670  Biso   1.000  C
  H53      1.0000 0.04830  0.26690  0.69080  Biso   1.000  H
  H54      1.0000 0.95170  0.76690  0.80920  Biso   1.000  H
  H55      1.0000 0.95170  0.73310  0.30920  Biso   1.000  H
  H56      1.0000 0.04830  0.23310  0.19080  Biso   1.000  H
  C89      1.0000 0.16060  0.23410  0.44380  Biso   1.000  C
  C90      1.0000 0.83940  0.73410  0.05620  Biso   1.000  C
  C91      1.0000 0.83940  0.76590  0.55620  Biso   1.000  C
  C92      1.0000 0.16060  0.26590  0.94380  Biso   1.000  C
  H57      1.0000 0.15760  0.18580  0.44310  Biso   1.000  H
  H58      1.0000 0.84240  0.68580  0.05690  Biso   1.000  H
  H59      1.0000 0.84240  0.81420  0.55690  Biso   1.000  H
  H60      1.0000 0.15760  0.31420  0.94310  Biso   1.000  H
  C93      1.0000 0.12300  0.27030  0.38680  Biso   1.000  C
  C94      1.0000 0.87700  0.77030  0.11320  Biso   1.000  C
  C95      1.0000 0.87700  0.72970  0.61320  Biso   1.000  C
  C96      1.0000 0.12300  0.22970  0.88680  Biso   1.000  C
  H61      1.0000 0.09390  0.24700  0.34900  Biso   1.000  H
  H62      1.0000 0.90610  0.74700  0.15100  Biso   1.000  H
  H63      1.0000 0.90610  0.75300  0.65100  Biso   1.000  H
  H64      1.0000 0.09390  0.25300  0.84900  Biso   1.000  H
  C97      1.0000 0.13020  0.34280  0.38800  Biso   1.000  C
  C98      1.0000 0.86980  0.84280  0.11200  Biso   1.000  C
  C99      1.0000 0.86980  0.65720  0.61200  Biso   1.000  C
  C100     1.0000 0.13020  0.15720  0.88800  Biso   1.000  C
  H65      1.0000 0.10660  0.36860  0.35040  Biso   1.000  H
  H66      1.0000 0.89340  0.86860  0.14960  Biso   1.000  H
  H67      1.0000 0.89340  0.63140  0.64960  Biso   1.000  H
  H68      1.0000 0.10660  0.13140  0.85040  Biso   1.000  H
  C101     1.0000 0.17200  0.37580  0.44470  Biso   1.000  C
  C102     1.0000 0.82800  0.87580  0.05530  Biso   1.000  C
  C103     1.0000 0.82800  0.62420  0.55530  Biso   1.000  C
  C104     1.0000 0.17200  0.12420  0.94470  Biso   1.000  C
  H69      1.0000 0.17710  0.42400  0.44620  Biso   1.000  H
  H70      1.0000 0.82290  0.92400  0.05380  Biso   1.000  H
  H71      1.0000 0.82290  0.57600  0.55380  Biso   1.000  H
  H72      1.0000 0.17710  0.07600  0.94620  Biso   1.000  H
  C105     1.0000 0.20690  0.33570  0.50020  Biso   1.000  C
  C106     1.0000 0.79310  0.83570  0.99980  Biso   1.000  C
  C107     1.0000 0.79310  0.66430  0.49980  Biso   1.000  C
  C108     1.0000 0.20690  0.16430  0.00020  Biso   1.000  C
  C109     1.0000 0.25080  0.36590  0.56480  Biso   1.000  C
  C110     1.0000 0.74920  0.86590  0.93520  Biso   1.000  C
  C111     1.0000 0.74920  0.63410  0.43520  Biso   1.000  C
  C112     1.0000 0.25080  0.13410  0.06480  Biso   1.000  C
  C113     1.0000 0.25750  0.43560  0.57970  Biso   1.000  C
  C114     1.0000 0.74250  0.93560  0.92030  Biso   1.000  C
  C115     1.0000 0.74250  0.56440  0.42030  Biso   1.000  C
  C116     1.0000 0.25750  0.06440  0.07970  Biso   1.000  C
  H73      1.0000 0.23560  0.46860  0.54750  Biso   1.000  H
  H74      1.0000 0.76440  0.96860  0.95250  Biso   1.000  H
  H75      1.0000 0.76440  0.53140  0.45250  Biso   1.000  H
  H76      1.0000 0.23560  0.03140  0.04750  Biso   1.000  H
  C117     1.0000 0.29770  0.45650  0.64400  Biso   1.000  C
  C118     1.0000 0.70230  0.95650  0.85600  Biso   1.000  C
  C119     1.0000 0.70230  0.54350  0.35600  Biso   1.000  C
  C120     1.0000 0.29770  0.04350  0.14400  Biso   1.000  C
  C121     1.0000 0.33120  0.40510  0.68970  Biso   1.000  C
  C122     1.0000 0.66880  0.90510  0.81030  Biso   1.000  C
  C123     1.0000 0.66880  0.59490  0.31030  Biso   1.000  C
  C124     1.0000 0.33120  0.09490  0.18970  Biso   1.000  C
  H77      1.0000 0.36010  0.41750  0.73220  Biso   1.000  H
  H78      1.0000 0.63990  0.91750  0.76780  Biso   1.000  H
  H79      1.0000 0.63990  0.58250  0.26780  Biso   1.000  H
  H80      1.0000 0.36010  0.08250  0.23220  Biso   1.000  H
  C125     1.0000 0.32170  0.33540  0.67210  Biso   1.000  C
  C126     1.0000 0.67830  0.83540  0.82790  Biso   1.000  C
  C127     1.0000 0.67830  0.66460  0.32790  Biso   1.000  C
  C128     1.0000 0.32170  0.16460  0.17210  Biso   1.000  C
  C129     1.0000 0.34690  0.27500  0.71640  Biso   1.000  C
  C130     1.0000 0.65310  0.77500  0.78360  Biso   1.000  C
  C131     1.0000 0.65310  0.72500  0.28360  Biso   1.000  C
  C132     1.0000 0.34690  0.22500  0.21640  Biso   1.000  C
  C133     1.0000 0.38150  0.27960  0.78370  Biso   1.000  C
  C134     1.0000 0.61850  0.77960  0.71630  Biso   1.000  C
  C135     1.0000 0.61850  0.72040  0.21630  Biso   1.000  C
  C136     1.0000 0.38150  0.22040  0.28370  Biso   1.000  C
  H81      1.0000 0.39750  0.32260  0.80340  Biso   1.000  H
  H82      1.0000 0.60250  0.82260  0.69660  Biso   1.000  H
  H83      1.0000 0.60250  0.67740  0.19660  Biso   1.000  H
  H84      1.0000 0.39750  0.17740  0.30340  Biso   1.000  H
  C137     1.0000 0.39180  0.21920  0.82100  Biso   1.000  C
  C138     1.0000 0.60820  0.71920  0.67900  Biso   1.000  C
  C139     1.0000 0.60820  0.78080  0.17900  Biso   1.000  C
  C140     1.0000 0.39180  0.28080  0.32100  Biso   1.000  C
  H85      1.0000 0.41460  0.22110  0.86630  Biso   1.000  H
  H86      1.0000 0.58540  0.72110  0.63370  Biso   1.000  H
  H87      1.0000 0.58540  0.77890  0.13370  Biso   1.000  H
  H88      1.0000 0.41460  0.27890  0.36630  Biso   1.000  H
  C141     1.0000 0.36820  0.15570  0.79090  Biso   1.000  C
  C142     1.0000 0.63180  0.65570  0.70910  Biso   1.000  C
  C143     1.0000 0.63180  0.84430  0.20910  Biso   1.000  C
  C144     1.0000 0.36820  0.34430  0.29090  Biso   1.000  C
  H89      1.0000 0.37320  0.11470  0.81570  Biso   1.000  H
  H90      1.0000 0.62680  0.61470  0.68430  Biso   1.000  H
  H91      1.0000 0.62680  0.88530  0.18430  Biso   1.000  H
  H92      1.0000 0.37320  0.38530  0.31570  Biso   1.000  H
  C145     1.0000 0.33680  0.15470  0.72270  Biso   1.000  C
  C146     1.0000 0.66320  0.65470  0.77730  Biso   1.000  C
  C147     1.0000 0.66320  0.84530  0.27730  Biso   1.000  C
  C148     1.0000 0.33680  0.34530  0.22270  Biso   1.000  C
  H93      1.0000 0.32200  0.11220  0.70170  Biso   1.000  H
  H94      1.0000 0.67800  0.61220  0.79830  Biso   1.000  H
  H95      1.0000 0.67800  0.88780  0.29830  Biso   1.000  H
  H96      1.0000 0.32200  0.38780  0.20170  Biso   1.000  H
  C149     1.0000 0.30070  0.53120  0.66330  Biso   1.000  C
  C150     1.0000 0.69930  0.03120  0.83670  Biso   1.000  C
  C151     1.0000 0.69930  0.46880  0.33670  Biso   1.000  C
  C152     1.0000 0.30070  0.96880  0.16330  Biso   1.000  C
  C153     1.0000 0.24120  0.58070  0.62460  Biso   1.000  C
  C154     1.0000 0.75880  0.08070  0.87540  Biso   1.000  C
  C155     1.0000 0.75880  0.41930  0.37540  Biso   1.000  C
  C156     1.0000 0.24120  0.91930  0.12460  Biso   1.000  C
  H97      1.0000 0.19990  0.56690  0.58600  Biso   1.000  H
  H98      1.0000 0.80010  0.06690  0.91400  Biso   1.000  H
  H99      1.0000 0.80010  0.43310  0.41400  Biso   1.000  H
  H100     1.0000 0.19990  0.93310  0.08600  Biso   1.000  H
  C157     1.0000 0.24310  0.65070  0.64310  Biso   1.000  C
  C158     1.0000 0.75690  0.15070  0.85690  Biso   1.000  C
  C159     1.0000 0.75690  0.34930  0.35690  Biso   1.000  C
  C160     1.0000 0.24310  0.84930  0.14310  Biso   1.000  C
  H101     1.0000 0.20410  0.68330  0.61650  Biso   1.000  H
  H102     1.0000 0.79590  0.18330  0.88350  Biso   1.000  H
  H103     1.0000 0.79590  0.31670  0.38350  Biso   1.000  H
  H104     1.0000 0.20410  0.81670  0.11650  Biso   1.000  H
  C161     1.0000 0.30290  0.67190  0.70100  Biso   1.000  C
  C162     1.0000 0.69710  0.17190  0.79900  Biso   1.000  C
  C163     1.0000 0.69710  0.32810  0.29900  Biso   1.000  C
  C164     1.0000 0.30290  0.82810  0.20100  Biso   1.000  C
  C165     1.0000 0.36100  0.62250  0.74040  Biso   1.000  C
  C166     1.0000 0.63900  0.12250  0.75960  Biso   1.000  C
  C167     1.0000 0.63900  0.37750  0.25960  Biso   1.000  C
  C168     1.0000 0.36100  0.87750  0.24040  Biso   1.000  C
  H105     1.0000 0.40050  0.63630  0.77950  Biso   1.000  H
  H106     1.0000 0.59950  0.13630  0.72050  Biso   1.000  H
  H107     1.0000 0.59950  0.36370  0.22050  Biso   1.000  H
  H108     1.0000 0.40050  0.86370  0.27950  Biso   1.000  H
  C169     1.0000 0.36050  0.55310  0.72180  Biso   1.000  C
  C170     1.0000 0.63950  0.05310  0.77820  Biso   1.000  C
  C171     1.0000 0.63950  0.44690  0.27820  Biso   1.000  C
  C172     1.0000 0.36050  0.94690  0.22180  Biso   1.000  C
  H109     1.0000 0.40020  0.52070  0.74830  Biso   1.000  H
  H110     1.0000 0.59980  0.02070  0.75170  Biso   1.000  H
  H111     1.0000 0.59980  0.47930  0.25170  Biso   1.000  H
  H112     1.0000 0.40020  0.97930  0.24830  Biso   1.000  H
  C173     1.0000 0.30040  0.74600  0.72340  Biso   1.000  C
  C174     1.0000 0.69960  0.24600  0.77660  Biso   1.000  C
  C175     1.0000 0.69960  0.25400  0.27660  Biso   1.000  C
  C176     1.0000 0.30040  0.75400  0.22340  Biso   1.000  C
  C177     1.0000 0.38240  0.94090  0.88480  Biso   1.000  C
  C178     1.0000 0.61760  0.44090  0.61520  Biso   1.000  C
  C179     1.0000 0.61760  0.05910  0.11520  Biso   1.000  C
  C180     1.0000 0.38240  0.55910  0.38480  Biso   1.000  C
  C181     1.0000 0.44250  0.97230  0.94460  Biso   1.000  C
  C182     1.0000 0.55750  0.47230  0.55540  Biso   1.000  C
  C183     1.0000 0.55750  0.02770  0.05540  Biso   1.000  C
  C184     1.0000 0.44250  0.52770  0.44460  Biso   1.000  C
  C185     1.0000 0.46700  0.93100  0.00030  Biso   1.000  C
  C186     1.0000 0.53300  0.43100  0.49970  Biso   1.000  C
  C187     1.0000 0.53300  0.06900  0.99970  Biso   1.000  C
  C188     1.0000 0.46700  0.56900  0.50030  Biso   1.000  C
  H113     1.0000 0.44400  0.88200  0.00300  Biso   1.000  H
  H114     1.0000 0.55600  0.38200  0.49700  Biso   1.000  H
  H115     1.0000 0.55600  0.11800  0.99700  Biso   1.000  H
  H116     1.0000 0.44400  0.61800  0.50300  Biso   1.000  H
  C189     1.0000 0.47580  0.04140  0.94440  Biso   1.000  C
  C190     1.0000 0.52420  0.54140  0.55560  Biso   1.000  C
  C191     1.0000 0.52420  0.95860  0.05560  Biso   1.000  C
  C192     1.0000 0.47580  0.45860  0.44440  Biso   1.000  C
  H117     1.0000 0.46900  0.06800  0.90900  Biso   1.000  H
  H118     1.0000 0.53100  0.56800  0.59100  Biso   1.000  H
  H119     1.0000 0.53100  0.93200  0.09100  Biso   1.000  H
  H120     1.0000 0.46900  0.43200  0.40900  Biso   1.000  H
  O49      1.0000 0.73000  0.93670  0.65430  Biso   1.000  O
  O50      1.0000 0.27000  0.43670  0.84570  Biso   1.000  O
  O51      1.0000 0.27000  0.06330  0.34570  Biso   1.000  O
  O52      1.0000 0.73000  0.56330  0.15430  Biso   1.000  O
  O53      1.0000 0.89840  0.91410  0.62910  Biso   1.000  O
  O54      1.0000 0.10160  0.41410  0.87090  Biso   1.000  O
  O55      1.0000 0.10160  0.08590  0.37090  Biso   1.000  O
  O56      1.0000 0.89840  0.58590  0.12910  Biso   1.000  O
  O57      1.0000 0.06850  0.52950  0.45160  Biso   1.000  O
  O58      1.0000 0.93150  0.02950  0.04840  Biso   1.000  O
  O59      1.0000 0.93150  0.47050  0.54840  Biso   1.000  O
  O60      1.0000 0.06850  0.97050  0.95160  Biso   1.000  O
