data_image0
_cell_length_a       8.8261
_cell_length_b       10.767
_cell_length_c       11.884
_cell_angle_alpha    102.9
_cell_angle_beta     106.45
_cell_angle_gamma    107.8

_symmetry_space_group_name_H-M    "P 1"
_symmetry_int_tables_number       1

loop_
  _symmetry_equiv_pos_as_xyz
  'x, y, z'

loop_
  _atom_site_label
  _atom_site_occupancy
  _atom_site_fract_x
  _atom_site_fract_y
  _atom_site_fract_z
  _atom_site_thermal_displace_type
  _atom_site_B_iso_or_equiv
  _atom_site_type_symbol
  Cu1      1.0000 0.79204  0.04842  0.23851  Biso   1.000  Cu
  Cu2      1.0000 0.20796  0.95158  0.76149  Biso   1.000  Cu
  O1       1.0000 0.87550  0.14200  0.10079  Biso   1.000  O
  O2       1.0000 0.12450  0.85800  0.89921  Biso   1.000  O
  O3       1.0000 0.07830  0.30840  0.08832  Biso   1.000  O
  O4       1.0000 0.92170  0.69160  0.91168  Biso   1.000  O
  O5       1.0000 0.05090  0.31960  0.26487  Biso   1.000  O
  O6       1.0000 0.94910  0.68040  0.73513  Biso   1.000  O
  O7       1.0000 0.50630  0.79976  0.21576  Biso   1.000  O
  O8       1.0000 0.49370  0.20024  0.78424  Biso   1.000  O
  O9       1.0000 0.64200  0.88232  0.09955  Biso   1.000  O
  O10      1.0000 0.35800  0.11768  0.90045  Biso   1.000  O
  N1       1.0000 0.00220  0.25790  0.15170  Biso   1.000  N
  N2       1.0000 0.99780  0.74210  0.84830  Biso   1.000  N
  N3       1.0000 0.99610  0.99440  0.27909  Biso   1.000  N
  N4       1.0000 0.00390  0.00560  0.72091  Biso   1.000  N
  N5       1.0000 0.91830  0.16770  0.40943  Biso   1.000  N
  N6       1.0000 0.08170  0.83230  0.59057  Biso   1.000  N
  N7       1.0000 0.62760  0.13690  0.26252  Biso   1.000  N
  N8       1.0000 0.37240  0.86310  0.73748  Biso   1.000  N
  C1       1.0000 0.02460  0.90060  0.20160  Biso   1.000  C
  C2       1.0000 0.97540  0.09940  0.79840  Biso   1.000  C
  H1       1.0000 0.94650  0.85580  0.11950  Biso   1.000  H
  H2       1.0000 0.05350  0.14420  0.88050  Biso   1.000  H
  C3       1.0000 0.16540  0.86880  0.23990  Biso   1.000  C
  C4       1.0000 0.83460  0.13120  0.76010  Biso   1.000  C
  H3       1.0000 0.18360  0.80520  0.18380  Biso   1.000  H
  H4       1.0000 0.81640  0.19480  0.81620  Biso   1.000  H
  C5       1.0000 0.27990  0.93170  0.36200  Biso   1.000  C
  C6       1.0000 0.72010  0.06830  0.63800  Biso   1.000  C
  H5       1.0000 0.37360  0.90850  0.39000  Biso   1.000  H
  H6       1.0000 0.62640  0.09150  0.61000  Biso   1.000  H
  C7       1.0000 0.25310  0.03100  0.44320  Biso   1.000  C
  C8       1.0000 0.74690  0.96900  0.55680  Biso   1.000  C
  H7       1.0000 0.32920  0.07600  0.52580  Biso   1.000  H
  H8       1.0000 0.67080  0.92400  0.47420  Biso   1.000  H
  C9       1.0000 0.11140  0.06040  0.39800  Biso   1.000  C
  C10      1.0000 0.88860  0.93960  0.60200  Biso   1.000  C
  C11      1.0000 0.06990  0.16540  0.47200  Biso   1.000  C
  C12      1.0000 0.93010  0.83460  0.52800  Biso   1.000  C
  C13      1.0000 0.16780  0.25470  0.59260  Biso   1.000  C
  C14      1.0000 0.83220  0.74530  0.40740  Biso   1.000  C
  H9       1.0000 0.27160  0.25200  0.63660  Biso   1.000  H
  H10      1.0000 0.72840  0.74800  0.36340  Biso   1.000  H
  C15      1.0000 0.10960  0.34930  0.64810  Biso   1.000  C
  C16      1.0000 0.89040  0.65070  0.35190  Biso   1.000  C
  C17      1.0000 0.95150  0.34900  0.58070  Biso   1.000  C
  C18      1.0000 0.04850  0.65100  0.41930  Biso   1.000  C
  H11      1.0000 0.91010  0.41100  0.61590  Biso   1.000  H
  H12      1.0000 0.08990  0.58900  0.38410  Biso   1.000  H
  C19      1.0000 0.85750  0.25520  0.46080  Biso   1.000  C
  C20      1.0000 0.14250  0.74480  0.53920  Biso   1.000  C
  C21      1.0000 0.68550  0.23460  0.37680  Biso   1.000  C
  C22      1.0000 0.31450  0.76540  0.62320  Biso   1.000  C
  C23      1.0000 0.58670  0.30210  0.40910  Biso   1.000  C
  C24      1.0000 0.41330  0.69790  0.59090  Biso   1.000  C
  H13      1.0000 0.62850  0.36860  0.48760  Biso   1.000  H
  H14      1.0000 0.37150  0.63140  0.51240  Biso   1.000  H
  C25      1.0000 0.42360  0.27000  0.32350  Biso   1.000  C
  C26      1.0000 0.57640  0.73000  0.67650  Biso   1.000  C
  H15      1.0000 0.35450  0.31400  0.34390  Biso   1.000  H
  H16      1.0000 0.64550  0.68600  0.65610  Biso   1.000  H
  C27      1.0000 0.36660  0.17150  0.20770  Biso   1.000  C
  C28      1.0000 0.63340  0.82850  0.79230  Biso   1.000  C
  H17      1.0000 0.25870  0.14900  0.14840  Biso   1.000  H
  H18      1.0000 0.74130  0.85100  0.85160  Biso   1.000  H
  C29      1.0000 0.47100  0.10690  0.18070  Biso   1.000  C
  C30      1.0000 0.52900  0.89310  0.81930  Biso   1.000  C
  H19      1.0000 0.43110  0.03990  0.10270  Biso   1.000  H
  H20      1.0000 0.56890  0.96010  0.89730  Biso   1.000  H
  C31      1.0000 0.21640  0.45130  0.77470  Biso   1.000  C
  C32      1.0000 0.78360  0.54870  0.22530  Biso   1.000  C
  C33      1.0000 0.39460  0.51000  0.81170  Biso   1.000  C
  C34      1.0000 0.60540  0.49000  0.18830  Biso   1.000  C
  H21      1.0000 0.44600  0.47690  0.76020  Biso   1.000  H
  H22      1.0000 0.55400  0.52310  0.23980  Biso   1.000  H
  C35      1.0000 0.49490  0.61580  0.92300  Biso   1.000  C
  C36      1.0000 0.50510  0.38420  0.07700  Biso   1.000  C
  H23      1.0000 0.61340  0.65600  0.94540  Biso   1.000  H
  H24      1.0000 0.38660  0.34400  0.05460  Biso   1.000  H
  C37      1.0000 0.42000  0.66320  0.00250  Biso   1.000  C
  C38      1.0000 0.58000  0.33680  0.99750  Biso   1.000  C
  C39      1.0000 0.24420  0.59890  0.97060  Biso   1.000  C
  C40      1.0000 0.75580  0.40110  0.02940  Biso   1.000  C
  H25      1.0000 0.19460  0.62570  0.02600  Biso   1.000  H
  H26      1.0000 0.80540  0.37430  0.97400  Biso   1.000  H
  C41      1.0000 0.14230  0.49510  0.85650  Biso   1.000  C
  C42      1.0000 0.85770  0.50490  0.14350  Biso   1.000  C
  H27      1.0000 0.02400  0.45440  0.83430  Biso   1.000  H
  H28      1.0000 0.97600  0.54560  0.16570  Biso   1.000  H
  C43      1.0000 0.52950  0.78930  0.11640  Biso   1.000  C
  C44      1.0000 0.47050  0.21070  0.88360  Biso   1.000  C
  O11      1.0000 0.31890  0.59350  0.28828  Biso   1.000  O
  O12      1.0000 0.68110  0.40650  0.71172  Biso   1.000  O
  H29      1.0000 0.26700  0.53200  0.23400  Biso   1.000  H
  H30      1.0000 0.73300  0.46800  0.76600  Biso   1.000  H
  H31      1.0000 0.35900  0.64300  0.24700  Biso   1.000  H
  H32      1.0000 0.64100  0.35700  0.75300  Biso   1.000  H
