data_image0
_cell_length_a       11.706
_cell_length_b       6.994
_cell_length_c       12.732
_cell_angle_alpha    90
_cell_angle_beta     90
_cell_angle_gamma    90

_symmetry_space_group_name_H-M    "P 1"
_symmetry_int_tables_number       1

loop_
  _symmetry_equiv_pos_as_xyz
  'x, y, z'

loop_
  _atom_site_label
  _atom_site_occupancy
  _atom_site_fract_x
  _atom_site_fract_y
  _atom_site_fract_z
  _atom_site_thermal_displace_type
  _atom_site_B_iso_or_equiv
  _atom_site_type_symbol
  Cu1      1.0000 0.25000  0.25000  0.21648  Biso   1.000  Cu
  Cu2      1.0000 0.75000  0.75000  0.78352  Biso   1.000  Cu
  Cl1      1.0000 0.25000  0.75000  0.26575  Biso   1.000  Cl
  Cl2      1.0000 0.75000  0.25000  0.73425  Biso   1.000  Cl
  Cl3      1.0000 0.75000  0.25000  0.13990  Biso   1.000  Cl
  Cl4      1.0000 0.25000  0.75000  0.86010  Biso   1.000  Cl
  N1       1.0000 0.36180  0.25000  0.33360  Biso   1.000  N
  N2       1.0000 0.13820  0.25000  0.33360  Biso   1.000  N
  N3       1.0000 0.86180  0.75000  0.66640  Biso   1.000  N
  N4       1.0000 0.63820  0.75000  0.66640  Biso   1.000  N
  C1       1.0000 0.47380  0.25000  0.32960  Biso   1.000  C
  C2       1.0000 0.02620  0.25000  0.32960  Biso   1.000  C
  C3       1.0000 0.97380  0.75000  0.67040  Biso   1.000  C
  C4       1.0000 0.52620  0.75000  0.67040  Biso   1.000  C
  C5       1.0000 0.54160  0.25000  0.42000  Biso   1.000  C
  C6       1.0000 0.95840  0.25000  0.42000  Biso   1.000  C
  C7       1.0000 0.04160  0.75000  0.58000  Biso   1.000  C
  C8       1.0000 0.45840  0.75000  0.58000  Biso   1.000  C
  C9       1.0000 0.49040  0.25000  0.51730  Biso   1.000  C
  C10      1.0000 0.00960  0.25000  0.51730  Biso   1.000  C
  C11      1.0000 0.99040  0.75000  0.48270  Biso   1.000  C
  C12      1.0000 0.50960  0.75000  0.48270  Biso   1.000  C
  C13      1.0000 0.37080  0.25000  0.52370  Biso   1.000  C
  C14      1.0000 0.12920  0.25000  0.52370  Biso   1.000  C
  C15      1.0000 0.87080  0.75000  0.47630  Biso   1.000  C
  C16      1.0000 0.62920  0.75000  0.47630  Biso   1.000  C
  C17      1.0000 0.31010  0.25000  0.42870  Biso   1.000  C
  C18      1.0000 0.18990  0.25000  0.42870  Biso   1.000  C
  C19      1.0000 0.81010  0.75000  0.57130  Biso   1.000  C
  C20      1.0000 0.68990  0.75000  0.57130  Biso   1.000  C
  C21      1.0000 0.30710  0.25000  0.61920  Biso   1.000  C
  C22      1.0000 0.19290  0.25000  0.61920  Biso   1.000  C
  C23      1.0000 0.80710  0.75000  0.38080  Biso   1.000  C
  C24      1.0000 0.69290  0.75000  0.38080  Biso   1.000  C
  N5       1.0000 0.36680  0.25000  0.10240  Biso   1.000  N
  N6       1.0000 0.13320  0.25000  0.10240  Biso   1.000  N
  N7       1.0000 0.86680  0.75000  0.89760  Biso   1.000  N
  N8       1.0000 0.63320  0.75000  0.89760  Biso   1.000  N
  C25      1.0000 0.41310  0.25000  0.02580  Biso   1.000  C
  C26      1.0000 0.08690  0.25000  0.02580  Biso   1.000  C
  C27      1.0000 0.91310  0.75000  0.97420  Biso   1.000  C
  C28      1.0000 0.58690  0.75000  0.97420  Biso   1.000  C
  C29      1.0000 0.47280  0.25000  0.92370  Biso   1.000  C
  C30      1.0000 0.02720  0.25000  0.92370  Biso   1.000  C
  C31      1.0000 0.97280  0.75000  0.07630  Biso   1.000  C
  C32      1.0000 0.52720  0.75000  0.07630  Biso   1.000  C
  O1       1.0000 0.25000  0.75000  0.37390  Biso   1.000  O
  O2       1.0000 0.75000  0.25000  0.62610  Biso   1.000  O
  O3       1.0000 0.37640  0.75000  0.25110  Biso   1.000  O
  O4       1.0000 0.12360  0.75000  0.25110  Biso   1.000  O
  O5       1.0000 0.87640  0.25000  0.74890  Biso   1.000  O
  O6       1.0000 0.62360  0.25000  0.74890  Biso   1.000  O
  O7       1.0000 0.21070  0.91040  0.21720  Biso   1.000  O
  O8       1.0000 0.28930  0.58960  0.21720  Biso   1.000  O
  O9       1.0000 0.71070  0.08960  0.78280  Biso   1.000  O
  O10      1.0000 0.78930  0.41040  0.78280  Biso   1.000  O
  O11      1.0000 0.78930  0.08960  0.78280  Biso   1.000  O
  O12      1.0000 0.71070  0.41040  0.78280  Biso   1.000  O
  O13      1.0000 0.28930  0.91040  0.21720  Biso   1.000  O
  O14      1.0000 0.21070  0.58960  0.21720  Biso   1.000  O
  O15      1.0000 0.75000  0.25000  0.25020  Biso   1.000  O
  O16      1.0000 0.25000  0.75000  0.74980  Biso   1.000  O
  O17      1.0000 0.63870  0.25000  0.10560  Biso   1.000  O
  O18      1.0000 0.86130  0.25000  0.10560  Biso   1.000  O
  O19      1.0000 0.13870  0.75000  0.89440  Biso   1.000  O
  O20      1.0000 0.36130  0.75000  0.89440  Biso   1.000  O
  O21      1.0000 0.80790  0.08780  0.10850  Biso   1.000  O
  O22      1.0000 0.69210  0.41220  0.10850  Biso   1.000  O
  O23      1.0000 0.30790  0.91220  0.89150  Biso   1.000  O
  O24      1.0000 0.19210  0.58780  0.89150  Biso   1.000  O
  O25      1.0000 0.19210  0.91220  0.89150  Biso   1.000  O
  O26      1.0000 0.30790  0.58780  0.89150  Biso   1.000  O
  O27      1.0000 0.69210  0.08780  0.10850  Biso   1.000  O
  O28      1.0000 0.80790  0.41220  0.10850  Biso   1.000  O
  H1       1.0000 0.51300  0.25000  0.26400  Biso   1.000  H
  H2       1.0000 0.98700  0.25000  0.26400  Biso   1.000  H
  H3       1.0000 0.01300  0.75000  0.73600  Biso   1.000  H
  H4       1.0000 0.48700  0.75000  0.73600  Biso   1.000  H
  H5       1.0000 0.53700  0.25000  0.59400  Biso   1.000  H
  H6       1.0000 0.96300  0.25000  0.59400  Biso   1.000  H
  H7       1.0000 0.03700  0.75000  0.40600  Biso   1.000  H
  H8       1.0000 0.46300  0.75000  0.40600  Biso   1.000  H
  H9       1.0000 0.63200  0.25000  0.42100  Biso   1.000  H
  H10      1.0000 0.86800  0.25000  0.42100  Biso   1.000  H
  H11      1.0000 0.13200  0.75000  0.57900  Biso   1.000  H
  H12      1.0000 0.36800  0.75000  0.57900  Biso   1.000  H
  H13      1.0000 0.35300  0.25000  0.67000  Biso   1.000  H
  H14      1.0000 0.14700  0.25000  0.67000  Biso   1.000  H
  H15      1.0000 0.85300  0.75000  0.33000  Biso   1.000  H
  H16      1.0000 0.64700  0.75000  0.33000  Biso   1.000  H
