data_image0
_cell_length_a       11.578
_cell_length_b       6.943
_cell_length_c       12.542
_cell_angle_alpha    90
_cell_angle_beta     90.018
_cell_angle_gamma    90

_symmetry_space_group_name_H-M    "P 1"
_symmetry_int_tables_number       1

loop_
  _symmetry_equiv_pos_as_xyz
  'x, y, z'

loop_
  _atom_site_label
  _atom_site_occupancy
  _atom_site_fract_x
  _atom_site_fract_y
  _atom_site_fract_z
  _atom_site_thermal_displace_type
  _atom_site_B_iso_or_equiv
  _atom_site_type_symbol
  Cu1      1.0000 0.77228  0.46932  0.28035  Biso   1.000  Cu
  Cu2      1.0000 0.22772  0.96932  0.71965  Biso   1.000  Cu
  Cl1      1.0000 0.73197  0.97776  0.23489  Biso   1.000  Cl
  Cl2      1.0000 0.26803  0.47776  0.76511  Biso   1.000  Cl
  O1       1.0000 0.75630  0.81760  0.30570  Biso   1.000  O
  O2       1.0000 0.24370  0.31760  0.69430  Biso   1.000  O
  O3       1.0000 0.74330  0.91840  0.12494  Biso   1.000  O
  O4       1.0000 0.25670  0.41840  0.87506  Biso   1.000  O
  O5       1.0000 0.81580  0.12910  0.25680  Biso   1.000  O
  O6       1.0000 0.18420  0.62910  0.74320  Biso   1.000  O
  O7       1.0000 0.61690  0.04940  0.25460  Biso   1.000  O
  O8       1.0000 0.38310  0.54940  0.74540  Biso   1.000  O
  N1       1.0000 0.65740  0.43640  0.39620  Biso   1.000  N
  N2       1.0000 0.34260  0.93640  0.60380  Biso   1.000  N
  N3       1.0000 0.89240  0.46800  0.39460  Biso   1.000  N
  N4       1.0000 0.10760  0.96800  0.60540  Biso   1.000  N
  N5       1.0000 0.88340  0.50480  0.15870  Biso   1.000  N
  N6       1.0000 0.11660  0.00480  0.84130  Biso   1.000  N
  N7       1.0000 0.65570  0.47730  0.16400  Biso   1.000  N
  N8       1.0000 0.34430  0.97730  0.83600  Biso   1.000  N
  C1       1.0000 0.93810  0.45550  0.47450  Biso   1.000  C
  C2       1.0000 0.06190  0.95550  0.52550  Biso   1.000  C
  C3       1.0000 0.99670  0.44580  0.57680  Biso   1.000  C
  C4       1.0000 0.00330  0.94580  0.42320  Biso   1.000  C
  H1       1.0000 0.07440  0.39290  0.56670  Biso   1.000  H
  H2       1.0000 0.92560  0.89290  0.43330  Biso   1.000  H
  H3       1.0000 0.95300  0.36250  0.62520  Biso   1.000  H
  H4       1.0000 0.04700  0.86250  0.37480  Biso   1.000  H
  H5       1.0000 0.00230  0.57540  0.60730  Biso   1.000  H
  H6       1.0000 0.99770  0.07540  0.39270  Biso   1.000  H
  C5       1.0000 0.60870  0.42080  0.47270  Biso   1.000  C
  C6       1.0000 0.39130  0.92080  0.52730  Biso   1.000  C
  C7       1.0000 0.54470  0.40260  0.57510  Biso   1.000  C
  C8       1.0000 0.45530  0.90260  0.42490  Biso   1.000  C
  H7       1.0000 0.55720  0.51830  0.61820  Biso   1.000  H
  H8       1.0000 0.44280  0.01830  0.38180  Biso   1.000  H
  H9       1.0000 0.57260  0.28940  0.61400  Biso   1.000  H
  H10      1.0000 0.42740  0.78940  0.38600  Biso   1.000  H
  H11      1.0000 0.46200  0.38790  0.56040  Biso   1.000  H
  H12      1.0000 0.53800  0.88790  0.43960  Biso   1.000  H
  C9       1.0000 0.82740  0.51330  0.06380  Biso   1.000  C
  C10      1.0000 0.17260  0.01330  0.93620  Biso   1.000  C
  C11      1.0000 0.88560  0.53660  0.96540  Biso   1.000  C
  C12      1.0000 0.11440  0.03660  0.03460  Biso   1.000  C
  C13      1.0000 0.64070  0.51030  0.97060  Biso   1.000  C
  C14      1.0000 0.35930  0.01030  0.02940  Biso   1.000  C
  C15      1.0000 0.06220  0.54200  0.06690  Biso   1.000  C
  C16      1.0000 0.93780  0.04200  0.93310  Biso   1.000  C
  H13      1.0000 0.14400  0.55050  0.07070  Biso   1.000  H
  H14      1.0000 0.85600  0.05050  0.92930  Biso   1.000  H
  C17      1.0000 0.70490  0.49600  0.06660  Biso   1.000  C
  C18      1.0000 0.29510  0.99600  0.93340  Biso   1.000  C
  C19      1.0000 0.99770  0.51920  0.16030  Biso   1.000  C
  C20      1.0000 0.00230  0.01920  0.83970  Biso   1.000  C
  H15      1.0000 0.03690  0.51390  0.22680  Biso   1.000  H
  H16      1.0000 0.96310  0.01390  0.77320  Biso   1.000  H
  C21      1.0000 0.00800  0.55220  0.97010  Biso   1.000  C
  C22      1.0000 0.99200  0.05220  0.02990  Biso   1.000  C
  H17      1.0000 0.05160  0.56950  0.90660  Biso   1.000  H
  H18      1.0000 0.94840  0.06950  0.09340  Biso   1.000  H
  C23      1.0000 0.54080  0.46720  0.17130  Biso   1.000  C
  C24      1.0000 0.45920  0.96720  0.82870  Biso   1.000  C
  H19      1.0000 0.50620  0.45180  0.23940  Biso   1.000  H
  H20      1.0000 0.49380  0.95180  0.76060  Biso   1.000  H
  C25      1.0000 0.46990  0.47880  0.08050  Biso   1.000  C
  C26      1.0000 0.53010  0.97880  0.91950  Biso   1.000  C
  H21      1.0000 0.38830  0.47320  0.08750  Biso   1.000  H
  H22      1.0000 0.61170  0.97320  0.91250  Biso   1.000  H
  C27      1.0000 0.81860  0.55190  0.87090  Biso   1.000  C
  C28      1.0000 0.18140  0.05190  0.12910  Biso   1.000  C
  H23      1.0000 0.85620  0.57440  0.80470  Biso   1.000  H
  H24      1.0000 0.14380  0.07440  0.19530  Biso   1.000  H
  C29      1.0000 0.70220  0.53500  0.87340  Biso   1.000  C
  C30      1.0000 0.29780  0.03500  0.12660  Biso   1.000  C
  H25      1.0000 0.66030  0.53970  0.80830  Biso   1.000  H
  H26      1.0000 0.33970  0.03970  0.19170  Biso   1.000  H
  C31      1.0000 0.51950  0.49840  0.98180  Biso   1.000  C
  C32      1.0000 0.48050  0.99840  0.01820  Biso   1.000  C
  H27      1.0000 0.47180  0.50390  0.92020  Biso   1.000  H
  H28      1.0000 0.52820  0.00390  0.07980  Biso   1.000  H
  Cl3      1.0000 0.25589  0.44708  0.36263  Biso   1.000  Cl
  Cl4      1.0000 0.74411  0.94708  0.63737  Biso   1.000  Cl
  O9       1.0000 0.36740  0.36910  0.38170  Biso   1.000  O
  O10      1.0000 0.63260  0.86910  0.61830  Biso   1.000  O
  O11      1.0000 0.25810  0.53550  0.25930  Biso   1.000  O
  O12      1.0000 0.74190  0.03550  0.74070  Biso   1.000  O
  O13      1.0000 0.22840  0.58630  0.44180  Biso   1.000  O
  O14      1.0000 0.77160  0.08630  0.55820  Biso   1.000  O
  O15      1.0000 0.17030  0.29970  0.36590  Biso   1.000  O
  O16      1.0000 0.82970  0.79970  0.63410  Biso   1.000  O
