data_image0
_cell_length_a       25.593
_cell_length_b       14.9494
_cell_length_c       16.2415
_cell_angle_alpha    90
_cell_angle_beta     116.503
_cell_angle_gamma    90

_symmetry_space_group_name_H-M    "P 1"
_symmetry_int_tables_number       1

loop_
  _symmetry_equiv_pos_as_xyz
  'x, y, z'

loop_
  _atom_site_label
  _atom_site_occupancy
  _atom_site_fract_x
  _atom_site_fract_y
  _atom_site_fract_z
  _atom_site_thermal_displace_type
  _atom_site_B_iso_or_equiv
  _atom_site_type_symbol
  Cu1      1.0000 0.31114  0.87812  0.99416  Biso   1.000  Cu
  Cu2      1.0000 0.81114  0.37812  0.99416  Biso   1.000  Cu
  Cu3      1.0000 0.68886  0.87812  0.50584  Biso   1.000  Cu
  Cu4      1.0000 0.18886  0.37812  0.50584  Biso   1.000  Cu
  Cu5      1.0000 0.68886  0.12188  0.00584  Biso   1.000  Cu
  Cu6      1.0000 0.18886  0.62188  0.00584  Biso   1.000  Cu
  Cu7      1.0000 0.31114  0.12188  0.49416  Biso   1.000  Cu
  Cu8      1.0000 0.81114  0.62188  0.49416  Biso   1.000  Cu
  Cu9      1.0000 0.39433  0.86833  0.78474  Biso   1.000  Cu
  Cu10     1.0000 0.89433  0.36833  0.78474  Biso   1.000  Cu
  Cu11     1.0000 0.60567  0.86833  0.71526  Biso   1.000  Cu
  Cu12     1.0000 0.10567  0.36833  0.71526  Biso   1.000  Cu
  Cu13     1.0000 0.60567  0.13167  0.21526  Biso   1.000  Cu
  Cu14     1.0000 0.10567  0.63167  0.21526  Biso   1.000  Cu
  Cu15     1.0000 0.39433  0.13167  0.28474  Biso   1.000  Cu
  Cu16     1.0000 0.89433  0.63167  0.28474  Biso   1.000  Cu
  O1       1.0000 0.30978  0.96790  0.76431  Biso   1.000  O
  O2       1.0000 0.80978  0.46790  0.76431  Biso   1.000  O
  O3       1.0000 0.69022  0.96790  0.73569  Biso   1.000  O
  O4       1.0000 0.19022  0.46790  0.73569  Biso   1.000  O
  O5       1.0000 0.69022  0.03210  0.23569  Biso   1.000  O
  O6       1.0000 0.19022  0.53210  0.23569  Biso   1.000  O
  O7       1.0000 0.30978  0.03210  0.26431  Biso   1.000  O
  O8       1.0000 0.80978  0.53210  0.26431  Biso   1.000  O
  N1       1.0000 0.42414  0.98597  0.84806  Biso   1.000  N
  N2       1.0000 0.92414  0.48597  0.84806  Biso   1.000  N
  N3       1.0000 0.57586  0.98597  0.65194  Biso   1.000  N
  N4       1.0000 0.07586  0.48597  0.65194  Biso   1.000  N
  N5       1.0000 0.57586  0.01403  0.15194  Biso   1.000  N
  N6       1.0000 0.07586  0.51403  0.15194  Biso   1.000  N
  N7       1.0000 0.42414  0.01403  0.34806  Biso   1.000  N
  N8       1.0000 0.92414  0.51403  0.34806  Biso   1.000  N
  N9       1.0000 0.27644  0.99970  0.94478  Biso   1.000  N
  N10      1.0000 0.77644  0.49970  0.94478  Biso   1.000  N
  N11      1.0000 0.72356  0.99970  0.55522  Biso   1.000  N
  N12      1.0000 0.22356  0.49970  0.55522  Biso   1.000  N
  N13      1.0000 0.72356  0.00030  0.05522  Biso   1.000  N
  N14      1.0000 0.22356  0.50030  0.05522  Biso   1.000  N
  N15      1.0000 0.27644  0.00030  0.44478  Biso   1.000  N
  N16      1.0000 0.77644  0.50030  0.44478  Biso   1.000  N
  N17      1.0000 0.34557  0.89718  0.91176  Biso   1.000  N
  N18      1.0000 0.84557  0.39718  0.91176  Biso   1.000  N
  N19      1.0000 0.65443  0.89718  0.58824  Biso   1.000  N
  N20      1.0000 0.15443  0.39718  0.58824  Biso   1.000  N
  N21      1.0000 0.65443  0.10282  0.08824  Biso   1.000  N
  N22      1.0000 0.15443  0.60282  0.08824  Biso   1.000  N
  N23      1.0000 0.34557  0.10282  0.41176  Biso   1.000  N
  N24      1.0000 0.84557  0.60282  0.41176  Biso   1.000  N
  N25      1.0000 0.36778  0.83596  0.87834  Biso   1.000  N
  N26      1.0000 0.86778  0.33596  0.87834  Biso   1.000  N
  N27      1.0000 0.63222  0.83596  0.62166  Biso   1.000  N
  N28      1.0000 0.13222  0.33596  0.62166  Biso   1.000  N
  N29      1.0000 0.63222  0.16404  0.12166  Biso   1.000  N
  N30      1.0000 0.13222  0.66404  0.12166  Biso   1.000  N
  N31      1.0000 0.36778  0.16404  0.37834  Biso   1.000  N
  N32      1.0000 0.86778  0.66404  0.37834  Biso   1.000  N
  N33      1.0000 0.36329  0.77142  0.04607  Biso   1.000  N
  N34      1.0000 0.86329  0.27142  0.04607  Biso   1.000  N
  N35      1.0000 0.63671  0.77142  0.45393  Biso   1.000  N
  N36      1.0000 0.13671  0.27142  0.45393  Biso   1.000  N
  N37      1.0000 0.63671  0.22858  0.95393  Biso   1.000  N
  N38      1.0000 0.13671  0.72858  0.95393  Biso   1.000  N
  N39      1.0000 0.36329  0.22858  0.54607  Biso   1.000  N
  N40      1.0000 0.86329  0.72858  0.54607  Biso   1.000  N
  N41      1.0000 0.40431  0.73884  0.78460  Biso   1.000  N
  N42      1.0000 0.90431  0.23884  0.78460  Biso   1.000  N
  N43      1.0000 0.59569  0.73884  0.71540  Biso   1.000  N
  N44      1.0000 0.09569  0.23884  0.71540  Biso   1.000  N
  N45      1.0000 0.59569  0.26116  0.21540  Biso   1.000  N
  N46      1.0000 0.09569  0.76116  0.21540  Biso   1.000  N
  N47      1.0000 0.40431  0.26116  0.28460  Biso   1.000  N
  N48      1.0000 0.90431  0.76116  0.28460  Biso   1.000  N
  N49      1.0000 0.25801  0.86270  0.04860  Biso   1.000  N
  N50      1.0000 0.75801  0.36270  0.04860  Biso   1.000  N
  N51      1.0000 0.74199  0.86270  0.45140  Biso   1.000  N
  N52      1.0000 0.24199  0.36270  0.45140  Biso   1.000  N
  N53      1.0000 0.74199  0.13730  0.95140  Biso   1.000  N
  N54      1.0000 0.24199  0.63730  0.95140  Biso   1.000  N
  N55      1.0000 0.25801  0.13730  0.54860  Biso   1.000  N
  N56      1.0000 0.75801  0.63730  0.54860  Biso   1.000  N
  N57      1.0000 0.25495  0.81060  0.09910  Biso   1.000  N
  N58      1.0000 0.75495  0.31060  0.09910  Biso   1.000  N
  N59      1.0000 0.74505  0.81060  0.40090  Biso   1.000  N
  N60      1.0000 0.24505  0.31060  0.40090  Biso   1.000  N
  N61      1.0000 0.74505  0.18940  0.90090  Biso   1.000  N
  N62      1.0000 0.24505  0.68940  0.90090  Biso   1.000  N
  N63      1.0000 0.25495  0.18940  0.59910  Biso   1.000  N
  N64      1.0000 0.75495  0.68940  0.59910  Biso   1.000  N
  N65      1.0000 0.24970  0.75780  0.14770  Biso   1.000  N
  N66      1.0000 0.74970  0.25780  0.14770  Biso   1.000  N
  N67      1.0000 0.75030  0.75780  0.35230  Biso   1.000  N
  N68      1.0000 0.25030  0.25780  0.35230  Biso   1.000  N
  N69      1.0000 0.75030  0.24220  0.85230  Biso   1.000  N
  N70      1.0000 0.25030  0.74220  0.85230  Biso   1.000  N
  N71      1.0000 0.24970  0.24220  0.64770  Biso   1.000  N
  N72      1.0000 0.74970  0.74220  0.64770  Biso   1.000  N
  N73      1.0000 0.39919  0.10800  0.17090  Biso   1.000  N
  N74      1.0000 0.89919  0.60800  0.17090  Biso   1.000  N
  N75      1.0000 0.60081  0.10800  0.32910  Biso   1.000  N
  N76      1.0000 0.10081  0.60800  0.32910  Biso   1.000  N
  N77      1.0000 0.60081  0.89200  0.82910  Biso   1.000  N
  N78      1.0000 0.10081  0.39200  0.82910  Biso   1.000  N
  N79      1.0000 0.39919  0.89200  0.67090  Biso   1.000  N
  N80      1.0000 0.89919  0.39200  0.67090  Biso   1.000  N
  N81      1.0000 0.39397  0.03360  0.14698  Biso   1.000  N
  N82      1.0000 0.89397  0.53360  0.14698  Biso   1.000  N
  N83      1.0000 0.60603  0.03360  0.35302  Biso   1.000  N
  N84      1.0000 0.10603  0.53360  0.35302  Biso   1.000  N
  N85      1.0000 0.60603  0.96640  0.85302  Biso   1.000  N
  N86      1.0000 0.10603  0.46640  0.85302  Biso   1.000  N
  N87      1.0000 0.39397  0.96640  0.64698  Biso   1.000  N
  N88      1.0000 0.89397  0.46640  0.64698  Biso   1.000  N
  N89      1.0000 0.39059  0.96010  0.12320  Biso   1.000  N
  N90      1.0000 0.89059  0.46010  0.12320  Biso   1.000  N
  N91      1.0000 0.60941  0.96010  0.37680  Biso   1.000  N
  N92      1.0000 0.10941  0.46010  0.37680  Biso   1.000  N
  N93      1.0000 0.60941  0.03990  0.87680  Biso   1.000  N
  N94      1.0000 0.10941  0.53990  0.87680  Biso   1.000  N
  N95      1.0000 0.39059  0.03990  0.62320  Biso   1.000  N
  N96      1.0000 0.89059  0.53990  0.62320  Biso   1.000  N
  C1       1.0000 0.47530  0.01980  0.86140  Biso   1.000  C
  C2       1.0000 0.97530  0.51980  0.86140  Biso   1.000  C
  C3       1.0000 0.52470  0.01980  0.63860  Biso   1.000  C
  C4       1.0000 0.02470  0.51980  0.63860  Biso   1.000  C
  C5       1.0000 0.52470  0.98020  0.13860  Biso   1.000  C
  C6       1.0000 0.02470  0.48020  0.13860  Biso   1.000  C
  C7       1.0000 0.47530  0.98020  0.36140  Biso   1.000  C
  C8       1.0000 0.97530  0.48020  0.36140  Biso   1.000  C
  H1       1.0000 0.49650  0.99090  0.83540  Biso   1.000  H
  H2       1.0000 0.99650  0.49090  0.83540  Biso   1.000  H
  H3       1.0000 0.50350  0.99090  0.66460  Biso   1.000  H
  H4       1.0000 0.00350  0.49090  0.66460  Biso   1.000  H
  H5       1.0000 0.50350  0.00910  0.16460  Biso   1.000  H
  H6       1.0000 0.00350  0.50910  0.16460  Biso   1.000  H
  H7       1.0000 0.49650  0.00910  0.33540  Biso   1.000  H
  H8       1.0000 0.99650  0.50910  0.33540  Biso   1.000  H
  C9       1.0000 0.49809  0.09600  0.91220  Biso   1.000  C
  C10      1.0000 0.99809  0.59600  0.91220  Biso   1.000  C
  C11      1.0000 0.50191  0.09600  0.58780  Biso   1.000  C
  C12      1.0000 0.00191  0.59600  0.58780  Biso   1.000  C
  C13      1.0000 0.50191  0.90400  0.08780  Biso   1.000  C
  C14      1.0000 0.00191  0.40400  0.08780  Biso   1.000  C
  C15      1.0000 0.49809  0.90400  0.41220  Biso   1.000  C
  C16      1.0000 0.99809  0.40400  0.41220  Biso   1.000  C
  H9       1.0000 0.53400  0.11830  0.92060  Biso   1.000  H
  H10      1.0000 0.03400  0.61830  0.92060  Biso   1.000  H
  H11      1.0000 0.46600  0.11830  0.57940  Biso   1.000  H
  H12      1.0000 0.96600  0.61830  0.57940  Biso   1.000  H
  H13      1.0000 0.46600  0.88170  0.07940  Biso   1.000  H
  H14      1.0000 0.96600  0.38170  0.07940  Biso   1.000  H
  H15      1.0000 0.53400  0.88170  0.42060  Biso   1.000  H
  H16      1.0000 0.03400  0.38170  0.42060  Biso   1.000  H
  C17      1.0000 0.46638  0.13820  0.95010  Biso   1.000  C
  C18      1.0000 0.96638  0.63820  0.95010  Biso   1.000  C
  C19      1.0000 0.53362  0.13820  0.54990  Biso   1.000  C
  C20      1.0000 0.03362  0.63820  0.54990  Biso   1.000  C
  C21      1.0000 0.53362  0.86180  0.04990  Biso   1.000  C
  C22      1.0000 0.03362  0.36180  0.04990  Biso   1.000  C
  C23      1.0000 0.46638  0.86180  0.45010  Biso   1.000  C
  C24      1.0000 0.96638  0.36180  0.45010  Biso   1.000  C
  H17      1.0000 0.48060  0.19000  0.98480  Biso   1.000  H
  H18      1.0000 0.98060  0.69000  0.98480  Biso   1.000  H
  H19      1.0000 0.51940  0.19000  0.51520  Biso   1.000  H
  H20      1.0000 0.01940  0.69000  0.51520  Biso   1.000  H
  H21      1.0000 0.51940  0.81000  0.01520  Biso   1.000  H
  H22      1.0000 0.01940  0.31000  0.01520  Biso   1.000  H
  H23      1.0000 0.48060  0.81000  0.48480  Biso   1.000  H
  H24      1.0000 0.98060  0.31000  0.48480  Biso   1.000  H
  C25      1.0000 0.41326  0.10340  0.93640  Biso   1.000  C
  C26      1.0000 0.91326  0.60340  0.93640  Biso   1.000  C
  C27      1.0000 0.58674  0.10340  0.56360  Biso   1.000  C
  C28      1.0000 0.08674  0.60340  0.56360  Biso   1.000  C
  C29      1.0000 0.58674  0.89660  0.06360  Biso   1.000  C
  C30      1.0000 0.08674  0.39660  0.06360  Biso   1.000  C
  C31      1.0000 0.41326  0.89660  0.43640  Biso   1.000  C
  C32      1.0000 0.91326  0.39660  0.43640  Biso   1.000  C
  H25      1.0000 0.39170  0.13050  0.96280  Biso   1.000  H
  H26      1.0000 0.89170  0.63050  0.96280  Biso   1.000  H
  H27      1.0000 0.60830  0.13050  0.53720  Biso   1.000  H
  H28      1.0000 0.10830  0.63050  0.53720  Biso   1.000  H
  H29      1.0000 0.60830  0.86950  0.03720  Biso   1.000  H
  H30      1.0000 0.10830  0.36950  0.03720  Biso   1.000  H
  H31      1.0000 0.39170  0.86950  0.46280  Biso   1.000  H
  H32      1.0000 0.89170  0.36950  0.46280  Biso   1.000  H
  C33      1.0000 0.39268  0.02790  0.88320  Biso   1.000  C
  C34      1.0000 0.89268  0.52790  0.88320  Biso   1.000  C
  C35      1.0000 0.60732  0.02790  0.61680  Biso   1.000  C
  C36      1.0000 0.10732  0.52790  0.61680  Biso   1.000  C
  C37      1.0000 0.60732  0.97210  0.11680  Biso   1.000  C
  C38      1.0000 0.10732  0.47210  0.11680  Biso   1.000  C
  C39      1.0000 0.39268  0.97210  0.38320  Biso   1.000  C
  C40      1.0000 0.89268  0.47210  0.38320  Biso   1.000  C
  C41      1.0000 0.33425  0.98210  0.86060  Biso   1.000  C
  C42      1.0000 0.83425  0.48210  0.86060  Biso   1.000  C
  C43      1.0000 0.66575  0.98210  0.63940  Biso   1.000  C
  C44      1.0000 0.16575  0.48210  0.63940  Biso   1.000  C
  C45      1.0000 0.66575  0.01790  0.13940  Biso   1.000  C
  C46      1.0000 0.16575  0.51790  0.13940  Biso   1.000  C
  C47      1.0000 0.33425  0.01790  0.36060  Biso   1.000  C
  C48      1.0000 0.83425  0.51790  0.36060  Biso   1.000  C
  C49      1.0000 0.29459  0.03770  0.88740  Biso   1.000  C
  C50      1.0000 0.79459  0.53770  0.88740  Biso   1.000  C
  C51      1.0000 0.70541  0.03770  0.61260  Biso   1.000  C
  C52      1.0000 0.20541  0.53770  0.61260  Biso   1.000  C
  C53      1.0000 0.70541  0.96230  0.11260  Biso   1.000  C
  C54      1.0000 0.20541  0.46230  0.11260  Biso   1.000  C
  C55      1.0000 0.29459  0.96230  0.38740  Biso   1.000  C
  C56      1.0000 0.79459  0.46230  0.38740  Biso   1.000  C
  C57      1.0000 0.27670  0.12200  0.85170  Biso   1.000  C
  C58      1.0000 0.77670  0.62200  0.85170  Biso   1.000  C
  C59      1.0000 0.72330  0.12200  0.64830  Biso   1.000  C
  C60      1.0000 0.22330  0.62200  0.64830  Biso   1.000  C
  C61      1.0000 0.72330  0.87800  0.14830  Biso   1.000  C
  C62      1.0000 0.22330  0.37800  0.14830  Biso   1.000  C
  C63      1.0000 0.27670  0.87800  0.35170  Biso   1.000  C
  C64      1.0000 0.77670  0.37800  0.35170  Biso   1.000  C
  H33      1.0000 0.28840  0.14600  0.80970  Biso   1.000  H
  H34      1.0000 0.78840  0.64600  0.80970  Biso   1.000  H
  H35      1.0000 0.71160  0.14600  0.69030  Biso   1.000  H
  H36      1.0000 0.21160  0.64600  0.69030  Biso   1.000  H
  H37      1.0000 0.71160  0.85400  0.19030  Biso   1.000  H
  H38      1.0000 0.21160  0.35400  0.19030  Biso   1.000  H
  H39      1.0000 0.28840  0.85400  0.30970  Biso   1.000  H
  H40      1.0000 0.78840  0.35400  0.30970  Biso   1.000  H
  C65      1.0000 0.24119  0.17030  0.87890  Biso   1.000  C
  C66      1.0000 0.74119  0.67030  0.87890  Biso   1.000  C
  C67      1.0000 0.75881  0.17030  0.62110  Biso   1.000  C
  C68      1.0000 0.25881  0.67030  0.62110  Biso   1.000  C
  C69      1.0000 0.75881  0.82970  0.12110  Biso   1.000  C
  C70      1.0000 0.25881  0.32970  0.12110  Biso   1.000  C
  C71      1.0000 0.24119  0.82970  0.37890  Biso   1.000  C
  C72      1.0000 0.74119  0.32970  0.37890  Biso   1.000  C
  H41      1.0000 0.22970  0.22820  0.85740  Biso   1.000  H
  H42      1.0000 0.72970  0.72820  0.85740  Biso   1.000  H
  H43      1.0000 0.77030  0.22820  0.64260  Biso   1.000  H
  H44      1.0000 0.27030  0.72820  0.64260  Biso   1.000  H
  H45      1.0000 0.77030  0.77180  0.14260  Biso   1.000  H
  H46      1.0000 0.27030  0.27180  0.14260  Biso   1.000  H
  H47      1.0000 0.22970  0.77180  0.35740  Biso   1.000  H
  H48      1.0000 0.72970  0.27180  0.35740  Biso   1.000  H
  C73      1.0000 0.22298  0.13080  0.93920  Biso   1.000  C
  C74      1.0000 0.72298  0.63080  0.93920  Biso   1.000  C
  C75      1.0000 0.77702  0.13080  0.56080  Biso   1.000  C
  C76      1.0000 0.27702  0.63080  0.56080  Biso   1.000  C
  C77      1.0000 0.77702  0.86920  0.06080  Biso   1.000  C
  C78      1.0000 0.27702  0.36920  0.06080  Biso   1.000  C
  C79      1.0000 0.22298  0.86920  0.43920  Biso   1.000  C
  C80      1.0000 0.72298  0.36920  0.43920  Biso   1.000  C
  H49      1.0000 0.19890  0.16170  0.95850  Biso   1.000  H
  H50      1.0000 0.69890  0.66170  0.95850  Biso   1.000  H
  H51      1.0000 0.80110  0.16170  0.54150  Biso   1.000  H
  H52      1.0000 0.30110  0.66170  0.54150  Biso   1.000  H
  H53      1.0000 0.80110  0.83830  0.04150  Biso   1.000  H
  H54      1.0000 0.30110  0.33830  0.04150  Biso   1.000  H
  H55      1.0000 0.19890  0.83830  0.45850  Biso   1.000  H
  H56      1.0000 0.69890  0.33830  0.45850  Biso   1.000  H
  C81      1.0000 0.24104  0.04590  0.96970  Biso   1.000  C
  C82      1.0000 0.74104  0.54590  0.96970  Biso   1.000  C
  C83      1.0000 0.75896  0.04590  0.53030  Biso   1.000  C
  C84      1.0000 0.25896  0.54590  0.53030  Biso   1.000  C
  C85      1.0000 0.75896  0.95410  0.03030  Biso   1.000  C
  C86      1.0000 0.25896  0.45410  0.03030  Biso   1.000  C
  C87      1.0000 0.24104  0.95410  0.46970  Biso   1.000  C
  C88      1.0000 0.74104  0.45410  0.46970  Biso   1.000  C
  H57      1.0000 0.22830  0.01920  0.00930  Biso   1.000  H
  H58      1.0000 0.72830  0.51920  0.00930  Biso   1.000  H
  H59      1.0000 0.77170  0.01920  0.49070  Biso   1.000  H
  H60      1.0000 0.27170  0.51920  0.49070  Biso   1.000  H
  H61      1.0000 0.77170  0.98080  0.99070  Biso   1.000  H
  H62      1.0000 0.27170  0.48080  0.99070  Biso   1.000  H
  H63      1.0000 0.22830  0.98080  0.50930  Biso   1.000  H
  H64      1.0000 0.72830  0.48080  0.50930  Biso   1.000  H
  C89      1.0000 0.37694  0.74850  0.13370  Biso   1.000  C
  C90      1.0000 0.87694  0.24850  0.13370  Biso   1.000  C
  C91      1.0000 0.62306  0.74850  0.36630  Biso   1.000  C
  C92      1.0000 0.12306  0.24850  0.36630  Biso   1.000  C
  C93      1.0000 0.62306  0.25150  0.86630  Biso   1.000  C
  C94      1.0000 0.12306  0.75150  0.86630  Biso   1.000  C
  C95      1.0000 0.37694  0.25150  0.63370  Biso   1.000  C
  C96      1.0000 0.87694  0.75150  0.63370  Biso   1.000  C
  H65      1.0000 0.36030  0.78160  0.16450  Biso   1.000  H
  H66      1.0000 0.86030  0.28160  0.16450  Biso   1.000  H
  H67      1.0000 0.63970  0.78160  0.33550  Biso   1.000  H
  H68      1.0000 0.13970  0.28160  0.33550  Biso   1.000  H
  H69      1.0000 0.63970  0.21840  0.83550  Biso   1.000  H
  H70      1.0000 0.13970  0.71840  0.83550  Biso   1.000  H
  H71      1.0000 0.36030  0.21840  0.66450  Biso   1.000  H
  H72      1.0000 0.86030  0.71840  0.66450  Biso   1.000  H
  C97      1.0000 0.41290  0.68110  0.17950  Biso   1.000  C
  C98      1.0000 0.91290  0.18110  0.17950  Biso   1.000  C
  C99      1.0000 0.58710  0.68110  0.32050  Biso   1.000  C
  C100     1.0000 0.08710  0.18110  0.32050  Biso   1.000  C
  C101     1.0000 0.58710  0.31890  0.82050  Biso   1.000  C
  C102     1.0000 0.08710  0.81890  0.82050  Biso   1.000  C
  C103     1.0000 0.41290  0.31890  0.67950  Biso   1.000  C
  C104     1.0000 0.91290  0.81890  0.67950  Biso   1.000  C
  H73      1.0000 0.41950  0.66650  0.23900  Biso   1.000  H
  H74      1.0000 0.91950  0.16650  0.23900  Biso   1.000  H
  H75      1.0000 0.58050  0.66650  0.26100  Biso   1.000  H
  H76      1.0000 0.08050  0.16650  0.26100  Biso   1.000  H
  H77      1.0000 0.58050  0.33350  0.76100  Biso   1.000  H
  H78      1.0000 0.08050  0.83350  0.76100  Biso   1.000  H
  H79      1.0000 0.41950  0.33350  0.73900  Biso   1.000  H
  H80      1.0000 0.91950  0.83350  0.73900  Biso   1.000  H
  C105     1.0000 0.43974  0.63430  0.13590  Biso   1.000  C
  C106     1.0000 0.93974  0.13430  0.13590  Biso   1.000  C
  C107     1.0000 0.56026  0.63430  0.36410  Biso   1.000  C
  C108     1.0000 0.06026  0.13430  0.36410  Biso   1.000  C
  C109     1.0000 0.56026  0.36570  0.86410  Biso   1.000  C
  C110     1.0000 0.06026  0.86570  0.86410  Biso   1.000  C
  C111     1.0000 0.43974  0.36570  0.63590  Biso   1.000  C
  C112     1.0000 0.93974  0.86570  0.63590  Biso   1.000  C
  H81      1.0000 0.46500  0.58740  0.16580  Biso   1.000  H
  H82      1.0000 0.96500  0.08740  0.16580  Biso   1.000  H
  H83      1.0000 0.53500  0.58740  0.33420  Biso   1.000  H
  H84      1.0000 0.03500  0.08740  0.33420  Biso   1.000  H
  H85      1.0000 0.53500  0.41260  0.83420  Biso   1.000  H
  H86      1.0000 0.03500  0.91260  0.83420  Biso   1.000  H
  H87      1.0000 0.46500  0.41260  0.66580  Biso   1.000  H
  H88      1.0000 0.96500  0.91260  0.66580  Biso   1.000  H
  C113     1.0000 0.42900  0.65730  0.04780  Biso   1.000  C
  C114     1.0000 0.92900  0.15730  0.04780  Biso   1.000  C
  C115     1.0000 0.57100  0.65730  0.45220  Biso   1.000  C
  C116     1.0000 0.07100  0.15730  0.45220  Biso   1.000  C
  C117     1.0000 0.57100  0.34270  0.95220  Biso   1.000  C
  C118     1.0000 0.07100  0.84270  0.95220  Biso   1.000  C
  C119     1.0000 0.42900  0.34270  0.54780  Biso   1.000  C
  C120     1.0000 0.92900  0.84270  0.54780  Biso   1.000  C
  H89      1.0000 0.44790  0.62720  0.01870  Biso   1.000  H
  H90      1.0000 0.94790  0.12720  0.01870  Biso   1.000  H
  H91      1.0000 0.55210  0.62720  0.48130  Biso   1.000  H
  H92      1.0000 0.05210  0.12720  0.48130  Biso   1.000  H
  H93      1.0000 0.55210  0.37280  0.98130  Biso   1.000  H
  H94      1.0000 0.05210  0.87280  0.98130  Biso   1.000  H
  H95      1.0000 0.44790  0.37280  0.51870  Biso   1.000  H
  H96      1.0000 0.94790  0.87280  0.51870  Biso   1.000  H
  C121     1.0000 0.38977  0.72570  0.00240  Biso   1.000  C
  C122     1.0000 0.88977  0.22570  0.00240  Biso   1.000  C
  C123     1.0000 0.61023  0.72570  0.49760  Biso   1.000  C
  C124     1.0000 0.11023  0.22570  0.49760  Biso   1.000  C
  C125     1.0000 0.61023  0.27430  0.99760  Biso   1.000  C
  C126     1.0000 0.11023  0.77430  0.99760  Biso   1.000  C
  C127     1.0000 0.38977  0.27430  0.50240  Biso   1.000  C
  C128     1.0000 0.88977  0.77430  0.50240  Biso   1.000  C
  C129     1.0000 0.38159  0.75470  0.91110  Biso   1.000  C
  C130     1.0000 0.88159  0.25470  0.91110  Biso   1.000  C
  C131     1.0000 0.61841  0.75470  0.58890  Biso   1.000  C
  C132     1.0000 0.11841  0.25470  0.58890  Biso   1.000  C
  C133     1.0000 0.61841  0.24530  0.08890  Biso   1.000  C
  C134     1.0000 0.11841  0.74530  0.08890  Biso   1.000  C
  C135     1.0000 0.38159  0.24530  0.41110  Biso   1.000  C
  C136     1.0000 0.88159  0.74530  0.41110  Biso   1.000  C
  C137     1.0000 0.39430  0.69520  0.84920  Biso   1.000  C
  C138     1.0000 0.89430  0.19520  0.84920  Biso   1.000  C
  C139     1.0000 0.60570  0.69520  0.65080  Biso   1.000  C
  C140     1.0000 0.10570  0.19520  0.65080  Biso   1.000  C
  C141     1.0000 0.60570  0.30480  0.15080  Biso   1.000  C
  C142     1.0000 0.10570  0.80480  0.15080  Biso   1.000  C
  C143     1.0000 0.39430  0.30480  0.34920  Biso   1.000  C
  C144     1.0000 0.89430  0.80480  0.34920  Biso   1.000  C
  C145     1.0000 0.39181  0.60250  0.84850  Biso   1.000  C
  C146     1.0000 0.89181  0.10250  0.84850  Biso   1.000  C
  C147     1.0000 0.60819  0.60250  0.65150  Biso   1.000  C
  C148     1.0000 0.10819  0.10250  0.65150  Biso   1.000  C
  C149     1.0000 0.60819  0.39750  0.15150  Biso   1.000  C
  C150     1.0000 0.10819  0.89750  0.15150  Biso   1.000  C
  C151     1.0000 0.39181  0.39750  0.34850  Biso   1.000  C
  C152     1.0000 0.89181  0.89750  0.34850  Biso   1.000  C
  H97      1.0000 0.38220  0.57220  0.88980  Biso   1.000  H
  H98      1.0000 0.88220  0.07220  0.88980  Biso   1.000  H
  H99      1.0000 0.61780  0.57220  0.61020  Biso   1.000  H
  H100     1.0000 0.11780  0.07220  0.61020  Biso   1.000  H
  H101     1.0000 0.61780  0.42780  0.11020  Biso   1.000  H
  H102     1.0000 0.11780  0.92780  0.11020  Biso   1.000  H
  H103     1.0000 0.38220  0.42780  0.38980  Biso   1.000  H
  H104     1.0000 0.88220  0.92780  0.38980  Biso   1.000  H
  C153     1.0000 0.40385  0.55600  0.78580  Biso   1.000  C
  C154     1.0000 0.90385  0.05600  0.78580  Biso   1.000  C
  C155     1.0000 0.59615  0.55600  0.71420  Biso   1.000  C
  C156     1.0000 0.09615  0.05600  0.71420  Biso   1.000  C
  C157     1.0000 0.59615  0.44400  0.21420  Biso   1.000  C
  C158     1.0000 0.09615  0.94400  0.21420  Biso   1.000  C
  C159     1.0000 0.40385  0.44400  0.28580  Biso   1.000  C
  C160     1.0000 0.90385  0.94400  0.28580  Biso   1.000  C
  H105     1.0000 0.40280  0.49380  0.78510  Biso   1.000  H
  H106     1.0000 0.90280  0.99380  0.78510  Biso   1.000  H
  H107     1.0000 0.59720  0.49380  0.71490  Biso   1.000  H
  H108     1.0000 0.09720  0.99380  0.71490  Biso   1.000  H
  H109     1.0000 0.59720  0.50620  0.21490  Biso   1.000  H
  H110     1.0000 0.09720  0.00620  0.21490  Biso   1.000  H
  H111     1.0000 0.40280  0.50620  0.28510  Biso   1.000  H
  H112     1.0000 0.90280  0.00620  0.28510  Biso   1.000  H
  C161     1.0000 0.41731  0.60070  0.72460  Biso   1.000  C
  C162     1.0000 0.91731  0.10070  0.72460  Biso   1.000  C
  C163     1.0000 0.58269  0.60070  0.77540  Biso   1.000  C
  C164     1.0000 0.08269  0.10070  0.77540  Biso   1.000  C
  C165     1.0000 0.58269  0.39930  0.27540  Biso   1.000  C
  C166     1.0000 0.08269  0.89930  0.27540  Biso   1.000  C
  C167     1.0000 0.41731  0.39930  0.22460  Biso   1.000  C
  C168     1.0000 0.91731  0.89930  0.22460  Biso   1.000  C
  H113     1.0000 0.42660  0.56950  0.68340  Biso   1.000  H
  H114     1.0000 0.92660  0.06950  0.68340  Biso   1.000  H
  H115     1.0000 0.57340  0.56950  0.81660  Biso   1.000  H
  H116     1.0000 0.07340  0.06950  0.81660  Biso   1.000  H
  H117     1.0000 0.57340  0.43050  0.31660  Biso   1.000  H
  H118     1.0000 0.07340  0.93050  0.31660  Biso   1.000  H
  H119     1.0000 0.42660  0.43050  0.18340  Biso   1.000  H
  H120     1.0000 0.92660  0.93050  0.18340  Biso   1.000  H
  C169     1.0000 0.41684  0.69270  0.72500  Biso   1.000  C
  C170     1.0000 0.91684  0.19270  0.72500  Biso   1.000  C
  C171     1.0000 0.58316  0.69270  0.77500  Biso   1.000  C
  C172     1.0000 0.08316  0.19270  0.77500  Biso   1.000  C
  C173     1.0000 0.58316  0.30730  0.27500  Biso   1.000  C
  C174     1.0000 0.08316  0.80730  0.27500  Biso   1.000  C
  C175     1.0000 0.41684  0.30730  0.22500  Biso   1.000  C
  C176     1.0000 0.91684  0.80730  0.22500  Biso   1.000  C
  H121     1.0000 0.42540  0.72360  0.68280  Biso   1.000  H
  H122     1.0000 0.92540  0.22360  0.68280  Biso   1.000  H
  H123     1.0000 0.57460  0.72360  0.81720  Biso   1.000  H
  H124     1.0000 0.07460  0.22360  0.81720  Biso   1.000  H
  H125     1.0000 0.57460  0.27640  0.31720  Biso   1.000  H
  H126     1.0000 0.07460  0.77640  0.31720  Biso   1.000  H
  H127     1.0000 0.42540  0.27640  0.18280  Biso   1.000  H
  H128     1.0000 0.92540  0.77640  0.18280  Biso   1.000  H
  C177     1.0000 0.25169  0.93010  0.72270  Biso   1.000  C
  C178     1.0000 0.75169  0.43010  0.72270  Biso   1.000  C
  C179     1.0000 0.74831  0.93010  0.77730  Biso   1.000  C
  C180     1.0000 0.24831  0.43010  0.77730  Biso   1.000  C
  C181     1.0000 0.74831  0.06990  0.27730  Biso   1.000  C
  C182     1.0000 0.24831  0.56990  0.27730  Biso   1.000  C
  C183     1.0000 0.25169  0.06990  0.22270  Biso   1.000  C
  C184     1.0000 0.75169  0.56990  0.22270  Biso   1.000  C
  H129     1.0000 0.23880  0.92290  0.65780  Biso   1.000  H
  H130     1.0000 0.73880  0.42290  0.65780  Biso   1.000  H
  H131     1.0000 0.76120  0.92290  0.84220  Biso   1.000  H
  H132     1.0000 0.26120  0.42290  0.84220  Biso   1.000  H
  H133     1.0000 0.76120  0.07710  0.34220  Biso   1.000  H
  H134     1.0000 0.26120  0.57710  0.34220  Biso   1.000  H
  H135     1.0000 0.23880  0.07710  0.15780  Biso   1.000  H
  H136     1.0000 0.73880  0.57710  0.15780  Biso   1.000  H
  H137     1.0000 0.22540  0.96930  0.73280  Biso   1.000  H
  H138     1.0000 0.72540  0.46930  0.73280  Biso   1.000  H
  H139     1.0000 0.77460  0.96930  0.76720  Biso   1.000  H
  H140     1.0000 0.27460  0.46930  0.76720  Biso   1.000  H
  H141     1.0000 0.77460  0.03070  0.26720  Biso   1.000  H
  H142     1.0000 0.27460  0.53070  0.26720  Biso   1.000  H
  H143     1.0000 0.22540  0.03070  0.23280  Biso   1.000  H
  H144     1.0000 0.72540  0.53070  0.23280  Biso   1.000  H
  H145     1.0000 0.25220  0.87290  0.74990  Biso   1.000  H
  H146     1.0000 0.75220  0.37290  0.74990  Biso   1.000  H
  H147     1.0000 0.74780  0.87290  0.75010  Biso   1.000  H
  H148     1.0000 0.24780  0.37290  0.75010  Biso   1.000  H
  H149     1.0000 0.74780  0.12710  0.25010  Biso   1.000  H
  H150     1.0000 0.24780  0.62710  0.25010  Biso   1.000  H
  H151     1.0000 0.25220  0.12710  0.24990  Biso   1.000  H
  H152     1.0000 0.75220  0.62710  0.24990  Biso   1.000  H
  Cl1      1.0000 0.40762  0.36540  0.97382  Biso   1.000  Cl
  Cl2      1.0000 0.90762  0.86540  0.97382  Biso   1.000  Cl
  Cl3      1.0000 0.59238  0.36540  0.52618  Biso   1.000  Cl
  Cl4      1.0000 0.09238  0.86540  0.52618  Biso   1.000  Cl
  Cl5      1.0000 0.59238  0.63460  0.02618  Biso   1.000  Cl
  Cl6      1.0000 0.09238  0.13460  0.02618  Biso   1.000  Cl
  Cl7      1.0000 0.40762  0.63460  0.47382  Biso   1.000  Cl
  Cl8      1.0000 0.90762  0.13460  0.47382  Biso   1.000  Cl
  O9       1.0000 0.39390  0.44950  0.00080  Biso   1.000  O
  O10      1.0000 0.89390  0.94950  0.00080  Biso   1.000  O
  O11      1.0000 0.60610  0.44950  0.49920  Biso   1.000  O
  O12      1.0000 0.10610  0.94950  0.49920  Biso   1.000  O
  O13      1.0000 0.60610  0.55050  0.99920  Biso   1.000  O
  O14      1.0000 0.10610  0.05050  0.99920  Biso   1.000  O
  O15      1.0000 0.39390  0.55050  0.50080  Biso   1.000  O
  O16      1.0000 0.89390  0.05050  0.50080  Biso   1.000  O
  O17      1.0000 0.42680  0.37020  0.90450  Biso   1.000  O
  O18      1.0000 0.92680  0.87020  0.90450  Biso   1.000  O
  O19      1.0000 0.57320  0.37020  0.59550  Biso   1.000  O
  O20      1.0000 0.07320  0.87020  0.59550  Biso   1.000  O
  O21      1.0000 0.57320  0.62980  0.09550  Biso   1.000  O
  O22      1.0000 0.07320  0.12980  0.09550  Biso   1.000  O
  O23      1.0000 0.42680  0.62980  0.40450  Biso   1.000  O
  O24      1.0000 0.92680  0.12980  0.40450  Biso   1.000  O
  O25      1.0000 0.36010  0.30070  0.95470  Biso   1.000  O
  O26      1.0000 0.86010  0.80070  0.95470  Biso   1.000  O
  O27      1.0000 0.63990  0.30070  0.54530  Biso   1.000  O
  O28      1.0000 0.13990  0.80070  0.54530  Biso   1.000  O
  O29      1.0000 0.63990  0.69930  0.04530  Biso   1.000  O
  O30      1.0000 0.13990  0.19930  0.04530  Biso   1.000  O
  O31      1.0000 0.36010  0.69930  0.45470  Biso   1.000  O
  O32      1.0000 0.86010  0.19930  0.45470  Biso   1.000  O
  O33      1.0000 0.45590  0.32630  0.05120  Biso   1.000  O
  O34      1.0000 0.95590  0.82630  0.05120  Biso   1.000  O
  O35      1.0000 0.54410  0.32630  0.44880  Biso   1.000  O
  O36      1.0000 0.04410  0.82630  0.44880  Biso   1.000  O
  O37      1.0000 0.54410  0.67370  0.94880  Biso   1.000  O
  O38      1.0000 0.04410  0.17370  0.94880  Biso   1.000  O
  O39      1.0000 0.45590  0.67370  0.55120  Biso   1.000  O
  O40      1.0000 0.95590  0.17370  0.55120  Biso   1.000  O
  O41      1.0000 0.39450  0.35300  0.88100  Biso   1.000  O
  O42      1.0000 0.89450  0.85300  0.88100  Biso   1.000  O
  O43      1.0000 0.60550  0.35300  0.61900  Biso   1.000  O
  O44      1.0000 0.10550  0.85300  0.61900  Biso   1.000  O
  O45      1.0000 0.60550  0.64700  0.11900  Biso   1.000  O
  O46      1.0000 0.10550  0.14700  0.11900  Biso   1.000  O
  O47      1.0000 0.39450  0.64700  0.38100  Biso   1.000  O
  O48      1.0000 0.89450  0.14700  0.38100  Biso   1.000  O
  O49      1.0000 0.39250  0.29240  0.01120  Biso   1.000  O
  O50      1.0000 0.89250  0.79240  0.01120  Biso   1.000  O
  O51      1.0000 0.60750  0.29240  0.48880  Biso   1.000  O
  O52      1.0000 0.10750  0.79240  0.48880  Biso   1.000  O
  O53      1.0000 0.60750  0.70760  0.98880  Biso   1.000  O
  O54      1.0000 0.10750  0.20760  0.98880  Biso   1.000  O
  O55      1.0000 0.39250  0.70760  0.51120  Biso   1.000  O
  O56      1.0000 0.89250  0.20760  0.51120  Biso   1.000  O
  O57      1.0000 0.46440  0.38770  0.02790  Biso   1.000  O
  O58      1.0000 0.96440  0.88770  0.02790  Biso   1.000  O
  O59      1.0000 0.53560  0.38770  0.47210  Biso   1.000  O
  O60      1.0000 0.03560  0.88770  0.47210  Biso   1.000  O
  O61      1.0000 0.53560  0.61230  0.97210  Biso   1.000  O
  O62      1.0000 0.03560  0.11230  0.97210  Biso   1.000  O
  O63      1.0000 0.46440  0.61230  0.52790  Biso   1.000  O
  O64      1.0000 0.96440  0.11230  0.52790  Biso   1.000  O
  O65      1.0000 0.37080  0.43840  0.97260  Biso   1.000  O
  O66      1.0000 0.87080  0.93840  0.97260  Biso   1.000  O
  O67      1.0000 0.62920  0.43840  0.52740  Biso   1.000  O
  O68      1.0000 0.12920  0.93840  0.52740  Biso   1.000  O
  O69      1.0000 0.62920  0.56160  0.02740  Biso   1.000  O
  O70      1.0000 0.12920  0.06160  0.02740  Biso   1.000  O
  O71      1.0000 0.37080  0.56160  0.47260  Biso   1.000  O
  O72      1.0000 0.87080  0.06160  0.47260  Biso   1.000  O
