data_image0
_cell_length_a       9.3613
_cell_length_b       9.8773
_cell_length_c       15.2023
_cell_angle_alpha    102.502
_cell_angle_beta     90.314
_cell_angle_gamma    105.945

_symmetry_space_group_name_H-M    "P 1"
_symmetry_int_tables_number       1

loop_
  _symmetry_equiv_pos_as_xyz
  'x, y, z'

loop_
  _atom_site_label
  _atom_site_occupancy
  _atom_site_fract_x
  _atom_site_fract_y
  _atom_site_fract_z
  _atom_site_thermal_displace_type
  _atom_site_B_iso_or_equiv
  _atom_site_type_symbol
  Cu1      1.0000 0.50000  0.50000  0.00000  Biso   1.000  Cu
  O1       1.0000 0.14170  0.27170  0.37249  Biso   1.000  O
  O2       1.0000 0.85830  0.72830  0.62751  Biso   1.000  O
  O3       1.0000 0.25798  0.10144  0.32127  Biso   1.000  O
  O4       1.0000 0.74202  0.89856  0.67873  Biso   1.000  O
  O5       1.0000 0.15109  0.71321  0.28838  Biso   1.000  O
  O6       1.0000 0.84891  0.28679  0.71162  Biso   1.000  O
  O7       1.0000 0.02782  0.87426  0.34911  Biso   1.000  O
  O8       1.0000 0.97218  0.12574  0.65089  Biso   1.000  O
  O9       1.0000 0.41350  0.70360  0.06050  Biso   1.000  O
  O10      1.0000 0.58650  0.29640  0.93950  Biso   1.000  O
  O11      1.0000 0.44550  0.92900  0.07750  Biso   1.000  O
  O12      1.0000 0.55450  0.07100  0.92250  Biso   1.000  O
  O13      1.0000 0.23430  0.79230  0.09801  Biso   1.000  O
  O14      1.0000 0.76570  0.20770  0.90199  Biso   1.000  O
  N1       1.0000 0.38100  0.39740  0.09365  Biso   1.000  N
  N2       1.0000 0.61900  0.60260  0.90635  Biso   1.000  N
  N3       1.0000 0.67640  0.58120  0.09157  Biso   1.000  N
  N4       1.0000 0.32360  0.41880  0.90843  Biso   1.000  N
  N5       1.0000 0.36400  0.81000  0.07896  Biso   1.000  N
  N6       1.0000 0.63600  0.19000  0.92104  Biso   1.000  N
  C1       1.0000 0.30150  0.46100  0.15446  Biso   1.000  C
  C2       1.0000 0.69850  0.53900  0.84554  Biso   1.000  C
  H1       1.0000 0.28710  0.54830  0.14880  Biso   1.000  H
  H2       1.0000 0.71290  0.45170  0.85120  Biso   1.000  H
  C3       1.0000 0.24030  0.40160  0.22498  Biso   1.000  C
  C4       1.0000 0.75970  0.59840  0.77502  Biso   1.000  C
  H3       1.0000 0.18560  0.44810  0.26560  Biso   1.000  H
  H4       1.0000 0.81440  0.55190  0.73440  Biso   1.000  H
  C5       1.0000 0.26170  0.27230  0.23411  Biso   1.000  C
  C6       1.0000 0.73830  0.72770  0.76589  Biso   1.000  C
  C7       1.0000 0.33760  0.20310  0.17001  Biso   1.000  C
  C8       1.0000 0.66240  0.79690  0.82999  Biso   1.000  C
  H5       1.0000 0.34970  0.11390  0.17300  Biso   1.000  H
  H6       1.0000 0.65030  0.88610  0.82700  Biso   1.000  H
  C9       1.0000 0.39510  0.26870  0.10129  Biso   1.000  C
  C10      1.0000 0.60490  0.73130  0.89871  Biso   1.000  C
  H7       1.0000 0.44610  0.22150  0.05830  Biso   1.000  H
  H8       1.0000 0.55390  0.77850  0.94170  Biso   1.000  H
  C11      1.0000 0.21000  0.21680  0.31606  Biso   1.000  C
  C12      1.0000 0.79000  0.78320  0.68394  Biso   1.000  C
  C13      1.0000 0.25420  0.06270  0.40511  Biso   1.000  C
  C14      1.0000 0.74580  0.93730  0.59489  Biso   1.000  C
  C15      1.0000 0.36550  0.13470  0.47007  Biso   1.000  C
  C16      1.0000 0.63450  0.86530  0.52993  Biso   1.000  C
  H9       1.0000 0.43770  0.21580  0.46140  Biso   1.000  H
  H10      1.0000 0.56230  0.78420  0.53860  Biso   1.000  H
  C17      1.0000 0.37230  0.08670  0.55083  Biso   1.000  C
  C18      1.0000 0.62770  0.91330  0.44917  Biso   1.000  C
  C19      1.0000 0.49240  0.15200  0.61734  Biso   1.000  C
  C20      1.0000 0.50760  0.84800  0.38266  Biso   1.000  C
  H11      1.0000 0.56720  0.23220  0.60990  Biso   1.000  H
  H12      1.0000 0.43280  0.76780  0.39010  Biso   1.000  H
  C21      1.0000 0.49930  0.09840  0.69219  Biso   1.000  C
  C22      1.0000 0.50070  0.90160  0.30781  Biso   1.000  C
  H13      1.0000 0.58010  0.14060  0.73460  Biso   1.000  H
  H14      1.0000 0.41990  0.85940  0.26540  Biso   1.000  H
  C23      1.0000 0.38500  0.97940  0.70581  Biso   1.000  C
  C24      1.0000 0.61500  0.02060  0.29419  Biso   1.000  C
  H15      1.0000 0.39020  0.94450  0.75750  Biso   1.000  H
  H16      1.0000 0.60980  0.05550  0.24250  Biso   1.000  H
  C25      1.0000 0.26680  0.91480  0.64362  Biso   1.000  C
  C26      1.0000 0.73320  0.08520  0.35638  Biso   1.000  C
  H17      1.0000 0.19120  0.83740  0.65380  Biso   1.000  H
  H18      1.0000 0.80880  0.16260  0.34620  Biso   1.000  H
  C27      1.0000 0.25830  0.96480  0.56360  Biso   1.000  C
  C28      1.0000 0.74170  0.03520  0.43640  Biso   1.000  C
  C29      1.0000 0.14220  0.89420  0.49498  Biso   1.000  C
  C30      1.0000 0.85780  0.10580  0.50502  Biso   1.000  C
  H19      1.0000 0.06600  0.81560  0.50300  Biso   1.000  H
  H20      1.0000 0.93400  0.18440  0.49700  Biso   1.000  H
  C31      1.0000 0.14260  0.94180  0.41743  Biso   1.000  C
  C32      1.0000 0.85740  0.05820  0.58257  Biso   1.000  C
  C33      1.0000 0.04540  0.75910  0.28757  Biso   1.000  C
  C34      1.0000 0.95460  0.24090  0.71243  Biso   1.000  C
  C35      1.0000 0.80610  0.54960  0.07736  Biso   1.000  C
  C36      1.0000 0.19390  0.45040  0.92264  Biso   1.000  C
  H21      1.0000 0.81490  0.48790  0.02330  Biso   1.000  H
  H22      1.0000 0.18510  0.51210  0.97670  Biso   1.000  H
  C37      1.0000 0.92680  0.60510  0.13982  Biso   1.000  C
  C38      1.0000 0.07320  0.39490  0.86018  Biso   1.000  C
  H23      1.0000 0.01480  0.58030  0.12830  Biso   1.000  H
  H24      1.0000 0.98520  0.41970  0.87170  Biso   1.000  H
  C39      1.0000 0.91500  0.69830  0.22004  Biso   1.000  C
  C40      1.0000 0.08500  0.30170  0.77996  Biso   1.000  C
  C41      1.0000 0.78210  0.73010  0.23518  Biso   1.000  C
  C42      1.0000 0.21790  0.26990  0.76482  Biso   1.000  C
  H25      1.0000 0.77060  0.79130  0.28880  Biso   1.000  H
  H26      1.0000 0.22940  0.20870  0.71120  Biso   1.000  H
  C43      1.0000 0.66590  0.67010  0.16982  Biso   1.000  C
  C44      1.0000 0.33410  0.32990  0.83018  Biso   1.000  C
  H27      1.0000 0.57630  0.69230  0.18060  Biso   1.000  H
  H28      1.0000 0.42370  0.30770  0.81940  Biso   1.000  H
  Cl1      1.0000 0.10571  0.50701  0.60918  Biso   1.000  Cl
  Cl2      1.0000 0.89429  0.49299  0.39082  Biso   1.000  Cl
  Cl3      1.0000 0.42250  0.53223  0.62798  Biso   1.000  Cl
  Cl4      1.0000 0.57750  0.46777  0.37202  Biso   1.000  Cl
  C45      1.0000 0.26720  0.50620  0.55790  Biso   1.000  C
  C46      1.0000 0.73280  0.49380  0.44210  Biso   1.000  C
  H29      1.0000 0.28830  0.58120  0.52390  Biso   1.000  H
  H30      1.0000 0.71170  0.41880  0.47610  Biso   1.000  H
  H31      1.0000 0.25120  0.41430  0.51490  Biso   1.000  H
  H32      1.0000 0.74880  0.58570  0.48510  Biso   1.000  H
  Cl5      1.0000 0.93814  0.98215  0.11210  Biso   1.000  Cl
  Cl6      1.0000 0.06186  0.01785  0.88790  Biso   1.000  Cl
  Cl7      1.0000 0.82918  0.23559  0.14180  Biso   1.000  Cl
  Cl8      1.0000 0.17082  0.76441  0.85820  Biso   1.000  Cl
  C47      1.0000 0.81320  0.06320  0.07310  Biso   1.000  C
  C48      1.0000 0.18680  0.93680  0.92690  Biso   1.000  C
  H33      1.0000 0.71230  0.00210  0.07250  Biso   1.000  H
  H34      1.0000 0.28770  0.99790  0.92750  Biso   1.000  H
  H35      1.0000 0.83280  0.07190  0.01170  Biso   1.000  H
  H36      1.0000 0.16720  0.92810  0.98830  Biso   1.000  H
