data_image0
_cell_length_a       12.8148
_cell_length_b       7.8527
_cell_length_c       15.78
_cell_angle_alpha    90
_cell_angle_beta     102.347
_cell_angle_gamma    90

_symmetry_space_group_name_H-M    "P 1"
_symmetry_int_tables_number       1

loop_
  _symmetry_equiv_pos_as_xyz
  'x, y, z'

loop_
  _atom_site_label
  _atom_site_occupancy
  _atom_site_fract_x
  _atom_site_fract_y
  _atom_site_fract_z
  _atom_site_thermal_displace_type
  _atom_site_B_iso_or_equiv
  _atom_site_type_symbol
  N1       1.0000 0.97925  0.42230  0.34734  Biso   1.000  N
  N2       1.0000 0.52075  0.92230  0.65266  Biso   1.000  N
  N3       1.0000 0.02075  0.57770  0.65266  Biso   1.000  N
  N4       1.0000 0.47925  0.07770  0.34734  Biso   1.000  N
  C1       1.0000 0.94657  0.28840  0.35672  Biso   1.000  C
  C2       1.0000 0.55343  0.78840  0.64328  Biso   1.000  C
  C3       1.0000 0.05343  0.71160  0.64328  Biso   1.000  C
  C4       1.0000 0.44657  0.21160  0.35672  Biso   1.000  C
  N5       1.0000 0.90237  0.14440  0.37180  Biso   1.000  N
  N6       1.0000 0.59763  0.64440  0.62820  Biso   1.000  N
  N7       1.0000 0.09763  0.85560  0.62820  Biso   1.000  N
  N8       1.0000 0.40237  0.35560  0.37180  Biso   1.000  N
  C5       1.0000 0.93715  0.99680  0.34956  Biso   1.000  C
  C6       1.0000 0.56285  0.49680  0.65044  Biso   1.000  C
  C7       1.0000 0.06285  0.00320  0.65044  Biso   1.000  C
  C8       1.0000 0.43715  0.50320  0.34956  Biso   1.000  C
  N9       1.0000 0.95800  0.86150  0.33145  Biso   1.000  N
  N10      1.0000 0.54200  0.36150  0.66855  Biso   1.000  N
  N11      1.0000 0.04200  0.13850  0.66855  Biso   1.000  N
  N12      1.0000 0.45800  0.63850  0.33145  Biso   1.000  N
  Cu1      1.0000 0.02574  0.60176  0.27247  Biso   1.000  Cu
  Cu2      1.0000 0.47426  0.10176  0.72753  Biso   1.000  Cu
  Cu3      1.0000 0.97426  0.39824  0.72753  Biso   1.000  Cu
  Cu4      1.0000 0.52574  0.89824  0.27247  Biso   1.000  Cu
  O1       1.0000 0.90563  0.54656  0.18371  Biso   1.000  O
  O2       1.0000 0.59437  0.04656  0.81629  Biso   1.000  O
  O3       1.0000 0.09437  0.45344  0.81629  Biso   1.000  O
  O4       1.0000 0.40563  0.95344  0.18371  Biso   1.000  O
  N13      1.0000 0.09244  0.72210  0.19063  Biso   1.000  N
  N14      1.0000 0.40756  0.22210  0.80937  Biso   1.000  N
  N15      1.0000 0.90756  0.27790  0.80937  Biso   1.000  N
  N16      1.0000 0.59244  0.77790  0.19063  Biso   1.000  N
  N17      1.0000 0.16914  0.64470  0.35726  Biso   1.000  N
  N18      1.0000 0.33086  0.14470  0.64274  Biso   1.000  N
  N19      1.0000 0.83086  0.35530  0.64274  Biso   1.000  N
  N20      1.0000 0.66914  0.85530  0.35726  Biso   1.000  N
  H1       1.0000 0.21600  0.55300  0.35600  Biso   1.000  H
  H2       1.0000 0.28400  0.05300  0.64400  Biso   1.000  H
  H3       1.0000 0.78400  0.44700  0.64400  Biso   1.000  H
  H4       1.0000 0.71600  0.94700  0.35600  Biso   1.000  H
  C9       1.0000 0.20105  0.78210  0.22815  Biso   1.000  C
  C10      1.0000 0.29895  0.28210  0.77185  Biso   1.000  C
  C11      1.0000 0.79895  0.21790  0.77185  Biso   1.000  C
  C12      1.0000 0.70105  0.71790  0.22815  Biso   1.000  C
  H5       1.0000 0.21410  0.89260  0.20190  Biso   1.000  H
  H6       1.0000 0.28590  0.39260  0.79810  Biso   1.000  H
  H7       1.0000 0.78590  0.10740  0.79810  Biso   1.000  H
  H8       1.0000 0.71410  0.60740  0.20190  Biso   1.000  H
  H9       1.0000 0.25420  0.69890  0.21630  Biso   1.000  H
  H10      1.0000 0.24580  0.19890  0.78370  Biso   1.000  H
  H11      1.0000 0.74580  0.30110  0.78370  Biso   1.000  H
  H12      1.0000 0.75420  0.80110  0.21630  Biso   1.000  H
  C13      1.0000 0.95590  0.67890  0.06037  Biso   1.000  C
  C14      1.0000 0.54410  0.17890  0.93963  Biso   1.000  C
  C15      1.0000 0.04410  0.32110  0.93963  Biso   1.000  C
  C16      1.0000 0.45590  0.82110  0.06037  Biso   1.000  C
  C17      1.0000 0.05604  0.74100  0.10867  Biso   1.000  C
  C18      1.0000 0.44396  0.24100  0.89133  Biso   1.000  C
  C19      1.0000 0.94396  0.25900  0.89133  Biso   1.000  C
  C20      1.0000 0.55604  0.75900  0.10867  Biso   1.000  C
  H13      1.0000 0.09970  0.80170  0.07730  Biso   1.000  H
  H14      1.0000 0.40030  0.30170  0.92270  Biso   1.000  H
  H15      1.0000 0.90030  0.19830  0.92270  Biso   1.000  H
  H16      1.0000 0.59970  0.69830  0.07730  Biso   1.000  H
  C21      1.0000 0.92586  0.70840  0.96753  Biso   1.000  C
  C22      1.0000 0.57414  0.20840  0.03247  Biso   1.000  C
  C23      1.0000 0.07414  0.29160  0.03247  Biso   1.000  C
  C24      1.0000 0.42586  0.79160  0.96753  Biso   1.000  C
  C25      1.0000 0.98583  0.81310  0.92178  Biso   1.000  C
  C26      1.0000 0.51417  0.31310  0.07822  Biso   1.000  C
  C27      1.0000 0.01417  0.18690  0.07822  Biso   1.000  C
  C28      1.0000 0.48583  0.68690  0.92178  Biso   1.000  C
  H17      1.0000 0.04910  0.86650  0.95270  Biso   1.000  H
  H18      1.0000 0.45090  0.36650  0.04730  Biso   1.000  H
  H19      1.0000 0.95090  0.13350  0.04730  Biso   1.000  H
  H20      1.0000 0.54910  0.63350  0.95270  Biso   1.000  H
  C29      1.0000 0.83182  0.63260  0.91804  Biso   1.000  C
  C30      1.0000 0.66818  0.13260  0.08196  Biso   1.000  C
  C31      1.0000 0.16818  0.36740  0.08196  Biso   1.000  C
  C32      1.0000 0.33182  0.86740  0.91804  Biso   1.000  C
  C33      1.0000 0.88900  0.57910  0.10138  Biso   1.000  C
  C34      1.0000 0.61100  0.07910  0.89862  Biso   1.000  C
  C35      1.0000 0.11100  0.42090  0.89862  Biso   1.000  C
  C36      1.0000 0.38900  0.92090  0.10138  Biso   1.000  C
  C37      1.0000 0.79480  0.50430  0.04815  Biso   1.000  C
  C38      1.0000 0.70520  0.00430  0.95185  Biso   1.000  C
  C39      1.0000 0.20520  0.49570  0.95185  Biso   1.000  C
  C40      1.0000 0.29480  0.99570  0.04815  Biso   1.000  C
  H21      1.0000 0.74970  0.43620  0.07480  Biso   1.000  H
  H22      1.0000 0.75030  0.93620  0.92520  Biso   1.000  H
  H23      1.0000 0.25030  0.56380  0.92520  Biso   1.000  H
  H24      1.0000 0.24970  0.06380  0.07480  Biso   1.000  H
  C41      1.0000 0.80049  0.66340  0.82845  Biso   1.000  C
  C42      1.0000 0.69951  0.16340  0.17155  Biso   1.000  C
  C43      1.0000 0.19951  0.33660  0.17155  Biso   1.000  C
  C44      1.0000 0.30049  0.83660  0.82845  Biso   1.000  C
  H25      1.0000 0.73650  0.61350  0.79650  Biso   1.000  H
  H26      1.0000 0.76350  0.11350  0.20350  Biso   1.000  H
  H27      1.0000 0.26350  0.38650  0.20350  Biso   1.000  H
  H28      1.0000 0.23650  0.88650  0.79650  Biso   1.000  H
  C45      1.0000 0.86060  0.76430  0.78631  Biso   1.000  C
  C46      1.0000 0.63940  0.26430  0.21369  Biso   1.000  C
  C47      1.0000 0.13940  0.23570  0.21369  Biso   1.000  C
  C48      1.0000 0.36060  0.73570  0.78631  Biso   1.000  C
  H29      1.0000 0.83900  0.78340  0.72560  Biso   1.000  H
  H30      1.0000 0.66100  0.28340  0.27440  Biso   1.000  H
  H31      1.0000 0.16100  0.21660  0.27440  Biso   1.000  H
  H32      1.0000 0.33900  0.71660  0.72560  Biso   1.000  H
  C49      1.0000 0.76879  0.52830  0.96145  Biso   1.000  C
  C50      1.0000 0.73121  0.02830  0.03855  Biso   1.000  C
  C51      1.0000 0.23121  0.47170  0.03855  Biso   1.000  C
  C52      1.0000 0.26879  0.97170  0.96145  Biso   1.000  C
  H33      1.0000 0.70690  0.47420  0.92860  Biso   1.000  H
  H34      1.0000 0.79310  0.97420  0.07140  Biso   1.000  H
  H35      1.0000 0.29310  0.52580  0.07140  Biso   1.000  H
  H36      1.0000 0.20690  0.02580  0.92860  Biso   1.000  H
  C53      1.0000 0.21174  0.80230  0.32418  Biso   1.000  C
  C54      1.0000 0.28826  0.30230  0.67582  Biso   1.000  C
  C55      1.0000 0.78826  0.19770  0.67582  Biso   1.000  C
  C56      1.0000 0.71174  0.69770  0.32418  Biso   1.000  C
  H37      1.0000 0.28770  0.81860  0.35290  Biso   1.000  H
  H38      1.0000 0.21230  0.31860  0.64710  Biso   1.000  H
  H39      1.0000 0.71230  0.18140  0.64710  Biso   1.000  H
  H40      1.0000 0.78770  0.68140  0.35290  Biso   1.000  H
  H41      1.0000 0.17080  0.90290  0.33650  Biso   1.000  H
  H42      1.0000 0.32920  0.40290  0.66350  Biso   1.000  H
  H43      1.0000 0.82920  0.09710  0.66350  Biso   1.000  H
  H44      1.0000 0.67080  0.59710  0.33650  Biso   1.000  H
  C57      1.0000 0.16780  0.65430  0.45065  Biso   1.000  C
  C58      1.0000 0.33220  0.15430  0.54935  Biso   1.000  C
  C59      1.0000 0.83220  0.34570  0.54935  Biso   1.000  C
  C60      1.0000 0.66780  0.84570  0.45065  Biso   1.000  C
  H45      1.0000 0.12970  0.55350  0.46660  Biso   1.000  H
  H46      1.0000 0.37030  0.05350  0.53340  Biso   1.000  H
  H47      1.0000 0.87030  0.44650  0.53340  Biso   1.000  H
  H48      1.0000 0.62970  0.94650  0.46660  Biso   1.000  H
  H49      1.0000 0.12730  0.75680  0.46100  Biso   1.000  H
  H50      1.0000 0.37270  0.25680  0.53900  Biso   1.000  H
  H51      1.0000 0.87270  0.24320  0.53900  Biso   1.000  H
  H52      1.0000 0.62730  0.74320  0.46100  Biso   1.000  H
  C61      1.0000 0.27920  0.66170  0.50918  Biso   1.000  C
  C62      1.0000 0.22080  0.16170  0.49082  Biso   1.000  C
  C63      1.0000 0.72080  0.33830  0.49082  Biso   1.000  C
  C64      1.0000 0.77920  0.83830  0.50918  Biso   1.000  C
  H53      1.0000 0.27310  0.66830  0.56990  Biso   1.000  H
  H54      1.0000 0.22690  0.16830  0.43010  Biso   1.000  H
  H55      1.0000 0.72690  0.33170  0.43010  Biso   1.000  H
  H56      1.0000 0.77310  0.83170  0.56990  Biso   1.000  H
  H57      1.0000 0.31690  0.76250  0.49460  Biso   1.000  H
  H58      1.0000 0.18310  0.26250  0.50540  Biso   1.000  H
  H59      1.0000 0.68310  0.23750  0.50540  Biso   1.000  H
  H60      1.0000 0.81690  0.73750  0.49460  Biso   1.000  H
  H61      1.0000 0.31920  0.55900  0.50060  Biso   1.000  H
  H62      1.0000 0.18080  0.05900  0.49940  Biso   1.000  H
  H63      1.0000 0.68080  0.44100  0.49940  Biso   1.000  H
  H64      1.0000 0.81920  0.94100  0.50060  Biso   1.000  H
  C65      1.0000 0.95420  0.83860  0.83401  Biso   1.000  C
  C66      1.0000 0.54580  0.33860  0.16599  Biso   1.000  C
  C67      1.0000 0.04580  0.16140  0.16599  Biso   1.000  C
  C68      1.0000 0.45420  0.66140  0.83401  Biso   1.000  C
  H65      1.0000 0.99650  0.90780  0.80510  Biso   1.000  H
  H66      1.0000 0.50350  0.40780  0.19490  Biso   1.000  H
  H67      1.0000 0.00350  0.09220  0.19490  Biso   1.000  H
  H68      1.0000 0.49650  0.59220  0.80510  Biso   1.000  H
