data_image0
_cell_length_a       13.2745
_cell_length_b       7.5984
_cell_length_c       15.8854
_cell_angle_alpha    90
_cell_angle_beta     92.252
_cell_angle_gamma    90

_symmetry_space_group_name_H-M    "P 1"
_symmetry_int_tables_number       1

loop_
  _symmetry_equiv_pos_as_xyz
  'x, y, z'

loop_
  _atom_site_label
  _atom_site_occupancy
  _atom_site_fract_x
  _atom_site_fract_y
  _atom_site_fract_z
  _atom_site_thermal_displace_type
  _atom_site_B_iso_or_equiv
  _atom_site_type_symbol
  N1       1.0000 0.18624  0.00570  0.35633  Biso   1.000  N
  N2       1.0000 0.31376  0.50570  0.64367  Biso   1.000  N
  N3       1.0000 0.81376  0.99430  0.64367  Biso   1.000  N
  N4       1.0000 0.68624  0.49430  0.35633  Biso   1.000  N
  C1       1.0000 0.06751  0.29680  0.46008  Biso   1.000  C
  C2       1.0000 0.43249  0.79680  0.53992  Biso   1.000  C
  C3       1.0000 0.93249  0.70320  0.53992  Biso   1.000  C
  C4       1.0000 0.56751  0.20320  0.46008  Biso   1.000  C
  H1       1.0000 0.10960  0.40090  0.45180  Biso   1.000  H
  H2       1.0000 0.39040  0.90090  0.54820  Biso   1.000  H
  H3       1.0000 0.89040  0.59910  0.54820  Biso   1.000  H
  H4       1.0000 0.60960  0.09910  0.45180  Biso   1.000  H
  H5       1.0000 0.10970  0.19940  0.48130  Biso   1.000  H
  H6       1.0000 0.39030  0.69940  0.51870  Biso   1.000  H
  H7       1.0000 0.89030  0.80060  0.51870  Biso   1.000  H
  H8       1.0000 0.60970  0.30060  0.48130  Biso   1.000  H
  H9       1.0000 0.01630  0.32390  0.50090  Biso   1.000  H
  H10      1.0000 0.48370  0.82390  0.49910  Biso   1.000  H
  H11      1.0000 0.98370  0.67610  0.49910  Biso   1.000  H
  H12      1.0000 0.51630  0.17610  0.50090  Biso   1.000  H
  C5       1.0000 0.95470  0.08860  0.39325  Biso   1.000  C
  C6       1.0000 0.54530  0.58860  0.60675  Biso   1.000  C
  C7       1.0000 0.04530  0.91140  0.60675  Biso   1.000  C
  C8       1.0000 0.45470  0.41140  0.39325  Biso   1.000  C
  H13      1.0000 0.99730  0.99330  0.41600  Biso   1.000  H
  H14      1.0000 0.50270  0.49330  0.58400  Biso   1.000  H
  H15      1.0000 0.00270  0.00670  0.58400  Biso   1.000  H
  H16      1.0000 0.49730  0.50670  0.41600  Biso   1.000  H
  H17      1.0000 0.92220  0.05110  0.33980  Biso   1.000  H
  H18      1.0000 0.57780  0.55110  0.66020  Biso   1.000  H
  H19      1.0000 0.07780  0.94890  0.66020  Biso   1.000  H
  H20      1.0000 0.42220  0.44890  0.33980  Biso   1.000  H
  H21      1.0000 0.90300  0.11740  0.43340  Biso   1.000  H
  H22      1.0000 0.59700  0.61740  0.56660  Biso   1.000  H
  H23      1.0000 0.09700  0.88260  0.56660  Biso   1.000  H
  H24      1.0000 0.40300  0.38260  0.43340  Biso   1.000  H
  C9       1.0000 0.21857  0.86610  0.36024  Biso   1.000  C
  C10      1.0000 0.28143  0.36610  0.63976  Biso   1.000  C
  C11      1.0000 0.78143  0.13390  0.63976  Biso   1.000  C
  C12      1.0000 0.71857  0.63390  0.36024  Biso   1.000  C
  N5       1.0000 0.27170  0.72170  0.36200  Biso   1.000  N
  N6       1.0000 0.22830  0.22170  0.63800  Biso   1.000  N
  N7       1.0000 0.72830  0.27830  0.63800  Biso   1.000  N
  N8       1.0000 0.77170  0.77830  0.36200  Biso   1.000  N
  C13      1.0000 0.22779  0.57210  0.33741  Biso   1.000  C
  C14      1.0000 0.27221  0.07210  0.66259  Biso   1.000  C
  C15      1.0000 0.77221  0.42790  0.66259  Biso   1.000  C
  C16      1.0000 0.72779  0.92790  0.33741  Biso   1.000  C
  N9       1.0000 0.20490  0.43730  0.31106  Biso   1.000  N
  N10      1.0000 0.29510  0.93730  0.68894  Biso   1.000  N
  N11      1.0000 0.79510  0.56270  0.68894  Biso   1.000  N
  N12      1.0000 0.70490  0.06270  0.31106  Biso   1.000  N
  Cu1      1.0000 0.11349  0.18648  0.28328  Biso   1.000  Cu
  Cu2      1.0000 0.38650  0.68648  0.71672  Biso   1.000  Cu
  Cu3      1.0000 0.88650  0.81352  0.71672  Biso   1.000  Cu
  Cu4      1.0000 0.61350  0.31352  0.28328  Biso   1.000  Cu
  O1       1.0000 0.18637  0.10430  0.19037  Biso   1.000  O
  O2       1.0000 0.31363  0.60430  0.80963  Biso   1.000  O
  O3       1.0000 0.81363  0.89570  0.80963  Biso   1.000  O
  O4       1.0000 0.68637  0.39570  0.19037  Biso   1.000  O
  C17      1.0000 0.07477  0.19960  0.07605  Biso   1.000  C
  C18      1.0000 0.42523  0.69960  0.92395  Biso   1.000  C
  C19      1.0000 0.92523  0.80040  0.92395  Biso   1.000  C
  C20      1.0000 0.57477  0.30040  0.07605  Biso   1.000  C
  N13      1.0000 0.01753  0.24600  0.37896  Biso   1.000  N
  N14      1.0000 0.48247  0.74600  0.62104  Biso   1.000  N
  N15      1.0000 0.98247  0.75400  0.62104  Biso   1.000  N
  N16      1.0000 0.51753  0.25400  0.37896  Biso   1.000  N
  N17      1.0000 0.00603  0.27970  0.21068  Biso   1.000  N
  N18      1.0000 0.49397  0.77970  0.78932  Biso   1.000  N
  N19      1.0000 0.99397  0.72030  0.78932  Biso   1.000  N
  N20      1.0000 0.50603  0.22030  0.21068  Biso   1.000  N
  C21      1.0000 0.00095  0.27290  0.12915  Biso   1.000  C
  C22      1.0000 0.49905  0.77290  0.87085  Biso   1.000  C
  C23      1.0000 0.99905  0.72710  0.87085  Biso   1.000  C
  C24      1.0000 0.50095  0.22710  0.12915  Biso   1.000  C
  H25      1.0000 0.94240  0.32150  0.10190  Biso   1.000  H
  H26      1.0000 0.55760  0.82150  0.89810  Biso   1.000  H
  H27      1.0000 0.05760  0.67850  0.89810  Biso   1.000  H
  H28      1.0000 0.44240  0.17850  0.10190  Biso   1.000  H
  C25      1.0000 0.05684  0.20340  0.98485  Biso   1.000  C
  C26      1.0000 0.44316  0.70340  0.01515  Biso   1.000  C
  C27      1.0000 0.94316  0.79660  0.01515  Biso   1.000  C
  C28      1.0000 0.55684  0.29660  0.98485  Biso   1.000  C
  C29      1.0000 0.22793  0.02760  0.05470  Biso   1.000  C
  C30      1.0000 0.27207  0.52760  0.94530  Biso   1.000  C
  C31      1.0000 0.77207  0.97240  0.94530  Biso   1.000  C
  C32      1.0000 0.72793  0.47240  0.05470  Biso   1.000  C
  H29      1.0000 0.28560  0.96780  0.07760  Biso   1.000  H
  H30      1.0000 0.21440  0.46780  0.92240  Biso   1.000  H
  H31      1.0000 0.71440  0.03220  0.92240  Biso   1.000  H
  H32      1.0000 0.78560  0.53220  0.07760  Biso   1.000  H
  C33      1.0000 0.16107  0.11370  0.11075  Biso   1.000  C
  C34      1.0000 0.33893  0.61370  0.88925  Biso   1.000  C
  C35      1.0000 0.83893  0.88630  0.88925  Biso   1.000  C
  C36      1.0000 0.66107  0.38630  0.11075  Biso   1.000  C
  C37      1.0000 0.95810  0.28690  0.85823  Biso   1.000  C
  C38      1.0000 0.54190  0.78690  0.14177  Biso   1.000  C
  C39      1.0000 0.04190  0.71310  0.14177  Biso   1.000  C
  C40      1.0000 0.45810  0.21310  0.85823  Biso   1.000  C
  H33      1.0000 0.90060  0.34320  0.83300  Biso   1.000  H
  H34      1.0000 0.59940  0.84320  0.16700  Biso   1.000  H
  H35      1.0000 0.09940  0.65680  0.16700  Biso   1.000  H
  H36      1.0000 0.40060  0.15680  0.83300  Biso   1.000  H
  C41      1.0000 0.12594  0.11890  0.93243  Biso   1.000  C
  C42      1.0000 0.37406  0.61890  0.06757  Biso   1.000  C
  C43      1.0000 0.87406  0.88110  0.06757  Biso   1.000  C
  C44      1.0000 0.62594  0.38110  0.93243  Biso   1.000  C
  C45      1.0000 0.91945  0.35080  0.25452  Biso   1.000  C
  C46      1.0000 0.58055  0.85080  0.74548  Biso   1.000  C
  C47      1.0000 0.08055  0.64920  0.74548  Biso   1.000  C
  C48      1.0000 0.41945  0.14920  0.25452  Biso   1.000  C
  H37      1.0000 0.86430  0.26320  0.25450  Biso   1.000  H
  H38      1.0000 0.63570  0.76320  0.74550  Biso   1.000  H
  H39      1.0000 0.13570  0.73680  0.74550  Biso   1.000  H
  H40      1.0000 0.36430  0.23680  0.25450  Biso   1.000  H
  H41      1.0000 0.89400  0.45860  0.22590  Biso   1.000  H
  H42      1.0000 0.60600  0.95860  0.77410  Biso   1.000  H
  H43      1.0000 0.10600  0.54140  0.77410  Biso   1.000  H
  H44      1.0000 0.39400  0.04140  0.22590  Biso   1.000  H
  C49      1.0000 0.97258  0.28800  0.94456  Biso   1.000  C
  C50      1.0000 0.52742  0.78800  0.05544  Biso   1.000  C
  C51      1.0000 0.02742  0.71200  0.05544  Biso   1.000  C
  C52      1.0000 0.47258  0.21200  0.94456  Biso   1.000  C
  H45      1.0000 0.92510  0.34660  0.97790  Biso   1.000  H
  H46      1.0000 0.57490  0.84660  0.02210  Biso   1.000  H
  H47      1.0000 0.07490  0.65340  0.02210  Biso   1.000  H
  H48      1.0000 0.42510  0.15340  0.97790  Biso   1.000  H
  C53      1.0000 0.10990  0.12250  0.84386  Biso   1.000  C
  C54      1.0000 0.39010  0.62250  0.15614  Biso   1.000  C
  C55      1.0000 0.89010  0.87750  0.15614  Biso   1.000  C
  C56      1.0000 0.60990  0.37750  0.84386  Biso   1.000  C
  H49      1.0000 0.15740  0.06750  0.80920  Biso   1.000  H
  H50      1.0000 0.34260  0.56750  0.19080  Biso   1.000  H
  H51      1.0000 0.84260  0.93250  0.19080  Biso   1.000  H
  H52      1.0000 0.65740  0.43250  0.80920  Biso   1.000  H
  C57      1.0000 0.95506  0.39290  0.34414  Biso   1.000  C
  C58      1.0000 0.54494  0.89290  0.65586  Biso   1.000  C
  C59      1.0000 0.04494  0.60710  0.65586  Biso   1.000  C
  C60      1.0000 0.45506  0.10710  0.34414  Biso   1.000  C
  H53      1.0000 0.99520  0.50280  0.34490  Biso   1.000  H
  H54      1.0000 0.50480  0.00280  0.65510  Biso   1.000  H
  H55      1.0000 0.00480  0.49720  0.65510  Biso   1.000  H
  H56      1.0000 0.49520  0.99720  0.34490  Biso   1.000  H
  H57      1.0000 0.89610  0.41120  0.37940  Biso   1.000  H
  H58      1.0000 0.60390  0.91120  0.62060  Biso   1.000  H
  H59      1.0000 0.10390  0.58880  0.62060  Biso   1.000  H
  H60      1.0000 0.39610  0.08880  0.37940  Biso   1.000  H
  C61      1.0000 0.21069  0.02990  0.97005  Biso   1.000  C
  C62      1.0000 0.28931  0.52990  0.02995  Biso   1.000  C
  C63      1.0000 0.78931  0.97010  0.02995  Biso   1.000  C
  C64      1.0000 0.71069  0.47010  0.97005  Biso   1.000  C
  H61      1.0000 0.25620  0.97080  0.93500  Biso   1.000  H
  H62      1.0000 0.24380  0.47080  0.06500  Biso   1.000  H
  H63      1.0000 0.74380  0.02920  0.06500  Biso   1.000  H
  H64      1.0000 0.75620  0.52920  0.93500  Biso   1.000  H
  C65      1.0000 0.02750  0.20350  0.80710  Biso   1.000  C
  C66      1.0000 0.47250  0.70350  0.19290  Biso   1.000  C
  C67      1.0000 0.97250  0.79650  0.19290  Biso   1.000  C
  C68      1.0000 0.52750  0.29650  0.80710  Biso   1.000  C
  H65      1.0000 0.01720  0.20330  0.74760  Biso   1.000  H
  H66      1.0000 0.48280  0.70330  0.25240  Biso   1.000  H
  H67      1.0000 0.98280  0.79670  0.25240  Biso   1.000  H
  H68      1.0000 0.51720  0.29670  0.74760  Biso   1.000  H
  N21      1.0000 0.24830  0.70800  0.38760  Biso   1.000  N
  N22      1.0000 0.25170  0.20800  0.61240  Biso   1.000  N
  N23      1.0000 0.75170  0.29200  0.61240  Biso   1.000  N
  N24      1.0000 0.74830  0.79200  0.38760  Biso   1.000  N
