data_image0
_cell_length_a       26.6
_cell_length_b       8.425
_cell_length_c       17.357
_cell_angle_alpha    90
_cell_angle_beta     114.437
_cell_angle_gamma    90

_symmetry_space_group_name_H-M    "P 1"
_symmetry_int_tables_number       1

loop_
  _symmetry_equiv_pos_as_xyz
  'x, y, z'

loop_
  _atom_site_label
  _atom_site_occupancy
  _atom_site_fract_x
  _atom_site_fract_y
  _atom_site_fract_z
  _atom_site_thermal_displace_type
  _atom_site_B_iso_or_equiv
  _atom_site_type_symbol
  Br1      1.0000 0.81709  0.73816  0.64856  Biso   1.000  Br
  Br2      1.0000 0.31709  0.23816  0.64856  Biso   1.000  Br
  Br3      1.0000 0.18291  0.73816  0.85144  Biso   1.000  Br
  Br4      1.0000 0.68291  0.23816  0.85144  Biso   1.000  Br
  Br5      1.0000 0.18291  0.26184  0.35144  Biso   1.000  Br
  Br6      1.0000 0.68291  0.76184  0.35144  Biso   1.000  Br
  Br7      1.0000 0.81709  0.26184  0.14856  Biso   1.000  Br
  Br8      1.0000 0.31709  0.76184  0.14856  Biso   1.000  Br
  Cu1      1.0000 0.75000  0.75000  0.50000  Biso   1.000  Cu
  Cu2      1.0000 0.25000  0.25000  0.50000  Biso   1.000  Cu
  Cu3      1.0000 0.25000  0.75000  0.00000  Biso   1.000  Cu
  Cu4      1.0000 0.75000  0.25000  0.00000  Biso   1.000  Cu
  S1       1.0000 0.50640  0.64100  0.58984  Biso   1.000  S
  S2       1.0000 0.00640  0.14100  0.58984  Biso   1.000  S
  S3       1.0000 0.49360  0.64100  0.91016  Biso   1.000  S
  S4       1.0000 0.99360  0.14100  0.91016  Biso   1.000  S
  S5       1.0000 0.49360  0.35900  0.41016  Biso   1.000  S
  S6       1.0000 0.99360  0.85900  0.41016  Biso   1.000  S
  S7       1.0000 0.50640  0.35900  0.08984  Biso   1.000  S
  S8       1.0000 0.00640  0.85900  0.08984  Biso   1.000  S
  F1       1.0000 0.56470  0.04590  0.69860  Biso   1.000  F
  F2       1.0000 0.06470  0.54590  0.69860  Biso   1.000  F
  F3       1.0000 0.43530  0.04590  0.80140  Biso   1.000  F
  F4       1.0000 0.93530  0.54590  0.80140  Biso   1.000  F
  F5       1.0000 0.43530  0.95410  0.30140  Biso   1.000  F
  F6       1.0000 0.93530  0.45410  0.30140  Biso   1.000  F
  F7       1.0000 0.56470  0.95410  0.19860  Biso   1.000  F
  F8       1.0000 0.06470  0.45410  0.19860  Biso   1.000  F
  F9       1.0000 0.47970  0.05060  0.61220  Biso   1.000  F
  F10      1.0000 0.97970  0.55060  0.61220  Biso   1.000  F
  F11      1.0000 0.52030  0.05060  0.88780  Biso   1.000  F
  F12      1.0000 0.02030  0.55060  0.88780  Biso   1.000  F
  F13      1.0000 0.52030  0.94940  0.38780  Biso   1.000  F
  F14      1.0000 0.02030  0.44940  0.38780  Biso   1.000  F
  F15      1.0000 0.47970  0.94940  0.11220  Biso   1.000  F
  F16      1.0000 0.97970  0.44940  0.11220  Biso   1.000  F
  F17      1.0000 0.43630  0.93220  0.67890  Biso   1.000  F
  F18      1.0000 0.93630  0.43220  0.67890  Biso   1.000  F
  F19      1.0000 0.56370  0.93220  0.82110  Biso   1.000  F
  F20      1.0000 0.06370  0.43220  0.82110  Biso   1.000  F
  F21      1.0000 0.56370  0.06780  0.32110  Biso   1.000  F
  F22      1.0000 0.06370  0.56780  0.32110  Biso   1.000  F
  F23      1.0000 0.43630  0.06780  0.17890  Biso   1.000  F
  F24      1.0000 0.93630  0.56780  0.17890  Biso   1.000  F
  F25      1.0000 0.50000  0.83720  0.75000  Biso   1.000  F
  F26      1.0000 0.00000  0.33720  0.75000  Biso   1.000  F
  F27      1.0000 0.50000  0.16280  0.25000  Biso   1.000  F
  F28      1.0000 0.00000  0.66280  0.25000  Biso   1.000  F
  O1       1.0000 0.73200  0.04230  0.52520  Biso   1.000  O
  O2       1.0000 0.23200  0.54230  0.52520  Biso   1.000  O
  O3       1.0000 0.26800  0.04230  0.97480  Biso   1.000  O
  O4       1.0000 0.76800  0.54230  0.97480  Biso   1.000  O
  O5       1.0000 0.26800  0.95770  0.47480  Biso   1.000  O
  O6       1.0000 0.76800  0.45770  0.47480  Biso   1.000  O
  O7       1.0000 0.73200  0.95770  0.02520  Biso   1.000  O
  O8       1.0000 0.23200  0.45770  0.02520  Biso   1.000  O
  N1       1.0000 0.69080  0.68260  0.53440  Biso   1.000  N
  N2       1.0000 0.19080  0.18260  0.53440  Biso   1.000  N
  N3       1.0000 0.30920  0.68260  0.96560  Biso   1.000  N
  N4       1.0000 0.80920  0.18260  0.96560  Biso   1.000  N
  N5       1.0000 0.30920  0.31740  0.46560  Biso   1.000  N
  N6       1.0000 0.80920  0.81740  0.46560  Biso   1.000  N
  N7       1.0000 0.69080  0.31740  0.03440  Biso   1.000  N
  N8       1.0000 0.19080  0.81740  0.03440  Biso   1.000  N
  N9       1.0000 0.77360  0.17070  0.65050  Biso   1.000  N
  N10      1.0000 0.27360  0.67070  0.65050  Biso   1.000  N
  N11      1.0000 0.22640  0.17070  0.84950  Biso   1.000  N
  N12      1.0000 0.72640  0.67070  0.84950  Biso   1.000  N
  N13      1.0000 0.22640  0.82930  0.34950  Biso   1.000  N
  N14      1.0000 0.72640  0.32930  0.34950  Biso   1.000  N
  N15      1.0000 0.77360  0.82930  0.15050  Biso   1.000  N
  N16      1.0000 0.27360  0.32930  0.15050  Biso   1.000  N
  C1       1.0000 0.69480  0.54580  0.57500  Biso   1.000  C
  C2       1.0000 0.19480  0.04580  0.57500  Biso   1.000  C
  C3       1.0000 0.30520  0.54580  0.92500  Biso   1.000  C
  C4       1.0000 0.80520  0.04580  0.92500  Biso   1.000  C
  C5       1.0000 0.30520  0.45420  0.42500  Biso   1.000  C
  C6       1.0000 0.80520  0.95420  0.42500  Biso   1.000  C
  C7       1.0000 0.69480  0.45420  0.07500  Biso   1.000  C
  C8       1.0000 0.19480  0.95420  0.07500  Biso   1.000  C
  C9       1.0000 0.65490  0.49200  0.60080  Biso   1.000  C
  C10      1.0000 0.15490  0.99200  0.60080  Biso   1.000  C
  C11      1.0000 0.34510  0.49200  0.89920  Biso   1.000  C
  C12      1.0000 0.84510  0.99200  0.89920  Biso   1.000  C
  C13      1.0000 0.34510  0.50800  0.39920  Biso   1.000  C
  C14      1.0000 0.84510  0.00800  0.39920  Biso   1.000  C
  C15      1.0000 0.65490  0.50800  0.10080  Biso   1.000  C
  C16      1.0000 0.15490  0.00800  0.10080  Biso   1.000  C
  C17      1.0000 0.60870  0.58570  0.58570  Biso   1.000  C
  C18      1.0000 0.10870  0.08570  0.58570  Biso   1.000  C
  C19      1.0000 0.39130  0.58570  0.91430  Biso   1.000  C
  C20      1.0000 0.89130  0.08570  0.91430  Biso   1.000  C
  C21      1.0000 0.39130  0.41430  0.41430  Biso   1.000  C
  C22      1.0000 0.89130  0.91430  0.41430  Biso   1.000  C
  C23      1.0000 0.60870  0.41430  0.08570  Biso   1.000  C
  C24      1.0000 0.10870  0.91430  0.08570  Biso   1.000  C
  C25      1.0000 0.60460  0.72940  0.54360  Biso   1.000  C
  C26      1.0000 0.10460  0.22940  0.54360  Biso   1.000  C
  C27      1.0000 0.39540  0.72940  0.95640  Biso   1.000  C
  C28      1.0000 0.89540  0.22940  0.95640  Biso   1.000  C
  C29      1.0000 0.39540  0.27060  0.45640  Biso   1.000  C
  C30      1.0000 0.89540  0.77060  0.45640  Biso   1.000  C
  C31      1.0000 0.60460  0.27060  0.04360  Biso   1.000  C
  C32      1.0000 0.10460  0.77060  0.04360  Biso   1.000  C
  C33      1.0000 0.64580  0.77390  0.51860  Biso   1.000  C
  C34      1.0000 0.14580  0.27390  0.51860  Biso   1.000  C
  C35      1.0000 0.35420  0.77390  0.98140  Biso   1.000  C
  C36      1.0000 0.85420  0.27390  0.98140  Biso   1.000  C
  C37      1.0000 0.35420  0.22610  0.48140  Biso   1.000  C
  C38      1.0000 0.85420  0.72610  0.48140  Biso   1.000  C
  C39      1.0000 0.64580  0.22610  0.01860  Biso   1.000  C
  C40      1.0000 0.14580  0.72610  0.01860  Biso   1.000  C
  C41      1.0000 0.56620  0.53230  0.61290  Biso   1.000  C
  C42      1.0000 0.06620  0.03230  0.61290  Biso   1.000  C
  C43      1.0000 0.43380  0.53230  0.88710  Biso   1.000  C
  C44      1.0000 0.93380  0.03230  0.88710  Biso   1.000  C
  C45      1.0000 0.43380  0.46770  0.38710  Biso   1.000  C
  C46      1.0000 0.93380  0.96770  0.38710  Biso   1.000  C
  C47      1.0000 0.56620  0.46770  0.11290  Biso   1.000  C
  C48      1.0000 0.06620  0.96770  0.11290  Biso   1.000  C
  C49      1.0000 0.56580  0.39720  0.65670  Biso   1.000  C
  C50      1.0000 0.06580  0.89720  0.65670  Biso   1.000  C
  C51      1.0000 0.43420  0.39720  0.84330  Biso   1.000  C
  C52      1.0000 0.93420  0.89720  0.84330  Biso   1.000  C
  C53      1.0000 0.43420  0.60280  0.34330  Biso   1.000  C
  C54      1.0000 0.93420  0.10280  0.34330  Biso   1.000  C
  C55      1.0000 0.56580  0.60280  0.15670  Biso   1.000  C
  C56      1.0000 0.06580  0.10280  0.15670  Biso   1.000  C
  C57      1.0000 0.51710  0.38220  0.67150  Biso   1.000  C
  C58      1.0000 0.01710  0.88220  0.67150  Biso   1.000  C
  C59      1.0000 0.48290  0.38220  0.82850  Biso   1.000  C
  C60      1.0000 0.98290  0.88220  0.82850  Biso   1.000  C
  C61      1.0000 0.48290  0.61780  0.32850  Biso   1.000  C
  C62      1.0000 0.98290  0.11780  0.32850  Biso   1.000  C
  C63      1.0000 0.51710  0.61780  0.17150  Biso   1.000  C
  C64      1.0000 0.01710  0.11780  0.17150  Biso   1.000  C
  C65      1.0000 0.48070  0.50610  0.63860  Biso   1.000  C
  C66      1.0000 0.98070  0.00610  0.63860  Biso   1.000  C
  C67      1.0000 0.51930  0.50610  0.86140  Biso   1.000  C
  C68      1.0000 0.01930  0.00610  0.86140  Biso   1.000  C
  C69      1.0000 0.51930  0.49390  0.36140  Biso   1.000  C
  C70      1.0000 0.01930  0.99390  0.36140  Biso   1.000  C
  C71      1.0000 0.48070  0.49390  0.13860  Biso   1.000  C
  C72      1.0000 0.98070  0.99390  0.13860  Biso   1.000  C
  C73      1.0000 0.42540  0.53320  0.64030  Biso   1.000  C
  C74      1.0000 0.92540  0.03320  0.64030  Biso   1.000  C
  C75      1.0000 0.57460  0.53320  0.85970  Biso   1.000  C
  C76      1.0000 0.07460  0.03320  0.85970  Biso   1.000  C
  C77      1.0000 0.57460  0.46680  0.35970  Biso   1.000  C
  C78      1.0000 0.07460  0.96680  0.35970  Biso   1.000  C
  C79      1.0000 0.42540  0.46680  0.14030  Biso   1.000  C
  C80      1.0000 0.92540  0.96680  0.14030  Biso   1.000  C
  C81      1.0000 0.50800  0.24670  0.71800  Biso   1.000  C
  C82      1.0000 0.00800  0.74670  0.71800  Biso   1.000  C
  C83      1.0000 0.49200  0.24670  0.78200  Biso   1.000  C
  C84      1.0000 0.99200  0.74670  0.78200  Biso   1.000  C
  C85      1.0000 0.49200  0.75330  0.28200  Biso   1.000  C
  C86      1.0000 0.99200  0.25330  0.28200  Biso   1.000  C
  C87      1.0000 0.50800  0.75330  0.21800  Biso   1.000  C
  C88      1.0000 0.00800  0.25330  0.21800  Biso   1.000  C
  C89      1.0000 0.51420  0.07950  0.69210  Biso   1.000  C
  C90      1.0000 0.01420  0.57950  0.69210  Biso   1.000  C
  C91      1.0000 0.48580  0.07950  0.80790  Biso   1.000  C
  C92      1.0000 0.98580  0.57950  0.80790  Biso   1.000  C
  C93      1.0000 0.48580  0.92050  0.30790  Biso   1.000  C
  C94      1.0000 0.98580  0.42050  0.30790  Biso   1.000  C
  C95      1.0000 0.51420  0.92050  0.19210  Biso   1.000  C
  C96      1.0000 0.01420  0.42050  0.19210  Biso   1.000  C
  C97      1.0000 0.50000  0.97300  0.75000  Biso   1.000  C
  C98      1.0000 0.00000  0.47300  0.75000  Biso   1.000  C
  C99      1.0000 0.50000  0.02700  0.25000  Biso   1.000  C
  C100     1.0000 0.00000  0.52700  0.25000  Biso   1.000  C
  C101     1.0000 0.76890  0.12750  0.57360  Biso   1.000  C
  C102     1.0000 0.26890  0.62750  0.57360  Biso   1.000  C
  C103     1.0000 0.23110  0.12750  0.92640  Biso   1.000  C
  C104     1.0000 0.73110  0.62750  0.92640  Biso   1.000  C
  C105     1.0000 0.23110  0.87250  0.42640  Biso   1.000  C
  C106     1.0000 0.73110  0.37250  0.42640  Biso   1.000  C
  C107     1.0000 0.76890  0.87250  0.07360  Biso   1.000  C
  C108     1.0000 0.26890  0.37250  0.07360  Biso   1.000  C
  C109     1.0000 0.73830  0.10200  0.68530  Biso   1.000  C
  C110     1.0000 0.23830  0.60200  0.68530  Biso   1.000  C
  C111     1.0000 0.26170  0.10200  0.81470  Biso   1.000  C
  C112     1.0000 0.76170  0.60200  0.81470  Biso   1.000  C
  C113     1.0000 0.26170  0.89800  0.31470  Biso   1.000  C
  C114     1.0000 0.76170  0.39800  0.31470  Biso   1.000  C
  C115     1.0000 0.73830  0.89800  0.18530  Biso   1.000  C
  C116     1.0000 0.23830  0.39800  0.18530  Biso   1.000  C
  C117     1.0000 0.82180  0.26610  0.70390  Biso   1.000  C
  C118     1.0000 0.32180  0.76610  0.70390  Biso   1.000  C
  C119     1.0000 0.17820  0.26610  0.79610  Biso   1.000  C
  C120     1.0000 0.67820  0.76610  0.79610  Biso   1.000  C
  C121     1.0000 0.17820  0.73390  0.29610  Biso   1.000  C
  C122     1.0000 0.67820  0.23390  0.29610  Biso   1.000  C
  C123     1.0000 0.82180  0.73390  0.20390  Biso   1.000  C
  C124     1.0000 0.32180  0.23390  0.20390  Biso   1.000  C
  H1       1.0000 0.72660  0.48200  0.58700  Biso   1.000  H
  H2       1.0000 0.22660  0.98200  0.58700  Biso   1.000  H
  H3       1.0000 0.27340  0.48200  0.91300  Biso   1.000  H
  H4       1.0000 0.77340  0.98200  0.91300  Biso   1.000  H
  H5       1.0000 0.27340  0.51800  0.41300  Biso   1.000  H
  H6       1.0000 0.77340  0.01800  0.41300  Biso   1.000  H
  H7       1.0000 0.72660  0.51800  0.08700  Biso   1.000  H
  H8       1.0000 0.22660  0.01800  0.08700  Biso   1.000  H
  H9       1.0000 0.65900  0.39240  0.62850  Biso   1.000  H
  H10      1.0000 0.15900  0.89240  0.62850  Biso   1.000  H
  H11      1.0000 0.34100  0.39240  0.87150  Biso   1.000  H
  H12      1.0000 0.84100  0.89240  0.87150  Biso   1.000  H
  H13      1.0000 0.34100  0.60760  0.37150  Biso   1.000  H
  H14      1.0000 0.84100  0.10760  0.37150  Biso   1.000  H
  H15      1.0000 0.65900  0.60760  0.12850  Biso   1.000  H
  H16      1.0000 0.15900  0.10760  0.12850  Biso   1.000  H
  H17      1.0000 0.57370  0.79680  0.53220  Biso   1.000  H
  H18      1.0000 0.07370  0.29680  0.53220  Biso   1.000  H
  H19      1.0000 0.42630  0.79680  0.96780  Biso   1.000  H
  H20      1.0000 0.92630  0.29680  0.96780  Biso   1.000  H
  H21      1.0000 0.42630  0.20320  0.46780  Biso   1.000  H
  H22      1.0000 0.92630  0.70320  0.46780  Biso   1.000  H
  H23      1.0000 0.57370  0.20320  0.03220  Biso   1.000  H
  H24      1.0000 0.07370  0.70320  0.03220  Biso   1.000  H
  H25      1.0000 0.64230  0.87150  0.48940  Biso   1.000  H
  H26      1.0000 0.14230  0.37150  0.48940  Biso   1.000  H
  H27      1.0000 0.35770  0.87150  0.01060  Biso   1.000  H
  H28      1.0000 0.85770  0.37150  0.01060  Biso   1.000  H
  H29      1.0000 0.35770  0.12850  0.51060  Biso   1.000  H
  H30      1.0000 0.85770  0.62850  0.51060  Biso   1.000  H
  H31      1.0000 0.64230  0.12850  0.98940  Biso   1.000  H
  H32      1.0000 0.14230  0.62850  0.98940  Biso   1.000  H
  H33      1.0000 0.59490  0.32160  0.67520  Biso   1.000  H
  H34      1.0000 0.09490  0.82160  0.67520  Biso   1.000  H
  H35      1.0000 0.40510  0.32160  0.82480  Biso   1.000  H
  H36      1.0000 0.90510  0.82160  0.82480  Biso   1.000  H
  H37      1.0000 0.40510  0.67840  0.32480  Biso   1.000  H
  H38      1.0000 0.90510  0.17840  0.32480  Biso   1.000  H
  H39      1.0000 0.59490  0.67840  0.17520  Biso   1.000  H
  H40      1.0000 0.09490  0.17840  0.17520  Biso   1.000  H
  H41      1.0000 0.40140  0.44810  0.61230  Biso   1.000  H
  H42      1.0000 0.90140  0.94810  0.61230  Biso   1.000  H
  H43      1.0000 0.59860  0.44810  0.88770  Biso   1.000  H
  H44      1.0000 0.09860  0.94810  0.88770  Biso   1.000  H
  H45      1.0000 0.59860  0.55190  0.38770  Biso   1.000  H
  H46      1.0000 0.09860  0.05190  0.38770  Biso   1.000  H
  H47      1.0000 0.40140  0.55190  0.11230  Biso   1.000  H
  H48      1.0000 0.90140  0.05190  0.11230  Biso   1.000  H
  H49      1.0000 0.42970  0.53870  0.69730  Biso   1.000  H
  H50      1.0000 0.92970  0.03870  0.69730  Biso   1.000  H
  H51      1.0000 0.57030  0.53870  0.80270  Biso   1.000  H
  H52      1.0000 0.07030  0.03870  0.80270  Biso   1.000  H
  H53      1.0000 0.57030  0.46130  0.30270  Biso   1.000  H
  H54      1.0000 0.07030  0.96130  0.30270  Biso   1.000  H
  H55      1.0000 0.42970  0.46130  0.19730  Biso   1.000  H
  H56      1.0000 0.92970  0.96130  0.19730  Biso   1.000  H
  H57      1.0000 0.41030  0.63010  0.61230  Biso   1.000  H
  H58      1.0000 0.91030  0.13010  0.61230  Biso   1.000  H
  H59      1.0000 0.58970  0.63010  0.88770  Biso   1.000  H
  H60      1.0000 0.08970  0.13010  0.88770  Biso   1.000  H
  H61      1.0000 0.58970  0.36990  0.38770  Biso   1.000  H
  H62      1.0000 0.08970  0.86990  0.38770  Biso   1.000  H
  H63      1.0000 0.41030  0.36990  0.11230  Biso   1.000  H
  H64      1.0000 0.91030  0.86990  0.11230  Biso   1.000  H
  H65      1.0000 0.76650  0.22360  0.54370  Biso   1.000  H
  H66      1.0000 0.26650  0.72360  0.54370  Biso   1.000  H
  H67      1.0000 0.23350  0.22360  0.95630  Biso   1.000  H
  H68      1.0000 0.73350  0.72360  0.95630  Biso   1.000  H
  H69      1.0000 0.23350  0.77640  0.45630  Biso   1.000  H
  H70      1.0000 0.73350  0.27640  0.45630  Biso   1.000  H
  H71      1.0000 0.76650  0.77640  0.04370  Biso   1.000  H
  H72      1.0000 0.26650  0.27640  0.04370  Biso   1.000  H
  H73      1.0000 0.74320  0.99000  0.68890  Biso   1.000  H
  H74      1.0000 0.24320  0.49000  0.68890  Biso   1.000  H
  H75      1.0000 0.25680  0.99000  0.81110  Biso   1.000  H
  H76      1.0000 0.75680  0.49000  0.81110  Biso   1.000  H
  H77      1.0000 0.25680  0.01000  0.31110  Biso   1.000  H
  H78      1.0000 0.75680  0.51000  0.31110  Biso   1.000  H
  H79      1.0000 0.74320  0.01000  0.18890  Biso   1.000  H
  H80      1.0000 0.24320  0.51000  0.18890  Biso   1.000  H
  H81      1.0000 0.70090  0.12600  0.64980  Biso   1.000  H
  H82      1.0000 0.20090  0.62600  0.64980  Biso   1.000  H
  H83      1.0000 0.29910  0.12600  0.85020  Biso   1.000  H
  H84      1.0000 0.79910  0.62600  0.85020  Biso   1.000  H
  H85      1.0000 0.29910  0.87400  0.35020  Biso   1.000  H
  H86      1.0000 0.79910  0.37400  0.35020  Biso   1.000  H
  H87      1.0000 0.70090  0.87400  0.14980  Biso   1.000  H
  H88      1.0000 0.20090  0.37400  0.14980  Biso   1.000  H
  H89      1.0000 0.74730  0.14400  0.74020  Biso   1.000  H
  H90      1.0000 0.24730  0.64400  0.74020  Biso   1.000  H
  H91      1.0000 0.25270  0.14400  0.75980  Biso   1.000  H
  H92      1.0000 0.75270  0.64400  0.75980  Biso   1.000  H
  H93      1.0000 0.25270  0.85600  0.25980  Biso   1.000  H
  H94      1.0000 0.75270  0.35600  0.25980  Biso   1.000  H
  H95      1.0000 0.74730  0.85600  0.24020  Biso   1.000  H
  H96      1.0000 0.24730  0.35600  0.24020  Biso   1.000  H
  H97      1.0000 0.85460  0.20920  0.71350  Biso   1.000  H
  H98      1.0000 0.35460  0.70920  0.71350  Biso   1.000  H
  H99      1.0000 0.14540  0.20920  0.78650  Biso   1.000  H
  H100     1.0000 0.64540  0.70920  0.78650  Biso   1.000  H
  H101     1.0000 0.14540  0.79080  0.28650  Biso   1.000  H
  H102     1.0000 0.64540  0.29080  0.28650  Biso   1.000  H
  H103     1.0000 0.85460  0.79080  0.21350  Biso   1.000  H
  H104     1.0000 0.35460  0.29080  0.21350  Biso   1.000  H
  H105     1.0000 0.82160  0.36340  0.67620  Biso   1.000  H
  H106     1.0000 0.32160  0.86340  0.67620  Biso   1.000  H
  H107     1.0000 0.17840  0.36340  0.82380  Biso   1.000  H
  H108     1.0000 0.67840  0.86340  0.82380  Biso   1.000  H
  H109     1.0000 0.17840  0.63660  0.32380  Biso   1.000  H
  H110     1.0000 0.67840  0.13660  0.32380  Biso   1.000  H
  H111     1.0000 0.82160  0.63660  0.17620  Biso   1.000  H
  H112     1.0000 0.32160  0.13660  0.17620  Biso   1.000  H
  H113     1.0000 0.82000  0.28730  0.75650  Biso   1.000  H
  H114     1.0000 0.32000  0.78730  0.75650  Biso   1.000  H
  H115     1.0000 0.18000  0.28730  0.74350  Biso   1.000  H
  H116     1.0000 0.68000  0.78730  0.74350  Biso   1.000  H
  H117     1.0000 0.18000  0.71270  0.24350  Biso   1.000  H
  H118     1.0000 0.68000  0.21270  0.24350  Biso   1.000  H
  H119     1.0000 0.82000  0.71270  0.25650  Biso   1.000  H
  H120     1.0000 0.32000  0.21270  0.25650  Biso   1.000  H
