data_image0
_cell_length_a       13.5122
_cell_length_b       14.0553
_cell_length_c       25.2257
_cell_angle_alpha    90
_cell_angle_beta     90
_cell_angle_gamma    90

_symmetry_space_group_name_H-M    "P 1"
_symmetry_int_tables_number       1

loop_
  _symmetry_equiv_pos_as_xyz
  'x, y, z'

loop_
  _atom_site_label
  _atom_site_occupancy
  _atom_site_fract_x
  _atom_site_fract_y
  _atom_site_fract_z
  _atom_site_thermal_displace_type
  _atom_site_B_iso_or_equiv
  _atom_site_type_symbol
  Cu1      1.0000 0.82909  0.99712  0.05135  Biso   1.000  Cu
  Cu2      1.0000 0.67091  0.00288  0.55135  Biso   1.000  Cu
  Cu3      1.0000 0.17091  0.49712  0.44865  Biso   1.000  Cu
  Cu4      1.0000 0.32909  0.50288  0.94865  Biso   1.000  Cu
  Cu5      1.0000 0.62915  0.44683  0.00753  Biso   1.000  Cu
  Cu6      1.0000 0.87085  0.55317  0.50753  Biso   1.000  Cu
  Cu7      1.0000 0.37085  0.94683  0.49247  Biso   1.000  Cu
  Cu8      1.0000 0.12915  0.05317  0.99247  Biso   1.000  Cu
  S1       1.0000 0.60978  0.80391  0.24338  Biso   1.000  S
  S2       1.0000 0.89022  0.19609  0.74338  Biso   1.000  S
  S3       1.0000 0.39022  0.30391  0.25662  Biso   1.000  S
  S4       1.0000 0.10978  0.69609  0.75662  Biso   1.000  S
  S5       1.0000 0.02233  0.78677  0.18550  Biso   1.000  S
  S6       1.0000 0.47767  0.21323  0.68550  Biso   1.000  S
  S7       1.0000 0.97767  0.28677  0.31450  Biso   1.000  S
  S8       1.0000 0.52233  0.71323  0.81450  Biso   1.000  S
  O1       1.0000 0.81230  0.90970  0.11054  Biso   1.000  O
  O2       1.0000 0.68770  0.09030  0.61054  Biso   1.000  O
  O3       1.0000 0.18770  0.40970  0.38946  Biso   1.000  O
  O4       1.0000 0.31230  0.59030  0.88946  Biso   1.000  O
  O5       1.0000 0.65530  0.95130  0.12223  Biso   1.000  O
  O6       1.0000 0.84470  0.04870  0.62223  Biso   1.000  O
  O7       1.0000 0.34470  0.45130  0.37777  Biso   1.000  O
  O8       1.0000 0.15530  0.54870  0.87777  Biso   1.000  O
  O9       1.0000 0.77350  0.50500  0.06665  Biso   1.000  O
  O10      1.0000 0.72650  0.49500  0.56665  Biso   1.000  O
  O11      1.0000 0.22650  0.00500  0.43335  Biso   1.000  O
  O12      1.0000 0.27350  0.99500  0.93335  Biso   1.000  O
  O13      1.0000 0.61550  0.53880  0.06496  Biso   1.000  O
  O14      1.0000 0.88450  0.46120  0.56496  Biso   1.000  O
  O15      1.0000 0.38450  0.03880  0.43504  Biso   1.000  O
  O16      1.0000 0.11550  0.96120  0.93504  Biso   1.000  O
  O17      1.0000 0.50860  0.78990  0.25790  Biso   1.000  O
  O18      1.0000 0.99140  0.21010  0.75790  Biso   1.000  O
  O19      1.0000 0.49140  0.28990  0.24210  Biso   1.000  O
  O20      1.0000 0.00860  0.71010  0.74210  Biso   1.000  O
  O21      1.0000 0.68350  0.74550  0.26620  Biso   1.000  O
  O22      1.0000 0.81650  0.25450  0.76620  Biso   1.000  O
  O23      1.0000 0.31650  0.24550  0.23380  Biso   1.000  O
  O24      1.0000 0.18350  0.75450  0.73380  Biso   1.000  O
  O25      1.0000 0.99350  0.94920  0.04868  Biso   1.000  O
  O26      1.0000 0.50650  0.05080  0.54868  Biso   1.000  O
  O27      1.0000 0.00650  0.44920  0.45132  Biso   1.000  O
  O28      1.0000 0.49350  0.55080  0.95132  Biso   1.000  O
  O29      1.0000 0.15510  0.95120  0.04149  Biso   1.000  O
  O30      1.0000 0.34490  0.04880  0.54149  Biso   1.000  O
  O31      1.0000 0.84490  0.45120  0.45851  Biso   1.000  O
  O32      1.0000 0.65510  0.54880  0.95851  Biso   1.000  O
  O33      1.0000 0.14310  0.54530  0.00850  Biso   1.000  O
  O34      1.0000 0.35690  0.45470  0.50850  Biso   1.000  O
  O35      1.0000 0.85690  0.04530  0.49150  Biso   1.000  O
  O36      1.0000 0.64310  0.95470  0.99150  Biso   1.000  O
  O37      1.0000 0.29350  0.60250  0.99810  Biso   1.000  O
  O38      1.0000 0.20650  0.39750  0.49810  Biso   1.000  O
  O39      1.0000 0.70650  0.10250  0.50190  Biso   1.000  O
  O40      1.0000 0.79350  0.89750  0.00190  Biso   1.000  O
  O41      1.0000 0.08850  0.70910  0.18878  Biso   1.000  O
  O42      1.0000 0.41150  0.29090  0.68878  Biso   1.000  O
  O43      1.0000 0.91150  0.20910  0.31122  Biso   1.000  O
  O44      1.0000 0.58850  0.79090  0.81122  Biso   1.000  O
  O45      1.0000 0.92920  0.78050  0.21180  Biso   1.000  O
  O46      1.0000 0.57080  0.21950  0.71180  Biso   1.000  O
  O47      1.0000 0.07080  0.28050  0.28820  Biso   1.000  O
  O48      1.0000 0.42920  0.71950  0.78820  Biso   1.000  O
  O49      1.0000 0.41830  0.82090  0.13340  Biso   1.000  O
  O50      1.0000 0.08170  0.17910  0.63340  Biso   1.000  O
  O51      1.0000 0.58170  0.32090  0.36660  Biso   1.000  O
  O52      1.0000 0.91830  0.67910  0.86660  Biso   1.000  O
  O53      1.0000 0.44730  0.66810  0.06600  Biso   1.000  O
  O54      1.0000 0.05270  0.33190  0.56600  Biso   1.000  O
  O55      1.0000 0.55270  0.16810  0.43400  Biso   1.000  O
  O56      1.0000 0.94730  0.83190  0.93400  Biso   1.000  O
  O57      1.0000 0.95180  0.49560  0.01720  Biso   1.000  O
  O58      1.0000 0.54820  0.50440  0.51720  Biso   1.000  O
  O59      1.0000 0.04820  0.99560  0.48280  Biso   1.000  O
  O60      1.0000 0.45180  0.00440  0.98280  Biso   1.000  O
  O61      1.0000 0.88750  0.50640  0.91000  Biso   1.000  O
  O62      1.0000 0.61250  0.49360  0.41000  Biso   1.000  O
  O63      1.0000 0.11250  0.00640  0.59000  Biso   1.000  O
  O64      1.0000 0.38750  0.99360  0.09000  Biso   1.000  O
  N1       1.0000 0.61520  0.79150  0.18037  Biso   1.000  N
  N2       1.0000 0.88480  0.20850  0.68037  Biso   1.000  N
  N3       1.0000 0.38480  0.29150  0.31963  Biso   1.000  N
  N4       1.0000 0.11520  0.70850  0.81963  Biso   1.000  N
  H1       1.0000 0.56130  0.78120  0.16310  Biso   1.000  H
  H2       1.0000 0.93870  0.21880  0.66310  Biso   1.000  H
  H3       1.0000 0.43870  0.28120  0.33690  Biso   1.000  H
  H4       1.0000 0.06130  0.71880  0.83690  Biso   1.000  H
  N5       1.0000 0.00110  0.80720  0.12380  Biso   1.000  N
  N6       1.0000 0.49890  0.19280  0.62380  Biso   1.000  N
  N7       1.0000 0.99890  0.30720  0.37620  Biso   1.000  N
  N8       1.0000 0.50110  0.69280  0.87620  Biso   1.000  N
  H5       1.0000 0.96400  0.83800  0.12200  Biso   1.000  H
  H6       1.0000 0.53600  0.16200  0.62200  Biso   1.000  H
  H7       1.0000 0.03600  0.33800  0.37800  Biso   1.000  H
  H8       1.0000 0.46400  0.66200  0.87800  Biso   1.000  H
  N9       1.0000 0.61250  0.33440  0.05480  Biso   1.000  N
  N10      1.0000 0.88750  0.66560  0.55480  Biso   1.000  N
  N11      1.0000 0.38750  0.83440  0.44520  Biso   1.000  N
  N12      1.0000 0.11250  0.16560  0.94520  Biso   1.000  N
  N13      1.0000 0.62740  0.34490  0.95242  Biso   1.000  N
  N14      1.0000 0.87260  0.65510  0.45242  Biso   1.000  N
  N15      1.0000 0.37260  0.84490  0.54758  Biso   1.000  N
  N16      1.0000 0.12740  0.15510  0.04758  Biso   1.000  N
  N17      1.0000 0.84870  0.09700  0.99474  Biso   1.000  N
  N18      1.0000 0.65130  0.90300  0.49474  Biso   1.000  N
  N19      1.0000 0.15130  0.59700  0.50526  Biso   1.000  N
  N20      1.0000 0.34870  0.40300  0.00526  Biso   1.000  N
  N21      1.0000 0.84820  0.11230  0.09724  Biso   1.000  N
  N22      1.0000 0.65180  0.88770  0.59724  Biso   1.000  N
  N23      1.0000 0.15180  0.61230  0.40276  Biso   1.000  N
  N24      1.0000 0.34820  0.38770  0.90276  Biso   1.000  N
  C1       1.0000 0.72280  0.89640  0.12667  Biso   1.000  C
  C2       1.0000 0.77720  0.10360  0.62667  Biso   1.000  C
  C3       1.0000 0.27720  0.39640  0.37333  Biso   1.000  C
  C4       1.0000 0.22280  0.60360  0.87333  Biso   1.000  C
  C5       1.0000 0.70750  0.79700  0.15132  Biso   1.000  C
  C6       1.0000 0.79250  0.20300  0.65132  Biso   1.000  C
  C7       1.0000 0.29250  0.29700  0.34868  Biso   1.000  C
  C8       1.0000 0.20750  0.70300  0.84868  Biso   1.000  C
  H9       1.0000 0.76240  0.78340  0.17550  Biso   1.000  H
  H10      1.0000 0.73760  0.21660  0.67550  Biso   1.000  H
  H11      1.0000 0.23760  0.28340  0.32450  Biso   1.000  H
  H12      1.0000 0.26240  0.71660  0.82450  Biso   1.000  H
  C9       1.0000 0.70850  0.72400  0.10619  Biso   1.000  C
  C10      1.0000 0.79150  0.27600  0.60619  Biso   1.000  C
  C11      1.0000 0.29150  0.22400  0.39381  Biso   1.000  C
  C12      1.0000 0.20850  0.77600  0.89381  Biso   1.000  C
  H13      1.0000 0.76500  0.73590  0.08340  Biso   1.000  H
  H14      1.0000 0.73500  0.26410  0.58340  Biso   1.000  H
  H15      1.0000 0.23500  0.23590  0.41660  Biso   1.000  H
  H16      1.0000 0.26500  0.76410  0.91660  Biso   1.000  H
  H17      1.0000 0.64900  0.73120  0.08500  Biso   1.000  H
  H18      1.0000 0.85100  0.26880  0.58500  Biso   1.000  H
  H19      1.0000 0.35100  0.23120  0.41500  Biso   1.000  H
  H20      1.0000 0.14900  0.76880  0.91500  Biso   1.000  H
  C13      1.0000 0.71400  0.62190  0.12750  Biso   1.000  C
  C14      1.0000 0.78600  0.37810  0.62750  Biso   1.000  C
  C15      1.0000 0.28600  0.12190  0.37250  Biso   1.000  C
  C16      1.0000 0.21400  0.87810  0.87250  Biso   1.000  C
  H21      1.0000 0.77710  0.61240  0.14500  Biso   1.000  H
  H22      1.0000 0.72290  0.38760  0.64500  Biso   1.000  H
  H23      1.0000 0.22290  0.11240  0.35500  Biso   1.000  H
  H24      1.0000 0.27710  0.88760  0.85500  Biso   1.000  H
  H25      1.0000 0.66210  0.61240  0.15350  Biso   1.000  H
  H26      1.0000 0.83790  0.38760  0.65350  Biso   1.000  H
  H27      1.0000 0.33790  0.11240  0.34650  Biso   1.000  H
  H28      1.0000 0.16210  0.88760  0.84650  Biso   1.000  H
  C17      1.0000 0.70270  0.54950  0.08370  Biso   1.000  C
  C18      1.0000 0.79730  0.45050  0.58370  Biso   1.000  C
  C19      1.0000 0.29730  0.04950  0.41630  Biso   1.000  C
  C20      1.0000 0.20270  0.95050  0.91630  Biso   1.000  C
  C21      1.0000 0.63610  0.92270  0.26000  Biso   1.000  C
  C22      1.0000 0.86390  0.07730  0.76000  Biso   1.000  C
  C23      1.0000 0.36390  0.42270  0.24000  Biso   1.000  C
  C24      1.0000 0.13610  0.57730  0.74000  Biso   1.000  C
  C25      1.0000 0.56310  0.98610  0.25920  Biso   1.000  C
  C26      1.0000 0.93690  0.01390  0.75920  Biso   1.000  C
  C27      1.0000 0.43690  0.48610  0.24080  Biso   1.000  C
  C28      1.0000 0.06310  0.51390  0.74080  Biso   1.000  C
  H29      1.0000 0.49920  0.97200  0.24790  Biso   1.000  H
  H30      1.0000 0.00080  0.02800  0.74790  Biso   1.000  H
  H31      1.0000 0.50080  0.47200  0.25210  Biso   1.000  H
  H32      1.0000 0.99920  0.52800  0.75210  Biso   1.000  H
  C29      1.0000 0.59430  0.08410  0.27870  Biso   1.000  C
  C30      1.0000 0.90570  0.91590  0.77870  Biso   1.000  C
  C31      1.0000 0.40570  0.58410  0.22130  Biso   1.000  C
  C32      1.0000 0.09430  0.41590  0.72130  Biso   1.000  C
  H33      1.0000 0.55050  0.13510  0.27970  Biso   1.000  H
  H34      1.0000 0.94950  0.86490  0.77970  Biso   1.000  H
  H35      1.0000 0.44950  0.63510  0.22030  Biso   1.000  H
  H36      1.0000 0.05050  0.36490  0.72030  Biso   1.000  H
  C33      1.0000 0.69160  0.09260  0.29490  Biso   1.000  C
  C34      1.0000 0.80840  0.90740  0.79490  Biso   1.000  C
  C35      1.0000 0.30840  0.59260  0.20510  Biso   1.000  C
  C36      1.0000 0.19160  0.40740  0.70510  Biso   1.000  C
  H37      1.0000 0.70970  0.15000  0.31040  Biso   1.000  H
  H38      1.0000 0.79030  0.85000  0.81040  Biso   1.000  H
  H39      1.0000 0.29030  0.65000  0.18960  Biso   1.000  H
  H40      1.0000 0.20970  0.35000  0.68960  Biso   1.000  H
  C37      1.0000 0.75850  0.03010  0.29070  Biso   1.000  C
  C38      1.0000 0.74150  0.96990  0.79070  Biso   1.000  C
  C39      1.0000 0.24150  0.53010  0.20930  Biso   1.000  C
  C40      1.0000 0.25850  0.46990  0.70930  Biso   1.000  C
  H41      1.0000 0.82430  0.04370  0.29830  Biso   1.000  H
  H42      1.0000 0.67570  0.95630  0.79830  Biso   1.000  H
  H43      1.0000 0.17570  0.54370  0.20170  Biso   1.000  H
  H44      1.0000 0.32430  0.45630  0.70170  Biso   1.000  H
  C41      1.0000 0.73020  0.94390  0.27480  Biso   1.000  C
  C42      1.0000 0.76980  0.05610  0.77480  Biso   1.000  C
  C43      1.0000 0.26980  0.44390  0.22520  Biso   1.000  C
  C44      1.0000 0.23020  0.55610  0.72520  Biso   1.000  C
  H45      1.0000 0.77740  0.89570  0.27390  Biso   1.000  H
  H46      1.0000 0.72260  0.10430  0.77390  Biso   1.000  H
  H47      1.0000 0.22260  0.39570  0.22610  Biso   1.000  H
  H48      1.0000 0.27740  0.60430  0.72610  Biso   1.000  H
  C45      1.0000 0.07460  0.91420  0.05764  Biso   1.000  C
  C46      1.0000 0.42540  0.08580  0.55764  Biso   1.000  C
  C47      1.0000 0.92540  0.41420  0.44236  Biso   1.000  C
  C48      1.0000 0.57460  0.58580  0.94236  Biso   1.000  C
  C49      1.0000 0.08470  0.82190  0.08830  Biso   1.000  C
  C50      1.0000 0.41530  0.17810  0.58830  Biso   1.000  C
  C51      1.0000 0.91530  0.32190  0.41170  Biso   1.000  C
  C52      1.0000 0.58470  0.67810  0.91170  Biso   1.000  C
  H49      1.0000 0.14430  0.82690  0.11030  Biso   1.000  H
  H50      1.0000 0.35570  0.17310  0.61030  Biso   1.000  H
  H51      1.0000 0.85570  0.32690  0.38970  Biso   1.000  H
  H52      1.0000 0.64430  0.67310  0.88970  Biso   1.000  H
  C53      1.0000 0.09810  0.73670  0.05180  Biso   1.000  C
  C54      1.0000 0.40190  0.26330  0.55180  Biso   1.000  C
  C55      1.0000 0.90190  0.23670  0.44820  Biso   1.000  C
  C56      1.0000 0.59810  0.76330  0.94820  Biso   1.000  C
  H53      1.0000 0.04910  0.68960  0.06180  Biso   1.000  H
  H54      1.0000 0.45090  0.31040  0.56180  Biso   1.000  H
  H55      1.0000 0.95090  0.18960  0.43820  Biso   1.000  H
  H56      1.0000 0.54910  0.81040  0.93820  Biso   1.000  H
  H57      1.0000 0.08170  0.75750  0.01620  Biso   1.000  H
  H58      1.0000 0.41830  0.24250  0.51620  Biso   1.000  H
  H59      1.0000 0.91830  0.25750  0.48380  Biso   1.000  H
  H60      1.0000 0.58170  0.74250  0.98380  Biso   1.000  H
  C57      1.0000 0.18510  0.69240  0.04910  Biso   1.000  C
  C58      1.0000 0.31490  0.30760  0.54910  Biso   1.000  C
  C59      1.0000 0.81490  0.19240  0.45090  Biso   1.000  C
  C60      1.0000 0.68510  0.80760  0.95090  Biso   1.000  C
  H61      1.0000 0.20220  0.67510  0.08520  Biso   1.000  H
  H62      1.0000 0.29780  0.32490  0.58520  Biso   1.000  H
  H63      1.0000 0.79780  0.17510  0.41480  Biso   1.000  H
  H64      1.0000 0.70220  0.82490  0.91480  Biso   1.000  H
  H65      1.0000 0.23290  0.73990  0.03810  Biso   1.000  H
  H66      1.0000 0.26710  0.26010  0.53810  Biso   1.000  H
  H67      1.0000 0.76710  0.23990  0.46190  Biso   1.000  H
  H68      1.0000 0.73290  0.76010  0.96190  Biso   1.000  H
  C61      1.0000 0.20480  0.60650  0.01610  Biso   1.000  C
  C62      1.0000 0.29520  0.39350  0.51610  Biso   1.000  C
  C63      1.0000 0.79520  0.10650  0.48390  Biso   1.000  C
  C64      1.0000 0.70480  0.89350  0.98390  Biso   1.000  C
  C65      1.0000 0.08640  0.88630  0.21020  Biso   1.000  C
  C66      1.0000 0.41360  0.11370  0.71020  Biso   1.000  C
  C67      1.0000 0.91360  0.38630  0.28980  Biso   1.000  C
  C68      1.0000 0.58640  0.61370  0.78980  Biso   1.000  C
  C69      1.0000 0.18750  0.88990  0.20980  Biso   1.000  C
  C70      1.0000 0.31250  0.11010  0.70980  Biso   1.000  C
  C71      1.0000 0.81250  0.38990  0.29020  Biso   1.000  C
  C72      1.0000 0.68750  0.61010  0.79020  Biso   1.000  C
  H69      1.0000 0.22290  0.83720  0.19810  Biso   1.000  H
  H70      1.0000 0.27710  0.16280  0.69810  Biso   1.000  H
  H71      1.0000 0.77710  0.33720  0.30190  Biso   1.000  H
  H72      1.0000 0.72290  0.66280  0.80190  Biso   1.000  H
  C73      1.0000 0.23880  0.96990  0.22630  Biso   1.000  C
  C74      1.0000 0.26120  0.03010  0.72630  Biso   1.000  C
  C75      1.0000 0.76120  0.46990  0.27370  Biso   1.000  C
  C76      1.0000 0.73880  0.53010  0.77370  Biso   1.000  C
  H73      1.0000 0.30750  0.97360  0.22550  Biso   1.000  H
  H74      1.0000 0.19250  0.02640  0.72550  Biso   1.000  H
  H75      1.0000 0.69250  0.47360  0.27450  Biso   1.000  H
  H76      1.0000 0.80750  0.52640  0.77450  Biso   1.000  H
  C77      1.0000 0.18000  0.04390  0.24410  Biso   1.000  C
  C78      1.0000 0.32000  0.95610  0.74410  Biso   1.000  C
  C79      1.0000 0.82000  0.54390  0.25590  Biso   1.000  C
  C80      1.0000 0.68000  0.45610  0.75590  Biso   1.000  C
  H77      1.0000 0.21180  0.09920  0.25510  Biso   1.000  H
  H78      1.0000 0.28820  0.90080  0.75510  Biso   1.000  H
  H79      1.0000 0.78820  0.59920  0.24490  Biso   1.000  H
  H80      1.0000 0.71180  0.40080  0.74490  Biso   1.000  H
  C81      1.0000 0.08110  0.04240  0.24690  Biso   1.000  C
  C82      1.0000 0.41890  0.95760  0.74690  Biso   1.000  C
  C83      1.0000 0.91890  0.54240  0.25310  Biso   1.000  C
  C84      1.0000 0.58110  0.45760  0.75310  Biso   1.000  C
  H81      1.0000 0.04620  0.09400  0.26040  Biso   1.000  H
  H82      1.0000 0.45380  0.90600  0.76040  Biso   1.000  H
  H83      1.0000 0.95380  0.59400  0.23960  Biso   1.000  H
  H84      1.0000 0.54620  0.40600  0.73960  Biso   1.000  H
  C85      1.0000 0.03180  0.96190  0.22920  Biso   1.000  C
  C86      1.0000 0.46820  0.03810  0.72920  Biso   1.000  C
  C87      1.0000 0.96820  0.46190  0.27080  Biso   1.000  C
  C88      1.0000 0.53180  0.53810  0.77080  Biso   1.000  C
  H85      1.0000 0.96310  0.95890  0.23010  Biso   1.000  H
  H86      1.0000 0.53690  0.04110  0.73010  Biso   1.000  H
  H87      1.0000 0.03690  0.45890  0.26990  Biso   1.000  H
  H88      1.0000 0.46310  0.54110  0.76990  Biso   1.000  H
  C89      1.0000 0.60720  0.33600  0.10830  Biso   1.000  C
  C90      1.0000 0.89280  0.66400  0.60830  Biso   1.000  C
  C91      1.0000 0.39280  0.83600  0.39170  Biso   1.000  C
  C92      1.0000 0.10720  0.16400  0.89170  Biso   1.000  C
  H89      1.0000 0.60560  0.39460  0.12530  Biso   1.000  H
  H90      1.0000 0.89440  0.60540  0.62530  Biso   1.000  H
  H91      1.0000 0.39440  0.89460  0.37470  Biso   1.000  H
  H92      1.0000 0.10560  0.10540  0.87470  Biso   1.000  H
  C93      1.0000 0.60390  0.25510  0.13870  Biso   1.000  C
  C94      1.0000 0.89610  0.74490  0.63870  Biso   1.000  C
  C95      1.0000 0.39610  0.75510  0.36130  Biso   1.000  C
  C96      1.0000 0.10390  0.24490  0.86130  Biso   1.000  C
  H93      1.0000 0.60060  0.25860  0.17540  Biso   1.000  H
  H94      1.0000 0.89940  0.74140  0.67540  Biso   1.000  H
  H95      1.0000 0.39940  0.75860  0.32460  Biso   1.000  H
  H96      1.0000 0.10060  0.24140  0.82460  Biso   1.000  H
  C97      1.0000 0.60570  0.16880  0.11320  Biso   1.000  C
  C98      1.0000 0.89430  0.83120  0.61320  Biso   1.000  C
  C99      1.0000 0.39430  0.66880  0.38680  Biso   1.000  C
  C100     1.0000 0.10570  0.33120  0.88680  Biso   1.000  C
  H97      1.0000 0.60370  0.11290  0.13290  Biso   1.000  H
  H98      1.0000 0.89630  0.88710  0.63290  Biso   1.000  H
  H99      1.0000 0.39630  0.61290  0.36710  Biso   1.000  H
  H100     1.0000 0.10370  0.38710  0.86710  Biso   1.000  H
  C101     1.0000 0.61030  0.16420  0.05860  Biso   1.000  C
  C102     1.0000 0.88970  0.83580  0.55860  Biso   1.000  C
  C103     1.0000 0.38970  0.66420  0.44140  Biso   1.000  C
  C104     1.0000 0.11030  0.33580  0.94140  Biso   1.000  C
  H101     1.0000 0.61180  0.10590  0.04120  Biso   1.000  H
  H102     1.0000 0.88820  0.89410  0.54120  Biso   1.000  H
  H103     1.0000 0.38820  0.60590  0.45880  Biso   1.000  H
  H104     1.0000 0.11180  0.39410  0.95880  Biso   1.000  H
  C105     1.0000 0.61260  0.24880  0.03049  Biso   1.000  C
  C106     1.0000 0.88740  0.75120  0.53049  Biso   1.000  C
  C107     1.0000 0.38740  0.74880  0.46951  Biso   1.000  C
  C108     1.0000 0.11260  0.25120  0.96951  Biso   1.000  C
  C109     1.0000 0.61790  0.25570  0.97183  Biso   1.000  C
  C110     1.0000 0.88210  0.74430  0.47183  Biso   1.000  C
  C111     1.0000 0.38210  0.75570  0.52817  Biso   1.000  C
  C112     1.0000 0.11790  0.24430  0.02817  Biso   1.000  C
  C113     1.0000 0.61080  0.17690  0.93880  Biso   1.000  C
  C114     1.0000 0.88920  0.82310  0.43880  Biso   1.000  C
  C115     1.0000 0.38920  0.67690  0.56120  Biso   1.000  C
  C116     1.0000 0.11080  0.32310  0.06120  Biso   1.000  C
  H105     1.0000 0.60320  0.11610  0.95280  Biso   1.000  H
  H106     1.0000 0.89680  0.88390  0.45280  Biso   1.000  H
  H107     1.0000 0.39680  0.61610  0.54720  Biso   1.000  H
  H108     1.0000 0.10320  0.38390  0.04720  Biso   1.000  H
  C117     1.0000 0.61550  0.19100  0.88500  Biso   1.000  C
  C118     1.0000 0.88450  0.80900  0.38500  Biso   1.000  C
  C119     1.0000 0.38450  0.69100  0.61500  Biso   1.000  C
  C120     1.0000 0.11550  0.30900  0.11500  Biso   1.000  C
  H109     1.0000 0.61190  0.13930  0.86210  Biso   1.000  H
  H110     1.0000 0.88810  0.86070  0.36210  Biso   1.000  H
  H111     1.0000 0.38810  0.63930  0.63790  Biso   1.000  H
  H112     1.0000 0.11190  0.36070  0.13790  Biso   1.000  H
  C121     1.0000 0.62530  0.28080  0.86510  Biso   1.000  C
  C122     1.0000 0.87470  0.71920  0.36510  Biso   1.000  C
  C123     1.0000 0.37470  0.78080  0.63490  Biso   1.000  C
  C124     1.0000 0.12530  0.21920  0.13490  Biso   1.000  C
  H113     1.0000 0.62710  0.29100  0.82870  Biso   1.000  H
  H114     1.0000 0.87290  0.70900  0.32870  Biso   1.000  H
  H115     1.0000 0.37290  0.79100  0.67130  Biso   1.000  H
  H116     1.0000 0.12710  0.20900  0.17130  Biso   1.000  H
  C125     1.0000 0.63260  0.35700  0.90030  Biso   1.000  C
  C126     1.0000 0.86740  0.64300  0.40030  Biso   1.000  C
  C127     1.0000 0.36740  0.85700  0.59970  Biso   1.000  C
  C128     1.0000 0.13260  0.14300  0.09970  Biso   1.000  C
  H117     1.0000 0.64130  0.41810  0.88680  Biso   1.000  H
  H118     1.0000 0.85870  0.58190  0.38680  Biso   1.000  H
  H119     1.0000 0.35870  0.91810  0.61320  Biso   1.000  H
  H120     1.0000 0.14130  0.08190  0.11320  Biso   1.000  H
  C129     1.0000 0.85180  0.08100  0.94234  Biso   1.000  C
  C130     1.0000 0.64820  0.91900  0.44234  Biso   1.000  C
  C131     1.0000 0.14820  0.58100  0.55766  Biso   1.000  C
  C132     1.0000 0.35180  0.41900  0.05766  Biso   1.000  C
  H121     1.0000 0.84700  0.01900  0.92980  Biso   1.000  H
  H122     1.0000 0.65300  0.98100  0.42980  Biso   1.000  H
  H123     1.0000 0.15300  0.51900  0.57020  Biso   1.000  H
  H124     1.0000 0.34700  0.48100  0.07020  Biso   1.000  H
  C133     1.0000 0.86210  0.15450  0.90660  Biso   1.000  C
  C134     1.0000 0.63790  0.84550  0.40660  Biso   1.000  C
  C135     1.0000 0.13790  0.65450  0.59340  Biso   1.000  C
  C136     1.0000 0.36210  0.34550  0.09340  Biso   1.000  C
  H125     1.0000 0.86450  0.14210  0.87040  Biso   1.000  H
  H126     1.0000 0.63550  0.85790  0.37040  Biso   1.000  H
  H127     1.0000 0.13550  0.64210  0.62960  Biso   1.000  H
  H128     1.0000 0.36450  0.35790  0.12960  Biso   1.000  H
  C137     1.0000 0.86850  0.24550  0.92480  Biso   1.000  C
  C138     1.0000 0.63150  0.75450  0.42480  Biso   1.000  C
  C139     1.0000 0.13150  0.74550  0.57520  Biso   1.000  C
  C140     1.0000 0.36850  0.25450  0.07520  Biso   1.000  C
  H129     1.0000 0.87270  0.29580  0.90100  Biso   1.000  H
  H130     1.0000 0.62730  0.70420  0.40100  Biso   1.000  H
  H131     1.0000 0.12730  0.79580  0.59900  Biso   1.000  H
  H132     1.0000 0.37270  0.20420  0.09900  Biso   1.000  H
  C141     1.0000 0.86890  0.26290  0.97820  Biso   1.000  C
  C142     1.0000 0.63110  0.73710  0.47820  Biso   1.000  C
  C143     1.0000 0.13110  0.76290  0.52180  Biso   1.000  C
  C144     1.0000 0.36890  0.23710  0.02180  Biso   1.000  C
  H133     1.0000 0.87610  0.32450  0.99110  Biso   1.000  H
  H134     1.0000 0.62390  0.67550  0.49110  Biso   1.000  H
  H135     1.0000 0.12390  0.82450  0.50890  Biso   1.000  H
  H136     1.0000 0.37610  0.17550  0.00890  Biso   1.000  H
  C145     1.0000 0.85800  0.18610  0.01290  Biso   1.000  C
  C146     1.0000 0.64200  0.81390  0.51290  Biso   1.000  C
  C147     1.0000 0.14200  0.68610  0.48710  Biso   1.000  C
  C148     1.0000 0.35800  0.31390  0.98710  Biso   1.000  C
  C149     1.0000 0.85680  0.19550  0.07136  Biso   1.000  C
  C150     1.0000 0.64320  0.80450  0.57136  Biso   1.000  C
  C151     1.0000 0.14320  0.69550  0.42864  Biso   1.000  C
  C152     1.0000 0.35680  0.30450  0.92864  Biso   1.000  C
  C153     1.0000 0.86320  0.28140  0.09830  Biso   1.000  C
  C154     1.0000 0.63680  0.71860  0.59830  Biso   1.000  C
  C155     1.0000 0.13680  0.78140  0.40170  Biso   1.000  C
  C156     1.0000 0.36320  0.21860  0.90170  Biso   1.000  C
  H137     1.0000 0.86810  0.33850  0.07980  Biso   1.000  H
  H138     1.0000 0.63190  0.66150  0.57980  Biso   1.000  H
  H139     1.0000 0.13190  0.83850  0.42020  Biso   1.000  H
  H140     1.0000 0.36810  0.16150  0.92020  Biso   1.000  H
  C157     1.0000 0.86220  0.28060  0.15250  Biso   1.000  C
  C158     1.0000 0.63780  0.71940  0.65250  Biso   1.000  C
  C159     1.0000 0.13780  0.78060  0.34750  Biso   1.000  C
  C160     1.0000 0.36220  0.21940  0.84750  Biso   1.000  C
  H141     1.0000 0.86700  0.33740  0.17120  Biso   1.000  H
  H142     1.0000 0.63300  0.66260  0.67120  Biso   1.000  H
  H143     1.0000 0.13300  0.83740  0.32880  Biso   1.000  H
  H144     1.0000 0.36700  0.16260  0.82880  Biso   1.000  H
  C161     1.0000 0.85410  0.19610  0.17940  Biso   1.000  C
  C162     1.0000 0.64590  0.80390  0.67940  Biso   1.000  C
  C163     1.0000 0.14590  0.69610  0.32060  Biso   1.000  C
  C164     1.0000 0.35410  0.30390  0.82060  Biso   1.000  C
  H145     1.0000 0.85260  0.19510  0.21620  Biso   1.000  H
  H146     1.0000 0.64740  0.80490  0.71620  Biso   1.000  H
  H147     1.0000 0.14740  0.69510  0.28380  Biso   1.000  H
  H148     1.0000 0.35260  0.30490  0.78380  Biso   1.000  H
  C165     1.0000 0.84830  0.11280  0.15071  Biso   1.000  C
  C166     1.0000 0.65170  0.88720  0.65071  Biso   1.000  C
  C167     1.0000 0.15170  0.61280  0.34929  Biso   1.000  C
  C168     1.0000 0.34830  0.38720  0.84929  Biso   1.000  C
  H149     1.0000 0.84420  0.05520  0.16880  Biso   1.000  H
  H150     1.0000 0.65580  0.94480  0.66880  Biso   1.000  H
  H151     1.0000 0.15580  0.55520  0.33120  Biso   1.000  H
  H152     1.0000 0.34420  0.44480  0.83120  Biso   1.000  H
  H153     1.0000 0.40970  0.76620  0.12340  Biso   1.000  H
  H154     1.0000 0.09030  0.23380  0.62340  Biso   1.000  H
  H155     1.0000 0.59030  0.26620  0.37660  Biso   1.000  H
  H156     1.0000 0.90970  0.73380  0.87660  Biso   1.000  H
  H157     1.0000 0.43850  0.85260  0.10440  Biso   1.000  H
  H158     1.0000 0.06150  0.14740  0.60440  Biso   1.000  H
  H159     1.0000 0.56150  0.35260  0.39560  Biso   1.000  H
  H160     1.0000 0.93850  0.64740  0.89560  Biso   1.000  H
  H161     1.0000 0.42030  0.67770  0.03710  Biso   1.000  H
  H162     1.0000 0.07970  0.32230  0.53710  Biso   1.000  H
  H163     1.0000 0.57970  0.17770  0.46290  Biso   1.000  H
  H164     1.0000 0.92030  0.82230  0.96290  Biso   1.000  H
  H165     1.0000 0.47870  0.61610  0.06520  Biso   1.000  H
  H166     1.0000 0.02130  0.38390  0.56520  Biso   1.000  H
  H167     1.0000 0.52130  0.11610  0.43480  Biso   1.000  H
  H168     1.0000 0.97870  0.88390  0.93480  Biso   1.000  H
  H169     1.0000 0.91800  0.49090  0.00050  Biso   1.000  H
  H170     1.0000 0.58200  0.50910  0.50050  Biso   1.000  H
  H171     1.0000 0.08200  0.99090  0.49950  Biso   1.000  H
  H172     1.0000 0.41800  0.00910  0.99950  Biso   1.000  H
  H173     1.0000 0.01080  0.50990  0.01240  Biso   1.000  H
  H174     1.0000 0.48920  0.49010  0.51240  Biso   1.000  H
  H175     1.0000 0.98920  0.00990  0.48760  Biso   1.000  H
  H176     1.0000 0.51080  0.99010  0.98760  Biso   1.000  H
  H177     1.0000 0.94350  0.50230  0.89340  Biso   1.000  H
  H178     1.0000 0.55650  0.49770  0.39340  Biso   1.000  H
  H179     1.0000 0.05650  0.00230  0.60660  Biso   1.000  H
  H180     1.0000 0.44350  0.99770  0.10660  Biso   1.000  H
  H181     1.0000 0.88770  0.56500  0.92240  Biso   1.000  H
  H182     1.0000 0.61230  0.43500  0.42240  Biso   1.000  H
  H183     1.0000 0.11230  0.06500  0.57760  Biso   1.000  H
  H184     1.0000 0.38770  0.93500  0.07760  Biso   1.000  H
