data_image0
_cell_length_a       9.992
_cell_length_b       10.0882
_cell_length_c       11.1708
_cell_angle_alpha    78.38
_cell_angle_beta     76.815
_cell_angle_gamma    65.419

_symmetry_space_group_name_H-M    "P 1"
_symmetry_int_tables_number       1

loop_
  _symmetry_equiv_pos_as_xyz
  'x, y, z'

loop_
  _atom_site_label
  _atom_site_occupancy
  _atom_site_fract_x
  _atom_site_fract_y
  _atom_site_fract_z
  _atom_site_thermal_displace_type
  _atom_site_B_iso_or_equiv
  _atom_site_type_symbol
  Mo1      1.0000 0.77935  0.61288  0.79284  Biso   1.000  Mo
  Mo2      1.0000 0.22065  0.38712  0.20716  Biso   1.000  Mo
  Mo3      1.0000 0.88214  0.41297  0.55817  Biso   1.000  Mo
  Mo4      1.0000 0.11786  0.58703  0.44183  Biso   1.000  Mo
  Mo5      1.0000 0.73644  0.77007  0.46269  Biso   1.000  Mo
  Mo6      1.0000 0.26356  0.22993  0.53731  Biso   1.000  Mo
  Mo7      1.0000 0.07708  0.31763  0.82081  Biso   1.000  Mo
  Mo8      1.0000 0.92292  0.68237  0.17919  Biso   1.000  Mo
  Cu1      1.0000 0.63879  0.17139  0.54290  Biso   1.000  Cu
  Cu2      1.0000 0.36121  0.82861  0.45710  Biso   1.000  Cu
  O1       1.0000 0.63470  0.58440  0.89090  Biso   1.000  O
  O2       1.0000 0.36530  0.41560  0.10910  Biso   1.000  O
  O3       1.0000 0.74960  0.79010  0.79840  Biso   1.000  O
  O4       1.0000 0.25040  0.20990  0.20160  Biso   1.000  O
  O5       1.0000 0.95130  0.51480  0.86520  Biso   1.000  O
  O6       1.0000 0.04870  0.48520  0.13480  Biso   1.000  O
  O7       1.0000 0.88960  0.38420  0.72970  Biso   1.000  O
  O8       1.0000 0.11040  0.61580  0.27030  Biso   1.000  O
  O9       1.0000 0.72760  0.38370  0.55330  Biso   1.000  O
  O10      1.0000 0.27240  0.61630  0.44670  Biso   1.000  O
  O11      1.0000 0.75590  0.63230  0.62130  Biso   1.000  O
  O12      1.0000 0.24410  0.36770  0.37870  Biso   1.000  O
  O13      1.0000 0.03370  0.25640  0.50700  Biso   1.000  O
  O14      1.0000 0.96630  0.74360  0.49300  Biso   1.000  O
  O15      1.0000 0.89610  0.55150  0.41890  Biso   1.000  O
  O16      1.0000 0.10390  0.44850  0.58110  Biso   1.000  O
  O17      1.0000 0.66730  0.93060  0.52540  Biso   1.000  O
  O18      1.0000 0.33270  0.06940  0.47460  Biso   1.000  O
  O19      1.0000 0.57720  0.75360  0.43710  Biso   1.000  O
  O20      1.0000 0.42280  0.24640  0.56290  Biso   1.000  O
  O21      1.0000 0.81970  0.82070  0.30410  Biso   1.000  O
  O22      1.0000 0.18030  0.17930  0.69590  Biso   1.000  O
  O23      1.0000 0.03480  0.20480  0.94280  Biso   1.000  O
  O24      1.0000 0.96520  0.79520  0.05720  Biso   1.000  O
  N1       1.0000 0.66970  0.11860  0.71920  Biso   1.000  N
  N2       1.0000 0.33030  0.88140  0.28080  Biso   1.000  N
  N3       1.0000 0.85580  0.08190  0.51900  Biso   1.000  N
  N4       1.0000 0.14420  0.91810  0.48100  Biso   1.000  N
  N5       1.0000 0.31670  0.76180  0.63710  Biso   1.000  N
  N6       1.0000 0.68330  0.23820  0.36290  Biso   1.000  N
  C1       1.0000 0.56470  0.16250  0.81670  Biso   1.000  C
  C2       1.0000 0.43530  0.83750  0.18330  Biso   1.000  C
  H1       1.0000 0.46510  0.20180  0.80650  Biso   1.000  H
  H2       1.0000 0.53490  0.79820  0.19350  Biso   1.000  H
  C3       1.0000 0.59850  0.15190  0.93300  Biso   1.000  C
  C4       1.0000 0.40150  0.84810  0.06700  Biso   1.000  C
  H3       1.0000 0.52300  0.18040  0.00040  Biso   1.000  H
  H4       1.0000 0.47700  0.81960  0.99960  Biso   1.000  H
  C5       1.0000 0.74630  0.09820  0.94650  Biso   1.000  C
  C6       1.0000 0.25370  0.90180  0.05350  Biso   1.000  C
  H5       1.0000 0.77170  0.09520  0.02240  Biso   1.000  H
  H6       1.0000 0.22830  0.90480  0.97760  Biso   1.000  H
  C7       1.0000 0.85760  0.04830  0.84570  Biso   1.000  C
  C8       1.0000 0.14240  0.95170  0.15430  Biso   1.000  C
  H7       1.0000 0.95790  0.01070  0.85340  Biso   1.000  H
  H8       1.0000 0.04210  0.98930  0.14660  Biso   1.000  H
  C9       1.0000 0.81520  0.05610  0.73500  Biso   1.000  C
  C10      1.0000 0.18480  0.94390  0.26500  Biso   1.000  C
  C11      1.0000 0.92010  0.01250  0.61880  Biso   1.000  C
  C12      1.0000 0.07990  0.98750  0.38120  Biso   1.000  C
  C13      1.0000 0.07290  0.92080  0.59850  Biso   1.000  C
  C14      1.0000 0.92710  0.07920  0.40150  Biso   1.000  C
  C15      1.0000 0.16880  0.81030  0.68460  Biso   1.000  C
  C16      1.0000 0.83120  0.18970  0.31540  Biso   1.000  C
  C17      1.0000 0.11520  0.74320  0.79430  Biso   1.000  C
  C18      1.0000 0.88480  0.25680  0.20570  Biso   1.000  C
  H9       1.0000 0.01350  0.77570  0.82440  Biso   1.000  H
  H10      1.0000 0.98650  0.22430  0.17560  Biso   1.000  H
  C19      1.0000 0.21720  0.62570  0.85870  Biso   1.000  C
  C20      1.0000 0.78280  0.37430  0.14130  Biso   1.000  C
  H11      1.0000 0.18390  0.57870  0.93250  Biso   1.000  H
  H12      1.0000 0.81610  0.42130  0.06750  Biso   1.000  H
  C21      1.0000 0.36570  0.58030  0.81290  Biso   1.000  C
  C22      1.0000 0.63430  0.41970  0.18710  Biso   1.000  C
  H13      1.0000 0.43490  0.50370  0.85600  Biso   1.000  H
  H14      1.0000 0.56510  0.49630  0.14400  Biso   1.000  H
  C23      1.0000 0.41230  0.64990  0.70080  Biso   1.000  C
  C24      1.0000 0.58770  0.35010  0.29920  Biso   1.000  C
  H15      1.0000 0.51360  0.61750  0.66900  Biso   1.000  H
  H16      1.0000 0.48640  0.38250  0.33100  Biso   1.000  H
  O25      1.0000 0.23420  0.33000  0.84180  Biso   1.000  O
  O26      1.0000 0.76580  0.67000  0.15820  Biso   1.000  O
