data_image0
_cell_length_a       8.2229
_cell_length_b       10.5534
_cell_length_c       11.6684
_cell_angle_alpha    63.751
_cell_angle_beta     89.079
_cell_angle_gamma    77.329

_symmetry_space_group_name_H-M    "P 1"
_symmetry_int_tables_number       1

loop_
  _symmetry_equiv_pos_as_xyz
  'x, y, z'

loop_
  _atom_site_label
  _atom_site_occupancy
  _atom_site_fract_x
  _atom_site_fract_y
  _atom_site_fract_z
  _atom_site_thermal_displace_type
  _atom_site_B_iso_or_equiv
  _atom_site_type_symbol
  Cu1      1.0000 0.73802  0.41168  0.41034  Biso   1.000  Cu
  Cu2      1.0000 0.32302  0.62130  0.27569  Biso   1.000  Cu
  N1       1.0000 0.73230  0.22390  0.41170  Biso   1.000  N
  N2       1.0000 0.81930  0.10610  0.51820  Biso   1.000  N
  N3       1.0000 0.84900  0.27400  0.59450  Biso   1.000  N
  H1       1.0000 0.93200  0.31000  0.61600  Biso   1.000  H
  N4       1.0000 0.60080  0.54000  0.24830  Biso   1.000  N
  N5       1.0000 0.66840  0.60950  0.15640  Biso   1.000  N
  N6       1.0000 0.72760  0.67810  0.06660  Biso   1.000  N
  N7       1.0000 0.74090  0.57850  0.45020  Biso   1.000  N
  N8       1.0000 0.84650  0.64450  0.40200  Biso   1.000  N
  N9       1.0000 0.94610  0.71030  0.35610  Biso   1.000  N
  N10      1.0000 0.20650  0.51230  0.22180  Biso   1.000  N
  N11      1.0000 0.10270  0.45330  0.28050  Biso   1.000  N
  N12      1.0000 0.00350  0.39010  0.33320  Biso   1.000  N
  N13      1.0000 0.36860  0.47240  0.45990  Biso   1.000  N
  N14      1.0000 0.27060  0.42060  0.53200  Biso   1.000  N
  N15      1.0000 0.18280  0.36620  0.60760  Biso   1.000  N
  N16      1.0000 0.29230  0.79610  0.10460  Biso   1.000  N
  N17      1.0000 0.34620  0.90870  0.10740  Biso   1.000  N
  N18      1.0000 0.39090  0.76780  0.33200  Biso   1.000  N
  H2       1.0000 0.47800  0.70900  0.39900  Biso   1.000  H
  C1       1.0000 0.67810  0.17070  0.33850  Biso   1.000  C
  C2       1.0000 0.73430  0.01770  0.39800  Biso   1.000  C
  H3       1.0000 0.71380  0.95340  0.36610  Biso   1.000  H
  C3       1.0000 0.82430  0.98010  0.51100  Biso   1.000  C
  C4       1.0000 0.57230  0.26570  0.21410  Biso   1.000  C
  H4       1.0000 0.47050  0.32280  0.22900  Biso   1.000  H
  H5       1.0000 0.54180  0.20500  0.17820  Biso   1.000  H
  H6       1.0000 0.63530  0.33150  0.15380  Biso   1.000  H
  C5       1.0000 0.91070  0.83480  0.61540  Biso   1.000  C
  H7       1.0000 0.03100  0.82890  0.62280  Biso   1.000  H
  H8       1.0000 0.89250  0.75810  0.59500  Biso   1.000  H
  H9       1.0000 0.86530  0.82220  0.69690  Biso   1.000  H
  C6       1.0000 0.92530  0.13170  0.60170  Biso   1.000  C
  H10      1.0000 0.93350  0.05510  0.69120  Biso   1.000  H
  H11      1.0000 0.03940  0.12980  0.57300  Biso   1.000  H
  C7       1.0000 0.72290  0.27110  0.68850  Biso   1.000  C
  H12      1.0000 0.63650  0.22490  0.67630  Biso   1.000  H
  H13      1.0000 0.66700  0.37270  0.66840  Biso   1.000  H
  C8       1.0000 0.79050  0.19250  0.82790  Biso   1.000  C
  C9       1.0000 0.77540  0.05240  0.90210  Biso   1.000  C
  H14      1.0000 0.72830  0.00500  0.86280  Biso   1.000  H
  C10      1.0000 0.82780  0.97660  0.03530  Biso   1.000  C
  H15      1.0000 0.82100  0.87840  0.08340  Biso   1.000  H
  C11      1.0000 0.88820  0.04600  0.09350  Biso   1.000  C
  H16      1.0000 0.91770  0.99730  0.18350  Biso   1.000  H
  C12      1.0000 0.90780  0.19090  0.02140  Biso   1.000  C
  C13      1.0000 0.86350  0.26400  0.88640  Biso   1.000  C
  C14      1.0000 0.96860  0.26290  0.08260  Biso   1.000  C
  H17      1.0000 0.99060  0.21640  0.17330  Biso   1.000  H
  C15      1.0000 0.99640  0.39910  0.01290  Biso   1.000  C
  H18      1.0000 0.03830  0.44610  0.05500  Biso   1.000  H
  C16      1.0000 0.96240  0.46870  0.87790  Biso   1.000  C
  H19      1.0000 0.98620  0.56110  0.82920  Biso   1.000  H
  C17      1.0000 0.89500  0.40450  0.81620  Biso   1.000  C
  H20      1.0000 0.86930  0.45440  0.72580  Biso   1.000  H
  C18      1.0000 0.22400  0.84700  0.98450  Biso   1.000  C
  C19      1.0000 0.23700  0.99110  0.91100  Biso   1.000  C
  H21      1.0000 0.19860  0.05170  0.82310  Biso   1.000  H
  C20      1.0000 0.31620  0.02710  0.99160  Biso   1.000  C
  C21      1.0000 0.14600  0.75750  0.94080  Biso   1.000  C
  H22      1.0000 0.21450  0.65750  0.97830  Biso   1.000  H
  H23      1.0000 0.13990  0.79930  0.84700  Biso   1.000  H
  H24      1.0000 0.03300  0.75740  0.96880  Biso   1.000  H
  C22      1.0000 0.36130  0.16520  0.96790  Biso   1.000  C
  H25      1.0000 0.30760  0.20060  0.02720  Biso   1.000  H
  H26      1.0000 0.32280  0.23810  0.87930  Biso   1.000  H
  H27      1.0000 0.48310  0.14780  0.98150  Biso   1.000  H
  C23      1.0000 0.45150  0.87560  0.22060  Biso   1.000  C
  H28      1.0000 0.44490  0.96490  0.23070  Biso   1.000  H
  H29      1.0000 0.56960  0.83610  0.21240  Biso   1.000  H
  C24      1.0000 0.25280  0.83500  0.38730  Biso   1.000  C
  H30      1.0000 0.19300  0.76030  0.44100  Biso   1.000  H
  H31      1.0000 0.17200  0.91300  0.31630  Biso   1.000  H
  C25      1.0000 0.31270  0.89810  0.46730  Biso   1.000  C
  C26      1.0000 0.29330  0.04630  0.41900  Biso   1.000  C
  H32      1.0000 0.24040  0.10840  0.33480  Biso   1.000  H
  C27      1.0000 0.35010  0.10780  0.49140  Biso   1.000  C
  H33      1.0000 0.33660  0.21010  0.45570  Biso   1.000  H
  C28      1.0000 0.42500  0.01930  0.61390  Biso   1.000  C
  H34      1.0000 0.46300  0.06110  0.66260  Biso   1.000  H
  C29      1.0000 0.44650  0.86660  0.66850  Biso   1.000  C
  C30      1.0000 0.38830  0.80410  0.59540  Biso   1.000  C
  C31      1.0000 0.52170  0.77390  0.79520  Biso   1.000  C
  H35      1.0000 0.56340  0.81450  0.84350  Biso   1.000  H
  C32      1.0000 0.53530  0.62750  0.84900  Biso   1.000  C
  H36      1.0000 0.58570  0.56720  0.93420  Biso   1.000  H
  C33      1.0000 0.47410  0.56510  0.77780  Biso   1.000  C
  H37      1.0000 0.48170  0.46340  0.81590  Biso   1.000  H
  C34      1.0000 0.40420  0.65180  0.65400  Biso   1.000  C
  H38      1.0000 0.36570  0.60880  0.60670  Biso   1.000  H
