data_image0
_cell_length_a       10.292
_cell_length_b       13.576
_cell_length_c       14.407
_cell_angle_alpha    90
_cell_angle_beta     90
_cell_angle_gamma    90

_symmetry_space_group_name_H-M    "P 1"
_symmetry_int_tables_number       1

loop_
  _symmetry_equiv_pos_as_xyz
  'x, y, z'

loop_
  _atom_site_label
  _atom_site_occupancy
  _atom_site_fract_x
  _atom_site_fract_y
  _atom_site_fract_z
  _atom_site_thermal_displace_type
  _atom_site_B_iso_or_equiv
  _atom_site_type_symbol
  Cu1      1.0000 0.68940  0.08784  0.53111  Biso   1.000  Cu
  Cu2      1.0000 0.81060  0.91216  0.03111  Biso   1.000  Cu
  Cu3      1.0000 0.18940  0.41216  0.46889  Biso   1.000  Cu
  Cu4      1.0000 0.31060  0.58784  0.96889  Biso   1.000  Cu
  O1       1.0000 0.80810  0.20030  0.52510  Biso   1.000  O
  O2       1.0000 0.69190  0.79970  0.02510  Biso   1.000  O
  O3       1.0000 0.30810  0.29970  0.47490  Biso   1.000  O
  O4       1.0000 0.19190  0.70030  0.97490  Biso   1.000  O
  O5       1.0000 0.77580  0.46080  0.13510  Biso   1.000  O
  O6       1.0000 0.72420  0.53920  0.63510  Biso   1.000  O
  O7       1.0000 0.27580  0.03920  0.86490  Biso   1.000  O
  O8       1.0000 0.22420  0.96080  0.36490  Biso   1.000  O
  O9       1.0000 0.83400  0.35230  0.57840  Biso   1.000  O
  O10      1.0000 0.66600  0.64770  0.07840  Biso   1.000  O
  O11      1.0000 0.33400  0.14770  0.42160  Biso   1.000  O
  O12      1.0000 0.16600  0.85230  0.92160  Biso   1.000  O
  O13      1.0000 0.69100  0.74930  0.79610  Biso   1.000  O
  O14      1.0000 0.80900  0.25070  0.29610  Biso   1.000  O
  O15      1.0000 0.19100  0.75070  0.20390  Biso   1.000  O
  O16      1.0000 0.30900  0.24930  0.70390  Biso   1.000  O
  O17      1.0000 0.69550  0.59770  0.83230  Biso   1.000  O
  O18      1.0000 0.80450  0.40230  0.33230  Biso   1.000  O
  O19      1.0000 0.19550  0.90230  0.16770  Biso   1.000  O
  O20      1.0000 0.30450  0.09770  0.66770  Biso   1.000  O
  O21      1.0000 0.86380  0.68970  0.85720  Biso   1.000  O
  O22      1.0000 0.63620  0.31030  0.35720  Biso   1.000  O
  O23      1.0000 0.36380  0.81030  0.14280  Biso   1.000  O
  O24      1.0000 0.13620  0.18970  0.64280  Biso   1.000  O
  N1       1.0000 0.58600  0.96460  0.55120  Biso   1.000  N
  N2       1.0000 0.91400  0.03540  0.05120  Biso   1.000  N
  N3       1.0000 0.08600  0.53540  0.44880  Biso   1.000  N
  N4       1.0000 0.41400  0.46460  0.94880  Biso   1.000  N
  N5       1.0000 0.83430  0.99540  0.56180  Biso   1.000  N
  N6       1.0000 0.66570  0.00460  0.06180  Biso   1.000  N
  N7       1.0000 0.33430  0.50460  0.43820  Biso   1.000  N
  N8       1.0000 0.16570  0.49540  0.93820  Biso   1.000  N
  N9       1.0000 0.55710  0.19090  0.56310  Biso   1.000  N
  N10      1.0000 0.94290  0.80910  0.06310  Biso   1.000  N
  N11      1.0000 0.05710  0.30910  0.43690  Biso   1.000  N
  N12      1.0000 0.44290  0.69090  0.93690  Biso   1.000  N
  N13      1.0000 0.75350  0.67750  0.82660  Biso   1.000  N
  N14      1.0000 0.74650  0.32250  0.32660  Biso   1.000  N
  N15      1.0000 0.25350  0.82250  0.17340  Biso   1.000  N
  N16      1.0000 0.24650  0.17750  0.67340  Biso   1.000  N
  N17      1.0000 0.64740  0.08230  0.37200  Biso   1.000  N
  N18      1.0000 0.85260  0.91770  0.87200  Biso   1.000  N
  N19      1.0000 0.14740  0.41770  0.62800  Biso   1.000  N
  N20      1.0000 0.35260  0.58230  0.12800  Biso   1.000  N
  C1       1.0000 0.45870  0.95470  0.53470  Biso   1.000  C
  C2       1.0000 0.04130  0.04530  0.03470  Biso   1.000  C
  C3       1.0000 0.95870  0.54530  0.46530  Biso   1.000  C
  C4       1.0000 0.54130  0.45470  0.96530  Biso   1.000  C
  C5       1.0000 0.39640  0.86440  0.54230  Biso   1.000  C
  C6       1.0000 0.10360  0.13560  0.04230  Biso   1.000  C
  C7       1.0000 0.89640  0.63560  0.45770  Biso   1.000  C
  C8       1.0000 0.60360  0.36440  0.95770  Biso   1.000  C
  C9       1.0000 0.46890  0.78330  0.56750  Biso   1.000  C
  C10      1.0000 0.03110  0.21670  0.06750  Biso   1.000  C
  C11      1.0000 0.96890  0.71670  0.43250  Biso   1.000  C
  C12      1.0000 0.53110  0.28330  0.93250  Biso   1.000  C
  C13      1.0000 0.60010  0.79310  0.58490  Biso   1.000  C
  C14      1.0000 0.89990  0.20690  0.08490  Biso   1.000  C
  C15      1.0000 0.10010  0.70690  0.41510  Biso   1.000  C
  C16      1.0000 0.39990  0.29310  0.91510  Biso   1.000  C
  C17      1.0000 0.65690  0.88540  0.57610  Biso   1.000  C
  C18      1.0000 0.84310  0.11460  0.07610  Biso   1.000  C
  C19      1.0000 0.15690  0.61460  0.42390  Biso   1.000  C
  C20      1.0000 0.34310  0.38540  0.92390  Biso   1.000  C
  C21      1.0000 0.79650  0.90460  0.58850  Biso   1.000  C
  C22      1.0000 0.70350  0.09540  0.08850  Biso   1.000  C
  C23      1.0000 0.29650  0.59540  0.41150  Biso   1.000  C
  C24      1.0000 0.20350  0.40460  0.91150  Biso   1.000  C
  C25      1.0000 0.88480  0.83870  0.62410  Biso   1.000  C
  C26      1.0000 0.61520  0.16130  0.12410  Biso   1.000  C
  C27      1.0000 0.38480  0.66130  0.37590  Biso   1.000  C
  C28      1.0000 0.11520  0.33870  0.87590  Biso   1.000  C
  C29      1.0000 0.01240  0.86450  0.63100  Biso   1.000  C
  C30      1.0000 0.48760  0.13550  0.13100  Biso   1.000  C
  C31      1.0000 0.51240  0.63550  0.36900  Biso   1.000  C
  C32      1.0000 0.98760  0.36450  0.86900  Biso   1.000  C
  C33      1.0000 0.05180  0.95740  0.60300  Biso   1.000  C
  C34      1.0000 0.44820  0.04260  0.10300  Biso   1.000  C
  C35      1.0000 0.55180  0.54260  0.39700  Biso   1.000  C
  C36      1.0000 0.94820  0.45740  0.89700  Biso   1.000  C
  C37      1.0000 0.95830  0.02060  0.57030  Biso   1.000  C
  C38      1.0000 0.54170  0.97940  0.07030  Biso   1.000  C
  C39      1.0000 0.45830  0.47940  0.42970  Biso   1.000  C
  C40      1.0000 0.04170  0.52060  0.92970  Biso   1.000  C
  C41      1.0000 0.76740  0.27830  0.56590  Biso   1.000  C
  C42      1.0000 0.73260  0.72170  0.06590  Biso   1.000  C
  C43      1.0000 0.26740  0.22170  0.43410  Biso   1.000  C
  C44      1.0000 0.23260  0.77830  0.93410  Biso   1.000  C
  C45      1.0000 0.62940  0.27520  0.60380  Biso   1.000  C
  C46      1.0000 0.87060  0.72480  0.10380  Biso   1.000  C
  C47      1.0000 0.12940  0.22480  0.39620  Biso   1.000  C
  C48      1.0000 0.37060  0.77520  0.89620  Biso   1.000  C
  C49      1.0000 0.63460  0.26580  0.70940  Biso   1.000  C
  C50      1.0000 0.86540  0.73420  0.20940  Biso   1.000  C
  C51      1.0000 0.13460  0.23420  0.29060  Biso   1.000  C
  C52      1.0000 0.36540  0.76580  0.79060  Biso   1.000  C
  C53      1.0000 0.69470  0.17160  0.74570  Biso   1.000  C
  C54      1.0000 0.80530  0.82840  0.24570  Biso   1.000  C
  C55      1.0000 0.19470  0.32840  0.25430  Biso   1.000  C
  C56      1.0000 0.30530  0.67160  0.75430  Biso   1.000  C
  C57      1.0000 0.61520  0.09400  0.77470  Biso   1.000  C
  C58      1.0000 0.88480  0.90600  0.27470  Biso   1.000  C
  C59      1.0000 0.11520  0.40600  0.22530  Biso   1.000  C
  C60      1.0000 0.38480  0.59400  0.72530  Biso   1.000  C
  C61      1.0000 0.66810  0.00980  0.81410  Biso   1.000  C
  C62      1.0000 0.83190  0.99020  0.31410  Biso   1.000  C
  C63      1.0000 0.16810  0.49020  0.18590  Biso   1.000  C
  C64      1.0000 0.33190  0.50980  0.68590  Biso   1.000  C
  C65      1.0000 0.69960  0.99890  0.32660  Biso   1.000  C
  C66      1.0000 0.80040  0.00110  0.82660  Biso   1.000  C
  C67      1.0000 0.19960  0.50110  0.67340  Biso   1.000  C
  C68      1.0000 0.30040  0.49890  0.17340  Biso   1.000  C
  C69      1.0000 0.62070  0.92340  0.29550  Biso   1.000  C
  C70      1.0000 0.87930  0.07660  0.79550  Biso   1.000  C
  C71      1.0000 0.12070  0.57660  0.70450  Biso   1.000  C
  C72      1.0000 0.37930  0.42340  0.20450  Biso   1.000  C
  C73      1.0000 0.82740  0.16000  0.75550  Biso   1.000  C
  C74      1.0000 0.67260  0.84000  0.25550  Biso   1.000  C
  C75      1.0000 0.32740  0.34000  0.24450  Biso   1.000  C
  C76      1.0000 0.17260  0.66000  0.74450  Biso   1.000  C
  H1       1.0000 0.41200  0.01300  0.50900  Biso   1.000  H
  H2       1.0000 0.08800  0.98700  0.00900  Biso   1.000  H
  H3       1.0000 0.91200  0.48700  0.49100  Biso   1.000  H
  H4       1.0000 0.58800  0.51300  0.99100  Biso   1.000  H
  H5       1.0000 0.30600  0.85900  0.52800  Biso   1.000  H
  H6       1.0000 0.19400  0.14100  0.02800  Biso   1.000  H
  H7       1.0000 0.80600  0.64100  0.47200  Biso   1.000  H
  H8       1.0000 0.69400  0.35900  0.97200  Biso   1.000  H
  H9       1.0000 0.49000  0.17400  0.60500  Biso   1.000  H
  H10      1.0000 0.01000  0.82600  0.10500  Biso   1.000  H
  H11      1.0000 0.99000  0.32600  0.39500  Biso   1.000  H
  H12      1.0000 0.51000  0.67400  0.89500  Biso   1.000  H
  H13      1.0000 0.41600  0.72500  0.57900  Biso   1.000  H
  H14      1.0000 0.08400  0.27500  0.07900  Biso   1.000  H
  H15      1.0000 0.91600  0.77500  0.42100  Biso   1.000  H
  H16      1.0000 0.58400  0.22500  0.92100  Biso   1.000  H
  H17      1.0000 0.51100  0.21300  0.52000  Biso   1.000  H
  H18      1.0000 0.98900  0.78700  0.02000  Biso   1.000  H
  H19      1.0000 0.01100  0.28700  0.48000  Biso   1.000  H
  H20      1.0000 0.48900  0.71300  0.98000  Biso   1.000  H
  H21      1.0000 0.64000  0.74300  0.61800  Biso   1.000  H
  H22      1.0000 0.86000  0.25700  0.11800  Biso   1.000  H
  H23      1.0000 0.14000  0.75700  0.38200  Biso   1.000  H
  H24      1.0000 0.36000  0.24300  0.88200  Biso   1.000  H
  H25      1.0000 0.55700  0.09000  0.37000  Biso   1.000  H
  H26      1.0000 0.94300  0.91000  0.87000  Biso   1.000  H
  H27      1.0000 0.05700  0.41000  0.63000  Biso   1.000  H
  H28      1.0000 0.44300  0.59000  0.13000  Biso   1.000  H
  H29      1.0000 0.67900  0.12000  0.40000  Biso   1.000  H
  H30      1.0000 0.82100  0.88000  0.90000  Biso   1.000  H
  H31      1.0000 0.17900  0.38000  0.60000  Biso   1.000  H
  H32      1.0000 0.32100  0.62000  0.10000  Biso   1.000  H
  H33      1.0000 0.84300  0.79800  0.65100  Biso   1.000  H
  H34      1.0000 0.65700  0.20200  0.15100  Biso   1.000  H
  H35      1.0000 0.34300  0.70200  0.34900  Biso   1.000  H
  H36      1.0000 0.15700  0.29800  0.84900  Biso   1.000  H
  H37      1.0000 0.07600  0.81200  0.66600  Biso   1.000  H
  H38      1.0000 0.42400  0.18800  0.16600  Biso   1.000  H
  H39      1.0000 0.57600  0.68800  0.33400  Biso   1.000  H
  H40      1.0000 0.92400  0.31200  0.83400  Biso   1.000  H
  H41      1.0000 0.14800  0.97800  0.61700  Biso   1.000  H
  H42      1.0000 0.35200  0.02200  0.11700  Biso   1.000  H
  H43      1.0000 0.64800  0.52200  0.38300  Biso   1.000  H
  H44      1.0000 0.85200  0.47800  0.88300  Biso   1.000  H
  H45      1.0000 0.97800  0.07700  0.55100  Biso   1.000  H
  H46      1.0000 0.52200  0.92300  0.05100  Biso   1.000  H
  H47      1.0000 0.47800  0.42300  0.44900  Biso   1.000  H
  H48      1.0000 0.02200  0.57700  0.94900  Biso   1.000  H
  H49      1.0000 0.59900  0.33200  0.58800  Biso   1.000  H
  H50      1.0000 0.90100  0.66800  0.08800  Biso   1.000  H
  H51      1.0000 0.09900  0.16800  0.41200  Biso   1.000  H
  H52      1.0000 0.40100  0.83200  0.91200  Biso   1.000  H
  H53      1.0000 0.69000  0.31800  0.72800  Biso   1.000  H
  H54      1.0000 0.81000  0.68200  0.22800  Biso   1.000  H
  H55      1.0000 0.19000  0.18200  0.27200  Biso   1.000  H
  H56      1.0000 0.31000  0.81800  0.77200  Biso   1.000  H
  H57      1.0000 0.55000  0.25600  0.72900  Biso   1.000  H
  H58      1.0000 0.95000  0.74400  0.22900  Biso   1.000  H
  H59      1.0000 0.05000  0.24400  0.27100  Biso   1.000  H
  H60      1.0000 0.45000  0.75600  0.77100  Biso   1.000  H
  H61      1.0000 0.52500  0.10600  0.76300  Biso   1.000  H
  H62      1.0000 0.97500  0.89400  0.26300  Biso   1.000  H
  H63      1.0000 0.02500  0.39400  0.23700  Biso   1.000  H
  H64      1.0000 0.47500  0.60600  0.73700  Biso   1.000  H
  H65      1.0000 0.60900  0.97900  0.83200  Biso   1.000  H
  H66      1.0000 0.89100  0.02100  0.33200  Biso   1.000  H
  H67      1.0000 0.10900  0.52100  0.16800  Biso   1.000  H
  H68      1.0000 0.39100  0.47900  0.66800  Biso   1.000  H
  H69      1.0000 0.55300  0.92700  0.29000  Biso   1.000  H
  H70      1.0000 0.94700  0.07300  0.79000  Biso   1.000  H
  H71      1.0000 0.05300  0.57300  0.71000  Biso   1.000  H
  H72      1.0000 0.44700  0.42700  0.21000  Biso   1.000  H
  H73      1.0000 0.87300  0.20000  0.73100  Biso   1.000  H
  H74      1.0000 0.62700  0.80000  0.23100  Biso   1.000  H
  H75      1.0000 0.37300  0.30000  0.26900  Biso   1.000  H
  H76      1.0000 0.12700  0.70000  0.76900  Biso   1.000  H
  H77      1.0000 0.70000  0.46800  0.15400  Biso   1.000  H
  H78      1.0000 0.80000  0.53200  0.65400  Biso   1.000  H
  H79      1.0000 0.20000  0.03200  0.84600  Biso   1.000  H
  H80      1.0000 0.30000  0.96800  0.34600  Biso   1.000  H
  H81      1.0000 0.75300  0.57200  0.63100  Biso   1.000  H
  H82      1.0000 0.74700  0.42800  0.13100  Biso   1.000  H
  H83      1.0000 0.25300  0.92800  0.36900  Biso   1.000  H
  H84      1.0000 0.24700  0.07200  0.86900  Biso   1.000  H
