data_image0
_cell_length_a       7.71211
_cell_length_b       14.4588
_cell_length_c       18.6934
_cell_angle_alpha    90
_cell_angle_beta     91.543
_cell_angle_gamma    90

_symmetry_space_group_name_H-M    "P 1"
_symmetry_int_tables_number       1

loop_
  _symmetry_equiv_pos_as_xyz
  'x, y, z'

loop_
  _atom_site_label
  _atom_site_occupancy
  _atom_site_fract_x
  _atom_site_fract_y
  _atom_site_fract_z
  _atom_site_thermal_displace_type
  _atom_site_B_iso_or_equiv
  _atom_site_type_symbol
  Ge1      1.0000 0.00000  0.00000  0.50000  Biso   1.000  Ge
  Ge2      1.0000 0.50000  0.50000  0.00000  Biso   1.000  Ge
  Cu1      1.0000 0.49497  0.19744  0.66001  Biso   1.000  Cu
  Cu2      1.0000 0.00503  0.69744  0.83999  Biso   1.000  Cu
  Cu3      1.0000 0.50503  0.80256  0.33999  Biso   1.000  Cu
  Cu4      1.0000 0.99497  0.30256  0.16001  Biso   1.000  Cu
  O1       1.0000 0.87930  0.10824  0.50033  Biso   1.000  O
  O2       1.0000 0.62070  0.60824  0.99967  Biso   1.000  O
  O3       1.0000 0.12070  0.89176  0.49967  Biso   1.000  O
  O4       1.0000 0.37930  0.39176  0.00033  Biso   1.000  O
  O5       1.0000 0.12210  0.03914  0.41586  Biso   1.000  O
  O6       1.0000 0.37790  0.53914  0.08414  Biso   1.000  O
  O7       1.0000 0.87790  0.96086  0.58414  Biso   1.000  O
  O8       1.0000 0.62210  0.46086  0.91586  Biso   1.000  O
  O9       1.0000 0.17030  0.06114  0.55772  Biso   1.000  O
  O10      1.0000 0.32970  0.56114  0.94228  Biso   1.000  O
  O11      1.0000 0.82970  0.93886  0.44228  Biso   1.000  O
  O12      1.0000 0.67030  0.43886  0.05772  Biso   1.000  O
  O13      1.0000 0.26360  0.20539  0.57550  Biso   1.000  O
  O14      1.0000 0.23640  0.70539  0.92450  Biso   1.000  O
  O15      1.0000 0.73640  0.79461  0.42450  Biso   1.000  O
  O16      1.0000 0.76360  0.29461  0.07550  Biso   1.000  O
  O17      1.0000 0.14050  0.60839  0.78287  Biso   1.000  O
  O18      1.0000 0.35950  0.10839  0.71713  Biso   1.000  O
  O19      1.0000 0.85950  0.39161  0.21713  Biso   1.000  O
  O20      1.0000 0.64050  0.89161  0.28287  Biso   1.000  O
  O21      1.0000 0.65910  0.26957  0.60609  Biso   1.000  O
  O22      1.0000 0.84090  0.76957  0.89391  Biso   1.000  O
  O23      1.0000 0.34090  0.73043  0.39391  Biso   1.000  O
  O24      1.0000 0.15910  0.23043  0.10609  Biso   1.000  O
  O25      1.0000 0.89150  0.19511  0.65087  Biso   1.000  O
  O26      1.0000 0.60850  0.69511  0.84913  Biso   1.000  O
  O27      1.0000 0.10850  0.80489  0.34913  Biso   1.000  O
  O28      1.0000 0.39150  0.30489  0.15087  Biso   1.000  O
  O29      1.0000 0.22350  0.13741  0.33746  Biso   1.000  O
  O30      1.0000 0.27650  0.63741  0.16254  Biso   1.000  O
  O31      1.0000 0.77650  0.86259  0.66254  Biso   1.000  O
  O32      1.0000 0.72350  0.36259  0.83746  Biso   1.000  O
  N1       1.0000 0.01390  0.50585  0.85481  Biso   1.000  N
  N2       1.0000 0.48610  0.00585  0.64519  Biso   1.000  N
  N3       1.0000 0.98610  0.49415  0.14519  Biso   1.000  N
  N4       1.0000 0.51390  0.99415  0.35481  Biso   1.000  N
  H1       1.0000 0.99720  0.44950  0.86770  Biso   1.000  H
  H2       1.0000 0.50280  0.94950  0.63230  Biso   1.000  H
  H3       1.0000 0.00280  0.55050  0.13230  Biso   1.000  H
  H4       1.0000 0.49720  0.05050  0.36770  Biso   1.000  H
  N5       1.0000 0.38610  0.30469  0.70707  Biso   1.000  N
  N6       1.0000 0.11390  0.80469  0.79293  Biso   1.000  N
  N7       1.0000 0.61390  0.69531  0.29293  Biso   1.000  N
  N8       1.0000 0.88610  0.19531  0.20707  Biso   1.000  N
  N9       1.0000 0.92930  0.58023  0.88799  Biso   1.000  N
  N10      1.0000 0.57070  0.08023  0.61201  Biso   1.000  N
  N11      1.0000 0.07070  0.41977  0.11201  Biso   1.000  N
  N12      1.0000 0.42930  0.91977  0.38799  Biso   1.000  N
  H5       1.0000 0.95770  0.58190  0.93440  Biso   1.000  H
  H6       1.0000 0.54230  0.08190  0.56560  Biso   1.000  H
  H7       1.0000 0.04230  0.41810  0.06560  Biso   1.000  H
  H8       1.0000 0.45770  0.91810  0.43440  Biso   1.000  H
  H9       1.0000 0.81480  0.57370  0.88330  Biso   1.000  H
  H10      1.0000 0.68520  0.07370  0.61670  Biso   1.000  H
  H11      1.0000 0.18520  0.42630  0.11670  Biso   1.000  H
  H12      1.0000 0.31480  0.92630  0.38330  Biso   1.000  H
  C1       1.0000 0.15660  0.15040  0.55155  Biso   1.000  C
  C2       1.0000 0.34340  0.65040  0.94845  Biso   1.000  C
  C3       1.0000 0.84340  0.84960  0.44845  Biso   1.000  C
  C4       1.0000 0.65660  0.34960  0.05155  Biso   1.000  C
  C5       1.0000 0.81690  0.24170  0.60435  Biso   1.000  C
  C6       1.0000 0.68310  0.74170  0.89565  Biso   1.000  C
  C7       1.0000 0.18310  0.75830  0.39565  Biso   1.000  C
  C8       1.0000 0.31690  0.25830  0.10435  Biso   1.000  C
  C9       1.0000 0.11910  0.52660  0.80339  Biso   1.000  C
  C10      1.0000 0.38090  0.02660  0.69661  Biso   1.000  C
  C11      1.0000 0.88090  0.47340  0.19661  Biso   1.000  C
  C12      1.0000 0.61910  0.97340  0.30339  Biso   1.000  C
  C13      1.0000 0.99990  0.18220  0.50572  Biso   1.000  C
  C14      1.0000 0.50010  0.68220  0.99428  Biso   1.000  C
  C15      1.0000 0.00010  0.81780  0.49428  Biso   1.000  C
  C16      1.0000 0.49990  0.31780  0.00572  Biso   1.000  C
  C17      1.0000 0.14240  0.12280  0.39189  Biso   1.000  C
  C18      1.0000 0.35760  0.62280  0.10811  Biso   1.000  C
  C19      1.0000 0.85760  0.87720  0.60811  Biso   1.000  C
  C20      1.0000 0.64240  0.37720  0.89189  Biso   1.000  C
  C21      1.0000 0.21230  0.44920  0.76958  Biso   1.000  C
  C22      1.0000 0.28770  0.94920  0.73042  Biso   1.000  C
  C23      1.0000 0.78770  0.55080  0.23042  Biso   1.000  C
  C24      1.0000 0.71230  0.05080  0.26958  Biso   1.000  C
  C25      1.0000 0.91260  0.26710  0.53745  Biso   1.000  C
  C26      1.0000 0.58740  0.76710  0.96255  Biso   1.000  C
  C27      1.0000 0.08740  0.73290  0.46255  Biso   1.000  C
  C28      1.0000 0.41260  0.23290  0.03745  Biso   1.000  C
  H13      1.0000 0.99960  0.31360  0.54900  Biso   1.000  H
  H14      1.0000 0.50040  0.81360  0.95100  Biso   1.000  H
  H15      1.0000 0.00040  0.68640  0.45100  Biso   1.000  H
  H16      1.0000 0.49960  0.18640  0.04900  Biso   1.000  H
  H17      1.0000 0.83160  0.29330  0.50240  Biso   1.000  H
  H18      1.0000 0.66840  0.79330  0.99760  Biso   1.000  H
  H19      1.0000 0.16840  0.70670  0.49760  Biso   1.000  H
  H20      1.0000 0.33160  0.20670  0.00240  Biso   1.000  H
  C29      1.0000 0.06450  0.20370  0.43074  Biso   1.000  C
  C30      1.0000 0.43550  0.70370  0.06926  Biso   1.000  C
  C31      1.0000 0.93550  0.79630  0.56926  Biso   1.000  C
  C32      1.0000 0.56450  0.29630  0.93074  Biso   1.000  C
  H21      1.0000 0.96790  0.22740  0.40190  Biso   1.000  H
  H22      1.0000 0.53210  0.72740  0.09810  Biso   1.000  H
  H23      1.0000 0.03210  0.77260  0.59810  Biso   1.000  H
  H24      1.0000 0.46790  0.27260  0.90190  Biso   1.000  H
  H25      1.0000 0.15080  0.25230  0.43470  Biso   1.000  H
  H26      1.0000 0.34920  0.75230  0.06530  Biso   1.000  H
  H27      1.0000 0.84920  0.74770  0.56530  Biso   1.000  H
  H28      1.0000 0.65080  0.24770  0.93470  Biso   1.000  H
  C33      1.0000 0.37870  0.46060  0.74707  Biso   1.000  C
  C34      1.0000 0.12130  0.96060  0.75293  Biso   1.000  C
  C35      1.0000 0.62130  0.53940  0.25293  Biso   1.000  C
  C36      1.0000 0.87870  0.03940  0.24707  Biso   1.000  C
  H29      1.0000 0.43480  0.51720  0.75270  Biso   1.000  H
  H30      1.0000 0.06520  0.01720  0.74730  Biso   1.000  H
  H31      1.0000 0.56520  0.48280  0.24730  Biso   1.000  H
  H32      1.0000 0.93480  0.98280  0.25270  Biso   1.000  H
  C37      1.0000 0.46170  0.38690  0.71595  Biso   1.000  C
  C38      1.0000 0.03830  0.88690  0.78405  Biso   1.000  C
  C39      1.0000 0.53830  0.61310  0.28405  Biso   1.000  C
  C40      1.0000 0.96170  0.11310  0.21595  Biso   1.000  C
  H33      1.0000 0.57440  0.39490  0.70060  Biso   1.000  H
  H34      1.0000 0.92560  0.89490  0.79940  Biso   1.000  H
  H35      1.0000 0.42560  0.60510  0.29940  Biso   1.000  H
  H36      1.0000 0.07440  0.10510  0.20060  Biso   1.000  H
  C41      1.0000 0.22350  0.29430  0.72800  Biso   1.000  C
  C42      1.0000 0.27650  0.79430  0.77200  Biso   1.000  C
  C43      1.0000 0.77650  0.70570  0.27200  Biso   1.000  C
  C44      1.0000 0.72350  0.20570  0.22800  Biso   1.000  C
  H37      1.0000 0.16910  0.23750  0.72080  Biso   1.000  H
  H38      1.0000 0.33090  0.73750  0.77920  Biso   1.000  H
  H39      1.0000 0.83090  0.76250  0.27920  Biso   1.000  H
  H40      1.0000 0.66910  0.26250  0.22080  Biso   1.000  H
  C45      1.0000 0.13310  0.36440  0.75990  Biso   1.000  C
  C46      1.0000 0.36690  0.86440  0.74010  Biso   1.000  C
  C47      1.0000 0.86690  0.63560  0.24010  Biso   1.000  C
  C48      1.0000 0.63310  0.13560  0.25990  Biso   1.000  C
  H41      1.0000 0.02030  0.35480  0.77460  Biso   1.000  H
  H42      1.0000 0.47970  0.85480  0.72540  Biso   1.000  H
  H43      1.0000 0.97970  0.64520  0.22540  Biso   1.000  H
  H44      1.0000 0.52030  0.14520  0.27460  Biso   1.000  H
  O33      1.0000 0.54480  0.13681  0.45073  Biso   1.000  O
  O34      1.0000 0.95520  0.63681  0.04927  Biso   1.000  O
  O35      1.0000 0.45520  0.86319  0.54927  Biso   1.000  O
  O36      1.0000 0.04480  0.36319  0.95073  Biso   1.000  O
  H45      1.0000 0.54240  0.19430  0.46250  Biso   1.000  H
  H46      1.0000 0.95760  0.69430  0.03750  Biso   1.000  H
  H47      1.0000 0.45760  0.80570  0.53750  Biso   1.000  H
  H48      1.0000 0.04240  0.30570  0.96250  Biso   1.000  H
  H49      1.0000 0.64540  0.11470  0.44160  Biso   1.000  H
  H50      1.0000 0.85460  0.61470  0.05840  Biso   1.000  H
  H51      1.0000 0.35460  0.88530  0.55840  Biso   1.000  H
  H52      1.0000 0.14540  0.38530  0.94160  Biso   1.000  H
  O37      1.0000 0.75220  0.18480  0.78080  Biso   1.000  O
  O38      1.0000 0.74780  0.68480  0.71920  Biso   1.000  O
  O39      1.0000 0.24780  0.81520  0.21920  Biso   1.000  O
  O40      1.0000 0.25220  0.31520  0.28080  Biso   1.000  O
  H53      1.0000 0.81330  0.17360  0.74470  Biso   1.000  H
  H54      1.0000 0.68670  0.67360  0.75530  Biso   1.000  H
  H55      1.0000 0.18670  0.82640  0.25530  Biso   1.000  H
  H56      1.0000 0.31330  0.32640  0.24470  Biso   1.000  H
  H57      1.0000 0.77450  0.23900  0.79620  Biso   1.000  H
  H58      1.0000 0.72550  0.73900  0.70380  Biso   1.000  H
  H59      1.0000 0.22550  0.76100  0.20380  Biso   1.000  H
  H60      1.0000 0.27450  0.26100  0.29620  Biso   1.000  H
