data_image0
_cell_length_a       9.937
_cell_length_b       6.797
_cell_length_c       16.711
_cell_angle_alpha    90
_cell_angle_beta     90
_cell_angle_gamma    90

_symmetry_space_group_name_H-M    "P 1"
_symmetry_int_tables_number       1

loop_
  _symmetry_equiv_pos_as_xyz
  'x, y, z'

loop_
  _atom_site_label
  _atom_site_occupancy
  _atom_site_fract_x
  _atom_site_fract_y
  _atom_site_fract_z
  _atom_site_thermal_displace_type
  _atom_site_B_iso_or_equiv
  _atom_site_type_symbol
  Cu1      1.0000 0.66957  0.25000  0.73923  Biso   1.000  Cu
  Cu2      1.0000 0.83043  0.75000  0.23923  Biso   1.000  Cu
  Cu3      1.0000 0.16957  0.25000  0.76077  Biso   1.000  Cu
  Cu4      1.0000 0.33043  0.75000  0.26077  Biso   1.000  Cu
  O1       1.0000 0.71310  0.25000  0.62510  Biso   1.000  O
  O2       1.0000 0.78690  0.75000  0.12510  Biso   1.000  O
  O3       1.0000 0.21310  0.25000  0.87490  Biso   1.000  O
  O4       1.0000 0.28690  0.75000  0.37490  Biso   1.000  O
  O5       1.0000 0.89820  0.25000  0.74540  Biso   1.000  O
  O6       1.0000 0.60180  0.75000  0.24540  Biso   1.000  O
  O7       1.0000 0.39820  0.25000  0.75460  Biso   1.000  O
  O8       1.0000 0.10180  0.75000  0.25460  Biso   1.000  O
  O9       1.0000 0.61090  0.25000  0.45060  Biso   1.000  O
  O10      1.0000 0.88910  0.75000  0.95060  Biso   1.000  O
  O11      1.0000 0.11090  0.25000  0.04940  Biso   1.000  O
  O12      1.0000 0.38910  0.75000  0.54940  Biso   1.000  O
  N1       1.0000 0.87690  0.25000  0.53160  Biso   1.000  N
  N2       1.0000 0.62310  0.75000  0.03160  Biso   1.000  N
  N3       1.0000 0.37690  0.25000  0.96840  Biso   1.000  N
  N4       1.0000 0.12310  0.75000  0.46840  Biso   1.000  N
  N5       1.0000 0.06920  0.25000  0.65640  Biso   1.000  N
  N6       1.0000 0.43080  0.75000  0.15640  Biso   1.000  N
  N7       1.0000 0.56920  0.25000  0.84360  Biso   1.000  N
  N8       1.0000 0.93080  0.75000  0.34360  Biso   1.000  N
  N9       1.0000 0.08290  0.25000  0.36900  Biso   1.000  N
  N10      1.0000 0.41710  0.75000  0.86900  Biso   1.000  N
  N11      1.0000 0.58290  0.25000  0.13100  Biso   1.000  N
  N12      1.0000 0.91710  0.75000  0.63100  Biso   1.000  N
  N13      1.0000 0.36050  0.25000  0.54750  Biso   1.000  N
  N14      1.0000 0.13950  0.75000  0.04750  Biso   1.000  N
  N15      1.0000 0.86050  0.25000  0.95250  Biso   1.000  N
  N16      1.0000 0.63950  0.75000  0.45250  Biso   1.000  N
  N17      1.0000 0.66540  0.54680  0.73750  Biso   1.000  N
  N18      1.0000 0.83460  0.04680  0.23750  Biso   1.000  N
  N19      1.0000 0.66540  0.95320  0.73750  Biso   1.000  N
  N20      1.0000 0.16540  0.54680  0.76250  Biso   1.000  N
  N21      1.0000 0.33460  0.45320  0.26250  Biso   1.000  N
  N22      1.0000 0.16540  0.95320  0.76250  Biso   1.000  N
  N23      1.0000 0.33460  0.04680  0.26250  Biso   1.000  N
  N24      1.0000 0.83460  0.45320  0.23750  Biso   1.000  N
  C1       1.0000 0.83790  0.25000  0.60710  Biso   1.000  C
  C2       1.0000 0.66210  0.75000  0.10710  Biso   1.000  C
  C3       1.0000 0.33790  0.25000  0.89290  Biso   1.000  C
  C4       1.0000 0.16210  0.75000  0.39290  Biso   1.000  C
  C5       1.0000 0.93710  0.25000  0.67420  Biso   1.000  C
  C6       1.0000 0.56290  0.75000  0.17420  Biso   1.000  C
  C7       1.0000 0.43710  0.25000  0.82580  Biso   1.000  C
  C8       1.0000 0.06290  0.75000  0.32580  Biso   1.000  C
  C9       1.0000 0.10590  0.25000  0.57790  Biso   1.000  C
  C10      1.0000 0.39410  0.75000  0.07790  Biso   1.000  C
  C11      1.0000 0.60590  0.25000  0.92210  Biso   1.000  C
  C12      1.0000 0.89410  0.75000  0.42210  Biso   1.000  C
  C13      1.0000 0.01200  0.25000  0.51800  Biso   1.000  C
  C14      1.0000 0.48800  0.75000  0.01800  Biso   1.000  C
  C15      1.0000 0.51200  0.25000  0.98200  Biso   1.000  C
  C16      1.0000 0.98800  0.75000  0.48200  Biso   1.000  C
  C17      1.0000 0.24770  0.25000  0.56090  Biso   1.000  C
  C18      1.0000 0.25230  0.75000  0.06090  Biso   1.000  C
  C19      1.0000 0.74770  0.25000  0.93910  Biso   1.000  C
  C20      1.0000 0.75230  0.75000  0.43910  Biso   1.000  C
  C21      1.0000 0.05310  0.25000  0.43550  Biso   1.000  C
  C22      1.0000 0.44690  0.75000  0.93550  Biso   1.000  C
  C23      1.0000 0.55310  0.25000  0.06450  Biso   1.000  C
  C24      1.0000 0.94690  0.75000  0.56450  Biso   1.000  C
  C25      1.0000 0.73310  0.64770  0.79310  Biso   1.000  C
  C26      1.0000 0.76690  0.14770  0.29310  Biso   1.000  C
  C27      1.0000 0.73310  0.85230  0.79310  Biso   1.000  C
  C28      1.0000 0.23310  0.64770  0.70690  Biso   1.000  C
  C29      1.0000 0.26690  0.35230  0.20690  Biso   1.000  C
  C30      1.0000 0.23310  0.85230  0.70690  Biso   1.000  C
  C31      1.0000 0.26690  0.14770  0.20690  Biso   1.000  C
  C32      1.0000 0.76690  0.35230  0.29310  Biso   1.000  C
  C33      1.0000 0.59870  0.64830  0.68200  Biso   1.000  C
  C34      1.0000 0.90130  0.14830  0.18200  Biso   1.000  C
  C35      1.0000 0.59870  0.85170  0.68200  Biso   1.000  C
  C36      1.0000 0.09870  0.64830  0.81800  Biso   1.000  C
  C37      1.0000 0.40130  0.35170  0.31800  Biso   1.000  C
  C38      1.0000 0.09870  0.85170  0.81800  Biso   1.000  C
  C39      1.0000 0.40130  0.14830  0.31800  Biso   1.000  C
  C40      1.0000 0.90130  0.35170  0.18200  Biso   1.000  C
  H1       1.0000 0.78300  0.56600  0.83600  Biso   1.000  H
  H2       1.0000 0.71700  0.06600  0.33600  Biso   1.000  H
  H3       1.0000 0.78300  0.93400  0.83600  Biso   1.000  H
  H4       1.0000 0.28300  0.56600  0.66400  Biso   1.000  H
  H5       1.0000 0.21700  0.43400  0.16400  Biso   1.000  H
  H6       1.0000 0.28300  0.93400  0.66400  Biso   1.000  H
  H7       1.0000 0.21700  0.06600  0.16400  Biso   1.000  H
  H8       1.0000 0.71700  0.43400  0.33600  Biso   1.000  H
  H9       1.0000 0.54600  0.58100  0.64300  Biso   1.000  H
  H10      1.0000 0.95400  0.08100  0.14300  Biso   1.000  H
  H11      1.0000 0.54600  0.91900  0.64300  Biso   1.000  H
  H12      1.0000 0.04600  0.58100  0.85700  Biso   1.000  H
  H13      1.0000 0.45400  0.41900  0.35700  Biso   1.000  H
  H14      1.0000 0.04600  0.91900  0.85700  Biso   1.000  H
  H15      1.0000 0.45400  0.08100  0.35700  Biso   1.000  H
  H16      1.0000 0.95400  0.41900  0.14300  Biso   1.000  H
  H17      1.0000 0.68600  0.25000  0.47200  Biso   1.000  H
  H18      1.0000 0.81400  0.75000  0.97200  Biso   1.000  H
  H19      1.0000 0.18600  0.25000  0.02800  Biso   1.000  H
  H20      1.0000 0.31400  0.75000  0.52800  Biso   1.000  H
  H21      1.0000 0.52800  0.25000  0.48400  Biso   1.000  H
  H22      1.0000 0.97200  0.75000  0.98400  Biso   1.000  H
  H23      1.0000 0.02800  0.25000  0.01600  Biso   1.000  H
  H24      1.0000 0.47200  0.75000  0.51600  Biso   1.000  H
