data_image0
_cell_length_a       17.8783
_cell_length_b       9.895
_cell_length_c       11.1147
_cell_angle_alpha    90
_cell_angle_beta     106.166
_cell_angle_gamma    90

_symmetry_space_group_name_H-M    "P 1"
_symmetry_int_tables_number       1

loop_
  _symmetry_equiv_pos_as_xyz
  'x, y, z'

loop_
  _atom_site_label
  _atom_site_occupancy
  _atom_site_fract_x
  _atom_site_fract_y
  _atom_site_fract_z
  _atom_site_thermal_displace_type
  _atom_site_B_iso_or_equiv
  _atom_site_type_symbol
  Cu1      1.0000 0.24056  0.16400  0.24040  Biso   1.000  Cu
  Cu2      1.0000 0.74056  0.33600  0.74040  Biso   1.000  Cu
  Cu3      1.0000 0.75944  0.83600  0.75960  Biso   1.000  Cu
  Cu4      1.0000 0.25944  0.66400  0.25960  Biso   1.000  Cu
  O1       1.0000 0.24500  0.39520  0.24410  Biso   1.000  O
  O2       1.0000 0.74500  0.10480  0.74410  Biso   1.000  O
  O3       1.0000 0.75500  0.60480  0.75590  Biso   1.000  O
  O4       1.0000 0.25500  0.89520  0.25590  Biso   1.000  O
  O5       1.0000 0.12830  0.20370  0.19090  Biso   1.000  O
  O6       1.0000 0.62830  0.29630  0.69090  Biso   1.000  O
  O7       1.0000 0.87170  0.79630  0.80910  Biso   1.000  O
  O8       1.0000 0.37170  0.70370  0.30910  Biso   1.000  O
  O9       1.0000 0.96500  0.11400  0.17900  Biso   1.000  O
  O10      1.0000 0.46500  0.38600  0.67900  Biso   1.000  O
  O11      1.0000 0.03500  0.88600  0.82100  Biso   1.000  O
  O12      1.0000 0.53500  0.61400  0.32100  Biso   1.000  O
  O13      1.0000 0.54500  0.15600  0.02800  Biso   1.000  O
  O14      1.0000 0.04500  0.34400  0.52800  Biso   1.000  O
  O15      1.0000 0.45500  0.84400  0.97200  Biso   1.000  O
  O16      1.0000 0.95500  0.65600  0.47200  Biso   1.000  O
  O17      1.0000 0.47400  0.37500  0.94100  Biso   1.000  O
  O18      1.0000 0.97400  0.12500  0.44100  Biso   1.000  O
  O19      1.0000 0.52600  0.62500  0.05900  Biso   1.000  O
  O20      1.0000 0.02600  0.87500  0.55900  Biso   1.000  O
  N1       1.0000 0.24120  0.15900  0.42280  Biso   1.000  N
  N2       1.0000 0.74120  0.34100  0.92280  Biso   1.000  N
  N3       1.0000 0.75880  0.84100  0.57720  Biso   1.000  N
  N4       1.0000 0.25880  0.65900  0.07720  Biso   1.000  N
  N5       1.0000 0.23810  0.15700  0.05930  Biso   1.000  N
  N6       1.0000 0.73810  0.34300  0.55930  Biso   1.000  N
  N7       1.0000 0.76190  0.84300  0.94070  Biso   1.000  N
  N8       1.0000 0.26190  0.65700  0.44070  Biso   1.000  N
  N9       1.0000 0.03670  0.36900  0.15630  Biso   1.000  N
  N10      1.0000 0.53670  0.13100  0.65630  Biso   1.000  N
  N11      1.0000 0.96330  0.63100  0.84370  Biso   1.000  N
  N12      1.0000 0.46330  0.86900  0.34370  Biso   1.000  N
  N13      1.0000 0.87700  0.57300  0.09400  Biso   1.000  N
  N14      1.0000 0.37700  0.92700  0.59400  Biso   1.000  N
  N15      1.0000 0.12300  0.42700  0.90600  Biso   1.000  N
  N16      1.0000 0.62300  0.07300  0.40600  Biso   1.000  N
  N17      1.0000 0.05000  0.85300  0.17000  Biso   1.000  N
  N18      1.0000 0.55000  0.64700  0.67000  Biso   1.000  N
  N19      1.0000 0.95000  0.14700  0.83000  Biso   1.000  N
  N20      1.0000 0.45000  0.35300  0.33000  Biso   1.000  N
  N21      1.0000 0.15380  0.56450  0.21070  Biso   1.000  N
  N22      1.0000 0.65380  0.93550  0.71070  Biso   1.000  N
  N23      1.0000 0.84620  0.43550  0.78930  Biso   1.000  N
  N24      1.0000 0.34620  0.06450  0.28930  Biso   1.000  N
  C1       1.0000 0.19190  0.07700  0.46000  Biso   1.000  C
  C2       1.0000 0.69190  0.42300  0.96000  Biso   1.000  C
  C3       1.0000 0.80810  0.92300  0.54000  Biso   1.000  C
  C4       1.0000 0.30810  0.57700  0.04000  Biso   1.000  C
  C5       1.0000 0.19290  0.07400  0.58400  Biso   1.000  C
  C6       1.0000 0.69290  0.42600  0.08400  Biso   1.000  C
  C7       1.0000 0.80710  0.92600  0.41600  Biso   1.000  C
  C8       1.0000 0.30710  0.57400  0.91600  Biso   1.000  C
  C9       1.0000 0.28800  0.23700  0.63000  Biso   1.000  C
  C10      1.0000 0.78800  0.26300  0.13000  Biso   1.000  C
  C11      1.0000 0.71200  0.76300  0.37000  Biso   1.000  C
  C12      1.0000 0.21200  0.73700  0.87000  Biso   1.000  C
  C13      1.0000 0.28920  0.23700  0.50700  Biso   1.000  C
  C14      1.0000 0.78920  0.26300  0.00700  Biso   1.000  C
  C15      1.0000 0.71080  0.76300  0.49300  Biso   1.000  C
  C16      1.0000 0.21080  0.73700  0.99300  Biso   1.000  C
  C17      1.0000 0.23900  0.15400  0.67400  Biso   1.000  C
  C18      1.0000 0.73900  0.34600  0.17400  Biso   1.000  C
  C19      1.0000 0.76100  0.84600  0.32600  Biso   1.000  C
  C20      1.0000 0.26100  0.65400  0.82600  Biso   1.000  C
  C21      1.0000 0.23880  0.15600  0.80400  Biso   1.000  C
  C22      1.0000 0.73880  0.34400  0.30400  Biso   1.000  C
  C23      1.0000 0.76120  0.84400  0.19600  Biso   1.000  C
  C24      1.0000 0.26120  0.65600  0.69600  Biso   1.000  C
  C25      1.0000 0.29900  0.20500  0.89900  Biso   1.000  C
  C26      1.0000 0.79900  0.29500  0.39900  Biso   1.000  C
  C27      1.0000 0.70100  0.79500  0.10100  Biso   1.000  C
  C28      1.0000 0.20100  0.70500  0.60100  Biso   1.000  C
  C29      1.0000 0.18040  0.11000  0.97300  Biso   1.000  C
  C30      1.0000 0.68040  0.39000  0.47300  Biso   1.000  C
  C31      1.0000 0.81960  0.89000  0.02700  Biso   1.000  C
  C32      1.0000 0.31960  0.61000  0.52700  Biso   1.000  C
  C33      1.0000 0.17690  0.10600  0.84500  Biso   1.000  C
  C34      1.0000 0.67690  0.39400  0.34500  Biso   1.000  C
  C35      1.0000 0.82310  0.89400  0.15500  Biso   1.000  C
  C36      1.0000 0.32310  0.60600  0.65500  Biso   1.000  C
  C37      1.0000 0.29640  0.20400  0.02200  Biso   1.000  C
  C38      1.0000 0.79640  0.29600  0.52200  Biso   1.000  C
  C39      1.0000 0.70360  0.79600  0.97800  Biso   1.000  C
  C40      1.0000 0.20360  0.70400  0.47800  Biso   1.000  C
  C41      1.0000 0.17900  0.42900  0.21730  Biso   1.000  C
  C42      1.0000 0.67900  0.07100  0.71730  Biso   1.000  C
  C43      1.0000 0.82100  0.57100  0.78270  Biso   1.000  C
  C44      1.0000 0.32100  0.92900  0.28270  Biso   1.000  C
  C45      1.0000 0.10840  0.33400  0.18630  Biso   1.000  C
  C46      1.0000 0.60840  0.16600  0.68630  Biso   1.000  C
  C47      1.0000 0.89160  0.66600  0.81370  Biso   1.000  C
  C48      1.0000 0.39160  0.83400  0.31370  Biso   1.000  C
  C49      1.0000 0.02210  0.50700  0.15400  Biso   1.000  C
  C50      1.0000 0.52210  0.99300  0.65400  Biso   1.000  C
  C51      1.0000 0.97790  0.49300  0.84600  Biso   1.000  C
  C52      1.0000 0.47790  0.00700  0.34600  Biso   1.000  C
  C53      1.0000 0.94090  0.54600  0.12300  Biso   1.000  C
  C54      1.0000 0.44090  0.95400  0.62300  Biso   1.000  C
  C55      1.0000 0.05910  0.45400  0.87700  Biso   1.000  C
  C56      1.0000 0.55910  0.04600  0.37700  Biso   1.000  C
  C57      1.0000 0.08180  0.59800  0.17900  Biso   1.000  C
  C58      1.0000 0.58180  0.90200  0.67900  Biso   1.000  C
  C59      1.0000 0.91820  0.40200  0.82100  Biso   1.000  C
  C60      1.0000 0.41820  0.09800  0.32100  Biso   1.000  C
  C61      1.0000 0.06200  0.74000  0.17200  Biso   1.000  C
  C62      1.0000 0.56200  0.76000  0.67200  Biso   1.000  C
  C63      1.0000 0.93800  0.26000  0.82800  Biso   1.000  C
  C64      1.0000 0.43800  0.24000  0.32800  Biso   1.000  C
  H1       1.0000 0.15630  0.02190  0.39950  Biso   1.000  H
  H2       1.0000 0.65630  0.47810  0.89950  Biso   1.000  H
  H3       1.0000 0.84370  0.97810  0.60050  Biso   1.000  H
  H4       1.0000 0.34370  0.52190  0.10050  Biso   1.000  H
  H5       1.0000 0.15900  0.01050  0.60850  Biso   1.000  H
  H6       1.0000 0.65900  0.48950  0.10850  Biso   1.000  H
  H7       1.0000 0.84100  0.98950  0.39150  Biso   1.000  H
  H8       1.0000 0.34100  0.51050  0.89150  Biso   1.000  H
  H9       1.0000 0.32200  0.29670  0.68740  Biso   1.000  H
  H10      1.0000 0.82200  0.20330  0.18740  Biso   1.000  H
  H11      1.0000 0.67800  0.70330  0.31260  Biso   1.000  H
  H12      1.0000 0.17800  0.79670  0.81260  Biso   1.000  H
  H13      1.0000 0.32550  0.29360  0.48120  Biso   1.000  H
  H14      1.0000 0.82550  0.20640  0.98120  Biso   1.000  H
  H15      1.0000 0.67450  0.70640  0.51880  Biso   1.000  H
  H16      1.0000 0.17450  0.79360  0.01880  Biso   1.000  H
  H17      1.0000 0.34510  0.23890  0.87930  Biso   1.000  H
  H18      1.0000 0.84510  0.26110  0.37930  Biso   1.000  H
  H19      1.0000 0.65490  0.76110  0.12070  Biso   1.000  H
  H20      1.0000 0.15490  0.73890  0.62070  Biso   1.000  H
  H21      1.0000 0.13690  0.07570  0.99750  Biso   1.000  H
  H22      1.0000 0.63690  0.42430  0.49750  Biso   1.000  H
  H23      1.0000 0.86310  0.92430  0.00250  Biso   1.000  H
  H24      1.0000 0.36310  0.57570  0.50250  Biso   1.000  H
  H25      1.0000 0.13230  0.06850  0.78500  Biso   1.000  H
  H26      1.0000 0.63230  0.43150  0.28500  Biso   1.000  H
  H27      1.0000 0.86770  0.93150  0.21500  Biso   1.000  H
  H28      1.0000 0.36770  0.56850  0.71500  Biso   1.000  H
  H29      1.0000 0.33970  0.24140  0.08490  Biso   1.000  H
  H30      1.0000 0.83970  0.25860  0.58490  Biso   1.000  H
  H31      1.0000 0.66030  0.75860  0.91510  Biso   1.000  H
  H32      1.0000 0.16030  0.74140  0.41510  Biso   1.000  H
