data_image0
_cell_length_a       11.889
_cell_length_b       7.3309
_cell_length_c       15.901
_cell_angle_alpha    90
_cell_angle_beta     108.884
_cell_angle_gamma    90

_symmetry_space_group_name_H-M    "P 1"
_symmetry_int_tables_number       1

loop_
  _symmetry_equiv_pos_as_xyz
  'x, y, z'

loop_
  _atom_site_label
  _atom_site_occupancy
  _atom_site_fract_x
  _atom_site_fract_y
  _atom_site_fract_z
  _atom_site_thermal_displace_type
  _atom_site_B_iso_or_equiv
  _atom_site_type_symbol
  Cu1      1.0000 0.10833  0.24986  0.35537  Biso   1.000  Cu
  Cu2      1.0000 0.89167  0.74986  0.14463  Biso   1.000  Cu
  Cu3      1.0000 0.89167  0.75014  0.64463  Biso   1.000  Cu
  Cu4      1.0000 0.10833  0.25014  0.85537  Biso   1.000  Cu
  O1       1.0000 0.92690  0.27000  0.79290  Biso   1.000  O
  O2       1.0000 0.07310  0.77000  0.70710  Biso   1.000  O
  O3       1.0000 0.07310  0.73000  0.20710  Biso   1.000  O
  O4       1.0000 0.92690  0.23000  0.29290  Biso   1.000  O
  O5       1.0000 0.91480  0.47900  0.68808  Biso   1.000  O
  O6       1.0000 0.08520  0.97900  0.81192  Biso   1.000  O
  O7       1.0000 0.08520  0.52100  0.31192  Biso   1.000  O
  O8       1.0000 0.91480  0.02100  0.18808  Biso   1.000  O
  O9       1.0000 0.14490  0.15280  0.24519  Biso   1.000  O
  O10      1.0000 0.85510  0.65280  0.25481  Biso   1.000  O
  O11      1.0000 0.85510  0.84720  0.75481  Biso   1.000  O
  O12      1.0000 0.14490  0.34720  0.74519  Biso   1.000  O
  H1       1.0000 0.08540  0.08800  0.21950  Biso   1.000  H
  H2       1.0000 0.91460  0.58800  0.28050  Biso   1.000  H
  H3       1.0000 0.91460  0.91200  0.78050  Biso   1.000  H
  H4       1.0000 0.08540  0.41200  0.71950  Biso   1.000  H
  H5       1.0000 0.14020  0.23980  0.20770  Biso   1.000  H
  H6       1.0000 0.85980  0.73980  0.29230  Biso   1.000  H
  H7       1.0000 0.85980  0.76020  0.79230  Biso   1.000  H
  H8       1.0000 0.14020  0.26020  0.70770  Biso   1.000  H
  O13      1.0000 0.10170  0.98000  0.39394  Biso   1.000  O
  O14      1.0000 0.89830  0.48000  0.10606  Biso   1.000  O
  O15      1.0000 0.89830  0.02000  0.60606  Biso   1.000  O
  O16      1.0000 0.10170  0.52000  0.89394  Biso   1.000  O
  H9       1.0000 0.02920  0.94900  0.39090  Biso   1.000  H
  H10      1.0000 0.97080  0.44900  0.10910  Biso   1.000  H
  H11      1.0000 0.97080  0.05100  0.60910  Biso   1.000  H
  H12      1.0000 0.02920  0.55100  0.89090  Biso   1.000  H
  H13      1.0000 0.14790  0.96290  0.44890  Biso   1.000  H
  H14      1.0000 0.85210  0.46290  0.05110  Biso   1.000  H
  H15      1.0000 0.85210  0.03710  0.55110  Biso   1.000  H
  H16      1.0000 0.14790  0.53710  0.94890  Biso   1.000  H
  O17      1.0000 0.85760  0.60220  0.88425  Biso   1.000  O
  O18      1.0000 0.14240  0.10220  0.61575  Biso   1.000  O
  O19      1.0000 0.14240  0.39780  0.11575  Biso   1.000  O
  O20      1.0000 0.85760  0.89780  0.38425  Biso   1.000  O
  O21      1.0000 0.06460  0.32920  0.46740  Biso   1.000  O
  O22      1.0000 0.93540  0.82920  0.03260  Biso   1.000  O
  O23      1.0000 0.93540  0.67080  0.53260  Biso   1.000  O
  O24      1.0000 0.06460  0.17080  0.96740  Biso   1.000  O
  H17      1.0000 0.09730  0.42700  0.48970  Biso   1.000  H
  H18      1.0000 0.90270  0.92700  0.01030  Biso   1.000  H
  H19      1.0000 0.90270  0.57300  0.51030  Biso   1.000  H
  H20      1.0000 0.09730  0.07300  0.98970  Biso   1.000  H
  H21      1.0000 0.09080  0.24760  0.50530  Biso   1.000  H
  H22      1.0000 0.90920  0.74760  0.99470  Biso   1.000  H
  H23      1.0000 0.90920  0.75240  0.49470  Biso   1.000  H
  H24      1.0000 0.09080  0.25240  0.00530  Biso   1.000  H
  O25      1.0000 0.75150  0.42010  0.94128  Biso   1.000  O
  O26      1.0000 0.24850  0.92010  0.55872  Biso   1.000  O
  O27      1.0000 0.24850  0.57990  0.05872  Biso   1.000  O
  O28      1.0000 0.75150  0.07990  0.44128  Biso   1.000  O
  N1       1.0000 0.45800  0.29400  0.53236  Biso   1.000  N
  N2       1.0000 0.54200  0.79400  0.96764  Biso   1.000  N
  N3       1.0000 0.54200  0.70600  0.46764  Biso   1.000  N
  N4       1.0000 0.45800  0.20600  0.03236  Biso   1.000  N
  N5       1.0000 0.28750  0.25670  0.42436  Biso   1.000  N
  N6       1.0000 0.71250  0.75670  0.07564  Biso   1.000  N
  N7       1.0000 0.71250  0.74330  0.57564  Biso   1.000  N
  N8       1.0000 0.28750  0.24330  0.92436  Biso   1.000  N
  C1       1.0000 0.87050  0.37970  0.73380  Biso   1.000  C
  C2       1.0000 0.12950  0.87970  0.76620  Biso   1.000  C
  C3       1.0000 0.12950  0.62030  0.26620  Biso   1.000  C
  C4       1.0000 0.87050  0.12030  0.23380  Biso   1.000  C
  C5       1.0000 0.73860  0.38940  0.71720  Biso   1.000  C
  C6       1.0000 0.26140  0.88940  0.78280  Biso   1.000  C
  C7       1.0000 0.26140  0.61060  0.28280  Biso   1.000  C
  C8       1.0000 0.73860  0.11060  0.21720  Biso   1.000  C
  C9       1.0000 0.66030  0.33970  0.63350  Biso   1.000  C
  C10      1.0000 0.33970  0.83970  0.86650  Biso   1.000  C
  C11      1.0000 0.33970  0.66030  0.36650  Biso   1.000  C
  C12      1.0000 0.66030  0.16030  0.13350  Biso   1.000  C
  H25      1.0000 0.68990  0.30420  0.58860  Biso   1.000  H
  H26      1.0000 0.31010  0.80420  0.91140  Biso   1.000  H
  H27      1.0000 0.31010  0.69580  0.41140  Biso   1.000  H
  H28      1.0000 0.68990  0.19580  0.08860  Biso   1.000  H
  C13      1.0000 0.57190  0.44120  0.76790  Biso   1.000  C
  C14      1.0000 0.42810  0.94120  0.73210  Biso   1.000  C
  C15      1.0000 0.42810  0.55880  0.23210  Biso   1.000  C
  C16      1.0000 0.57190  0.05880  0.26790  Biso   1.000  C
  H29      1.0000 0.54160  0.47320  0.81300  Biso   1.000  H
  H30      1.0000 0.45840  0.97320  0.68700  Biso   1.000  H
  H31      1.0000 0.45840  0.52680  0.18700  Biso   1.000  H
  H32      1.0000 0.54160  0.02680  0.31300  Biso   1.000  H
  C17      1.0000 0.48330  0.21470  0.46240  Biso   1.000  C
  C18      1.0000 0.51670  0.71470  0.03760  Biso   1.000  C
  C19      1.0000 0.51670  0.78530  0.53760  Biso   1.000  C
  C20      1.0000 0.48330  0.28530  0.96240  Biso   1.000  C
  H33      1.0000 0.55810  0.18320  0.46020  Biso   1.000  H
  H34      1.0000 0.44190  0.68320  0.03980  Biso   1.000  H
  H35      1.0000 0.44190  0.81680  0.53980  Biso   1.000  H
  H36      1.0000 0.55810  0.31680  0.96020  Biso   1.000  H
  C21      1.0000 0.49410  0.39620  0.68490  Biso   1.000  C
  C22      1.0000 0.50590  0.89620  0.81510  Biso   1.000  C
  C23      1.0000 0.50590  0.60380  0.31510  Biso   1.000  C
  C24      1.0000 0.49410  0.10380  0.18490  Biso   1.000  C
  H37      1.0000 0.41250  0.40130  0.67410  Biso   1.000  H
  H38      1.0000 0.58750  0.90130  0.82590  Biso   1.000  H
  H39      1.0000 0.58750  0.59870  0.32590  Biso   1.000  H
  H40      1.0000 0.41250  0.09870  0.17410  Biso   1.000  H
  C25      1.0000 0.69430  0.43940  0.78530  Biso   1.000  C
  C26      1.0000 0.30570  0.93940  0.71470  Biso   1.000  C
  C27      1.0000 0.30570  0.56060  0.21470  Biso   1.000  C
  C28      1.0000 0.69430  0.06060  0.28530  Biso   1.000  C
  C29      1.0000 0.53850  0.34370  0.61810  Biso   1.000  C
  C30      1.0000 0.46150  0.84370  0.88190  Biso   1.000  C
  C31      1.0000 0.46150  0.65630  0.38190  Biso   1.000  C
  C32      1.0000 0.53850  0.15630  0.11810  Biso   1.000  C
  C33      1.0000 0.77510  0.49010  0.87750  Biso   1.000  C
  C34      1.0000 0.22490  0.99010  0.62250  Biso   1.000  C
  C35      1.0000 0.22490  0.50990  0.12250  Biso   1.000  C
  C36      1.0000 0.77510  0.00990  0.37750  Biso   1.000  C
  C37      1.0000 0.33820  0.31780  0.50570  Biso   1.000  C
  C38      1.0000 0.66180  0.81780  0.99430  Biso   1.000  C
  C39      1.0000 0.66180  0.68220  0.49430  Biso   1.000  C
  C40      1.0000 0.33820  0.18220  0.00570  Biso   1.000  C
  H41      1.0000 0.29730  0.37050  0.54040  Biso   1.000  H
  H42      1.0000 0.70270  0.87050  0.95960  Biso   1.000  H
  H43      1.0000 0.70270  0.62950  0.45960  Biso   1.000  H
  H44      1.0000 0.29730  0.12950  0.04040  Biso   1.000  H
  C41      1.0000 0.37810  0.19130  0.39720  Biso   1.000  C
  C42      1.0000 0.62190  0.69130  0.10280  Biso   1.000  C
  C43      1.0000 0.62190  0.80870  0.60280  Biso   1.000  C
  C44      1.0000 0.37810  0.30870  0.89720  Biso   1.000  C
  H45      1.0000 0.36860  0.13870  0.34210  Biso   1.000  H
  H46      1.0000 0.63140  0.63870  0.15790  Biso   1.000  H
  H47      1.0000 0.63140  0.86130  0.65790  Biso   1.000  H
  H48      1.0000 0.36860  0.36130  0.84210  Biso   1.000  H
  O29      1.0000 0.79760  0.06790  0.90290  Biso   1.000  O
  O30      1.0000 0.20240  0.56790  0.59710  Biso   1.000  O
  O31      1.0000 0.20240  0.93210  0.09710  Biso   1.000  O
  O32      1.0000 0.79760  0.43210  0.40290  Biso   1.000  O
  H49      1.0000 0.84610  0.10100  0.87660  Biso   1.000  H
  H50      1.0000 0.15390  0.60100  0.62340  Biso   1.000  H
  H51      1.0000 0.15390  0.89900  0.12340  Biso   1.000  H
  H52      1.0000 0.84610  0.39900  0.37660  Biso   1.000  H
  H53      1.0000 0.78720  0.16080  0.92960  Biso   1.000  H
  H54      1.0000 0.21280  0.66080  0.57040  Biso   1.000  H
  H55      1.0000 0.21280  0.83920  0.07040  Biso   1.000  H
  H56      1.0000 0.78720  0.33920  0.42960  Biso   1.000  H
