data_image0
_cell_length_a       11.4476
_cell_length_b       7.385
_cell_length_c       14.1116
_cell_angle_alpha    90
_cell_angle_beta     112.5
_cell_angle_gamma    90

_symmetry_space_group_name_H-M    "P 1"
_symmetry_int_tables_number       1

loop_
  _symmetry_equiv_pos_as_xyz
  'x, y, z'

loop_
  _atom_site_label
  _atom_site_occupancy
  _atom_site_fract_x
  _atom_site_fract_y
  _atom_site_fract_z
  _atom_site_thermal_displace_type
  _atom_site_B_iso_or_equiv
  _atom_site_type_symbol
  Cu1      1.0000 0.44892  0.64735  0.51414  Biso   1.000  Cu
  Cu2      1.0000 0.05108  0.14735  0.98586  Biso   1.000  Cu
  Cu3      1.0000 0.55108  0.35265  0.48586  Biso   1.000  Cu
  Cu4      1.0000 0.94892  0.85265  0.01414  Biso   1.000  Cu
  C1       1.0000 0.39556  0.55560  0.30851  Biso   1.000  C
  C2       1.0000 0.10444  0.05560  0.19149  Biso   1.000  C
  C3       1.0000 0.60444  0.44440  0.69149  Biso   1.000  C
  C4       1.0000 0.89556  0.94440  0.80851  Biso   1.000  C
  O1       1.0000 0.37521  0.67200  0.36586  Biso   1.000  O
  O2       1.0000 0.12479  0.17200  0.13414  Biso   1.000  O
  O3       1.0000 0.62479  0.32800  0.63414  Biso   1.000  O
  O4       1.0000 0.87521  0.82800  0.86586  Biso   1.000  O
  O5       1.0000 0.46302  0.41620  0.33987  Biso   1.000  O
  O6       1.0000 0.03698  0.91620  0.16013  Biso   1.000  O
  O7       1.0000 0.53698  0.58380  0.66013  Biso   1.000  O
  O8       1.0000 0.96302  0.08380  0.83987  Biso   1.000  O
  C5       1.0000 0.33090  0.58540  0.19362  Biso   1.000  C
  C6       1.0000 0.16910  0.08540  0.30638  Biso   1.000  C
  C7       1.0000 0.66910  0.41460  0.80638  Biso   1.000  C
  C8       1.0000 0.83090  0.91460  0.69362  Biso   1.000  C
  H1       1.0000 0.24940  0.64176  0.17946  Biso   1.000  H
  H2       1.0000 0.25060  0.14176  0.32054  Biso   1.000  H
  H3       1.0000 0.75060  0.35824  0.82054  Biso   1.000  H
  H4       1.0000 0.74940  0.85824  0.67946  Biso   1.000  H
  H5       1.0000 0.31556  0.46845  0.15975  Biso   1.000  H
  H6       1.0000 0.18444  0.96845  0.34025  Biso   1.000  H
  H7       1.0000 0.68444  0.53155  0.84025  Biso   1.000  H
  H8       1.0000 0.81556  0.03155  0.65975  Biso   1.000  H
  O9       1.0000 0.10875  0.74383  0.01315  Biso   1.000  O
  O10      1.0000 0.39125  0.24383  0.48685  Biso   1.000  O
  O11      1.0000 0.89125  0.25617  0.98685  Biso   1.000  O
  O12      1.0000 0.60875  0.75617  0.51315  Biso   1.000  O
  C9       1.0000 0.40664  0.70460  0.14652  Biso   1.000  C
  C10      1.0000 0.09336  0.20460  0.35348  Biso   1.000  C
  C11      1.0000 0.59336  0.29540  0.85348  Biso   1.000  C
  C12      1.0000 0.90664  0.79540  0.64652  Biso   1.000  C
  C13      1.0000 0.53060  0.00070  0.16847  Biso   1.000  C
  C14      1.0000 0.96940  0.50070  0.33153  Biso   1.000  C
  C15      1.0000 0.46940  0.99930  0.83153  Biso   1.000  C
  C16      1.0000 0.03060  0.49930  0.66847  Biso   1.000  C
  H9       1.0000 0.48695  0.03481  0.09717  Biso   1.000  H
  H10      1.0000 0.01305  0.53481  0.40283  Biso   1.000  H
  H11      1.0000 0.51305  0.96519  0.90283  Biso   1.000  H
  H12      1.0000 0.98695  0.46519  0.59717  Biso   1.000  H
  H13      1.0000 0.55338  0.11068  0.20900  Biso   1.000  H
  H14      1.0000 0.94662  0.61068  0.29100  Biso   1.000  H
  H15      1.0000 0.44662  0.88932  0.79100  Biso   1.000  H
  H16      1.0000 0.05338  0.38932  0.70900  Biso   1.000  H
  O13      1.0000 0.39639  0.89990  0.56149  Biso   1.000  O
  O14      1.0000 0.10361  0.39990  0.93851  Biso   1.000  O
  O15      1.0000 0.60361  0.10010  0.43851  Biso   1.000  O
  O16      1.0000 0.89639  0.60010  0.06149  Biso   1.000  O
  H17      1.0000 0.43600  0.90000  0.62300  Biso   1.000  H
  H18      1.0000 0.06400  0.40000  0.87700  Biso   1.000  H
  H19      1.0000 0.56400  0.10000  0.37700  Biso   1.000  H
  H20      1.0000 0.93600  0.60000  0.12300  Biso   1.000  H
  H21      1.0000 0.39600  0.00000  0.53300  Biso   1.000  H
  H22      1.0000 0.10400  0.50000  0.96700  Biso   1.000  H
  H23      1.0000 0.60400  0.00000  0.46700  Biso   1.000  H
  H24      1.0000 0.89600  0.50000  0.03300  Biso   1.000  H
  O17      1.0000 0.19970  0.00195  0.99593  Biso   1.000  O
  O18      1.0000 0.30030  0.50195  0.50407  Biso   1.000  O
  O19      1.0000 0.80030  0.99805  0.00407  Biso   1.000  O
  O20      1.0000 0.69970  0.49805  0.49593  Biso   1.000  O
  C17      1.0000 0.44240  0.88710  0.20303  Biso   1.000  C
  C18      1.0000 0.05760  0.38710  0.29697  Biso   1.000  C
  C19      1.0000 0.55760  0.11290  0.79697  Biso   1.000  C
  C20      1.0000 0.94240  0.61290  0.70303  Biso   1.000  C
  H25      1.0000 0.36583  0.95559  0.19145  Biso   1.000  H
  H26      1.0000 0.13417  0.45559  0.30855  Biso   1.000  H
  H27      1.0000 0.63417  0.04441  0.80855  Biso   1.000  H
  H28      1.0000 0.86583  0.54441  0.69145  Biso   1.000  H
  H29      1.0000 0.48323  0.86463  0.27612  Biso   1.000  H
  H30      1.0000 0.01677  0.36463  0.22388  Biso   1.000  H
  H31      1.0000 0.51677  0.13537  0.72388  Biso   1.000  H
  H32      1.0000 0.98323  0.63537  0.77612  Biso   1.000  H
  C21      1.0000 0.61750  0.71820  0.12230  Biso   1.000  C
  C22      1.0000 0.88250  0.21820  0.37770  Biso   1.000  C
  C23      1.0000 0.38250  0.28180  0.87770  Biso   1.000  C
  C24      1.0000 0.11750  0.78180  0.62230  Biso   1.000  C
  H33      1.0000 0.69480  0.65086  0.13489  Biso   1.000  H
  H34      1.0000 0.80520  0.15086  0.36511  Biso   1.000  H
  H35      1.0000 0.30520  0.34914  0.86511  Biso   1.000  H
  H36      1.0000 0.19480  0.84914  0.63489  Biso   1.000  H
  H37      1.0000 0.57835  0.74258  0.04927  Biso   1.000  H
  H38      1.0000 0.92165  0.24258  0.45073  Biso   1.000  H
  H39      1.0000 0.42165  0.25742  0.95073  Biso   1.000  H
  H40      1.0000 0.07835  0.75742  0.54927  Biso   1.000  H
  C25      1.0000 0.64930  0.89630  0.18050  Biso   1.000  C
  C26      1.0000 0.85070  0.39630  0.31950  Biso   1.000  C
  C27      1.0000 0.35070  0.10370  0.81950  Biso   1.000  C
  C28      1.0000 0.14930  0.60370  0.68050  Biso   1.000  C
  H41      1.0000 0.69706  0.87234  0.25270  Biso   1.000  H
  H42      1.0000 0.80294  0.37234  0.24730  Biso   1.000  H
  H43      1.0000 0.30294  0.12766  0.74730  Biso   1.000  H
  H44      1.0000 0.19706  0.62766  0.75270  Biso   1.000  H
  H45      1.0000 0.70168  0.96893  0.15511  Biso   1.000  H
  H46      1.0000 0.79832  0.46893  0.34489  Biso   1.000  H
  H47      1.0000 0.29832  0.03107  0.84489  Biso   1.000  H
  H48      1.0000 0.20168  0.53107  0.65511  Biso   1.000  H
  C29      1.0000 0.32384  0.73310  0.03060  Biso   1.000  C
  C30      1.0000 0.17616  0.23310  0.46940  Biso   1.000  C
  C31      1.0000 0.67616  0.26690  0.96940  Biso   1.000  C
  C32      1.0000 0.82384  0.76690  0.53060  Biso   1.000  C
  H49      1.0000 0.37290  0.79910  0.99914  Biso   1.000  H
  H50      1.0000 0.12710  0.29910  0.50086  Biso   1.000  H
  H51      1.0000 0.62710  0.20090  0.00086  Biso   1.000  H
  H52      1.0000 0.87290  0.70090  0.49914  Biso   1.000  H
  H53      1.0000 0.30347  0.61568  0.99750  Biso   1.000  H
  H54      1.0000 0.19653  0.11568  0.50250  Biso   1.000  H
  H55      1.0000 0.69653  0.38432  0.00250  Biso   1.000  H
  H56      1.0000 0.80347  0.88432  0.49750  Biso   1.000  H
  C33      1.0000 0.20195  0.83500  0.01121  Biso   1.000  C
  C34      1.0000 0.29805  0.33500  0.48879  Biso   1.000  C
  C35      1.0000 0.79805  0.16500  0.98879  Biso   1.000  C
  C36      1.0000 0.70195  0.66500  0.51121  Biso   1.000  C
  C37      1.0000 0.52830  0.60420  0.15467  Biso   1.000  C
  C38      1.0000 0.97170  0.10420  0.34533  Biso   1.000  C
  C39      1.0000 0.47170  0.39580  0.84533  Biso   1.000  C
  C40      1.0000 0.02830  0.89580  0.65467  Biso   1.000  C
  H57      1.0000 0.57263  0.56534  0.22506  Biso   1.000  H
  H58      1.0000 0.92737  0.06534  0.27494  Biso   1.000  H
  H59      1.0000 0.42737  0.43466  0.77494  Biso   1.000  H
  H60      1.0000 0.07263  0.93466  0.72506  Biso   1.000  H
  H61      1.0000 0.50509  0.49658  0.11210  Biso   1.000  H
  H62      1.0000 0.99491  0.99658  0.38790  Biso   1.000  H
  H63      1.0000 0.49491  0.50342  0.88790  Biso   1.000  H
  H64      1.0000 0.00509  0.00342  0.61210  Biso   1.000  H
