data_image0
_cell_length_a       13.1252
_cell_length_b       17.281
_cell_length_c       6.4777
_cell_angle_alpha    90
_cell_angle_beta     90
_cell_angle_gamma    90

_symmetry_space_group_name_H-M    "P 1"
_symmetry_int_tables_number       1

loop_
  _symmetry_equiv_pos_as_xyz
  'x, y, z'

loop_
  _atom_site_label
  _atom_site_occupancy
  _atom_site_fract_x
  _atom_site_fract_y
  _atom_site_fract_z
  _atom_site_thermal_displace_type
  _atom_site_B_iso_or_equiv
  _atom_site_type_symbol
  Cu1      1.0000 0.03147  0.56925  0.06885  Biso   1.000  Cu
  Cu2      1.0000 0.46853  0.43075  0.56885  Biso   1.000  Cu
  Cu3      1.0000 0.96853  0.06925  0.93115  Biso   1.000  Cu
  Cu4      1.0000 0.53147  0.93075  0.43115  Biso   1.000  Cu
  Cu5      1.0000 0.96853  0.43075  0.93115  Biso   1.000  Cu
  Cu6      1.0000 0.53147  0.56925  0.43115  Biso   1.000  Cu
  Cu7      1.0000 0.03147  0.93075  0.06885  Biso   1.000  Cu
  Cu8      1.0000 0.46853  0.06925  0.56885  Biso   1.000  Cu
  N1       1.0000 0.09051  0.67876  0.19870  Biso   1.000  N
  N2       1.0000 0.40949  0.32124  0.69870  Biso   1.000  N
  N3       1.0000 0.90949  0.17876  0.80130  Biso   1.000  N
  N4       1.0000 0.59051  0.82124  0.30130  Biso   1.000  N
  N5       1.0000 0.90949  0.32124  0.80130  Biso   1.000  N
  N6       1.0000 0.59051  0.67876  0.30130  Biso   1.000  N
  N7       1.0000 0.09051  0.82124  0.19870  Biso   1.000  N
  N8       1.0000 0.40949  0.17876  0.69870  Biso   1.000  N
  C1       1.0000 0.22920  0.75000  0.47730  Biso   1.000  C
  C2       1.0000 0.27080  0.25000  0.97730  Biso   1.000  C
  C3       1.0000 0.77080  0.25000  0.52270  Biso   1.000  C
  C4       1.0000 0.72920  0.75000  0.02270  Biso   1.000  C
  H1       1.0000 0.26070  0.79630  0.54070  Biso   1.000  H
  H2       1.0000 0.23930  0.20370  0.04070  Biso   1.000  H
  H3       1.0000 0.73930  0.29630  0.45930  Biso   1.000  H
  H4       1.0000 0.76070  0.70370  0.95930  Biso   1.000  H
  H5       1.0000 0.73930  0.20370  0.45930  Biso   1.000  H
  H6       1.0000 0.76070  0.79630  0.95930  Biso   1.000  H
  H7       1.0000 0.26070  0.70370  0.54070  Biso   1.000  H
  H8       1.0000 0.23930  0.29630  0.04070  Biso   1.000  H
  O1       1.0000 0.93939  0.61313  0.86070  Biso   1.000  O
  O2       1.0000 0.56061  0.38687  0.36070  Biso   1.000  O
  O3       1.0000 0.06061  0.11313  0.13930  Biso   1.000  O
  O4       1.0000 0.43939  0.88687  0.63930  Biso   1.000  O
  O5       1.0000 0.06061  0.38687  0.13930  Biso   1.000  O
  O6       1.0000 0.43939  0.61313  0.63930  Biso   1.000  O
  O7       1.0000 0.93939  0.88687  0.86070  Biso   1.000  O
  O8       1.0000 0.56061  0.11313  0.36070  Biso   1.000  O
  O9       1.0000 0.88680  0.49698  0.74540  Biso   1.000  O
  O10      1.0000 0.61320  0.50302  0.24540  Biso   1.000  O
  O11      1.0000 0.11320  0.99698  0.25460  Biso   1.000  O
  O12      1.0000 0.38680  0.00302  0.75460  Biso   1.000  O
  O13      1.0000 0.11320  0.50302  0.25460  Biso   1.000  O
  O14      1.0000 0.38680  0.49698  0.75460  Biso   1.000  O
  O15      1.0000 0.88680  0.00302  0.74540  Biso   1.000  O
  O16      1.0000 0.61320  0.99698  0.24540  Biso   1.000  O
  O17      1.0000 0.91554  0.55920  0.25870  Biso   1.000  O
  O18      1.0000 0.58446  0.44080  0.75870  Biso   1.000  O
  O19      1.0000 0.08446  0.05920  0.74130  Biso   1.000  O
  O20      1.0000 0.41554  0.94080  0.24130  Biso   1.000  O
  O21      1.0000 0.08446  0.44080  0.74130  Biso   1.000  O
  O22      1.0000 0.41554  0.55920  0.24130  Biso   1.000  O
  O23      1.0000 0.91554  0.94080  0.25870  Biso   1.000  O
  O24      1.0000 0.58446  0.05920  0.75870  Biso   1.000  O
  O25      1.0000 0.86274  0.44265  0.14620  Biso   1.000  O
  O26      1.0000 0.63726  0.55735  0.64620  Biso   1.000  O
  O27      1.0000 0.13726  0.94265  0.85380  Biso   1.000  O
  O28      1.0000 0.36274  0.05735  0.35380  Biso   1.000  O
  O29      1.0000 0.13726  0.55735  0.85380  Biso   1.000  O
  O30      1.0000 0.36274  0.44265  0.35380  Biso   1.000  O
  O31      1.0000 0.86274  0.05735  0.14620  Biso   1.000  O
  O32      1.0000 0.63726  0.94265  0.64620  Biso   1.000  O
  C5       1.0000 0.88839  0.56950  0.74650  Biso   1.000  C
  C6       1.0000 0.61161  0.43050  0.24650  Biso   1.000  C
  C7       1.0000 0.11161  0.06950  0.25350  Biso   1.000  C
  C8       1.0000 0.38839  0.93050  0.75350  Biso   1.000  C
  C9       1.0000 0.11161  0.43050  0.25350  Biso   1.000  C
  C10      1.0000 0.38839  0.56950  0.75350  Biso   1.000  C
  C11      1.0000 0.88839  0.93050  0.74650  Biso   1.000  C
  C12      1.0000 0.61161  0.06950  0.24650  Biso   1.000  C
  H9       1.0000 0.84560  0.59440  0.64850  Biso   1.000  H
  H10      1.0000 0.65440  0.40560  0.14850  Biso   1.000  H
  H11      1.0000 0.15440  0.09440  0.35150  Biso   1.000  H
  H12      1.0000 0.34560  0.90560  0.85150  Biso   1.000  H
  H13      1.0000 0.15440  0.40560  0.35150  Biso   1.000  H
  H14      1.0000 0.34560  0.59440  0.85150  Biso   1.000  H
  H15      1.0000 0.84560  0.90560  0.64850  Biso   1.000  H
  H16      1.0000 0.65440  0.09440  0.14850  Biso   1.000  H
  C13      1.0000 0.85848  0.50082  0.26190  Biso   1.000  C
  C14      1.0000 0.64152  0.49918  0.76190  Biso   1.000  C
  C15      1.0000 0.14152  0.00082  0.73810  Biso   1.000  C
  C16      1.0000 0.35848  0.99918  0.23810  Biso   1.000  C
  C17      1.0000 0.14152  0.49918  0.73810  Biso   1.000  C
  C18      1.0000 0.35848  0.50082  0.23810  Biso   1.000  C
  C19      1.0000 0.85848  0.99918  0.26190  Biso   1.000  C
  C20      1.0000 0.64152  0.00082  0.76190  Biso   1.000  C
  H17      1.0000 0.80620  0.50070  0.36340  Biso   1.000  H
  H18      1.0000 0.69380  0.49930  0.86340  Biso   1.000  H
  H19      1.0000 0.19380  0.00070  0.63660  Biso   1.000  H
  H20      1.0000 0.30620  0.99930  0.13660  Biso   1.000  H
  H21      1.0000 0.19380  0.49930  0.63660  Biso   1.000  H
  H22      1.0000 0.30620  0.50070  0.13660  Biso   1.000  H
  H23      1.0000 0.80620  0.99930  0.36340  Biso   1.000  H
  H24      1.0000 0.69380  0.00070  0.86340  Biso   1.000  H
  C21      1.0000 0.20300  0.68165  0.16300  Biso   1.000  C
  C22      1.0000 0.29700  0.31835  0.66300  Biso   1.000  C
  C23      1.0000 0.79700  0.18165  0.83700  Biso   1.000  C
  C24      1.0000 0.70300  0.81835  0.33700  Biso   1.000  C
  C25      1.0000 0.79700  0.31835  0.83700  Biso   1.000  C
  C26      1.0000 0.70300  0.68165  0.33700  Biso   1.000  C
  C27      1.0000 0.20300  0.81835  0.16300  Biso   1.000  C
  C28      1.0000 0.29700  0.18165  0.66300  Biso   1.000  C
  H25      1.0000 0.23470  0.63460  0.22220  Biso   1.000  H
  H26      1.0000 0.26530  0.36540  0.72220  Biso   1.000  H
  H27      1.0000 0.76530  0.13460  0.77780  Biso   1.000  H
  H28      1.0000 0.73470  0.86540  0.27780  Biso   1.000  H
  H29      1.0000 0.76530  0.36540  0.77780  Biso   1.000  H
  H30      1.0000 0.73470  0.63460  0.27780  Biso   1.000  H
  H31      1.0000 0.23470  0.86540  0.22220  Biso   1.000  H
  H32      1.0000 0.26530  0.13460  0.72220  Biso   1.000  H
  H33      1.0000 0.21640  0.68170  0.01260  Biso   1.000  H
  H34      1.0000 0.28360  0.31830  0.51260  Biso   1.000  H
  H35      1.0000 0.78360  0.18170  0.98740  Biso   1.000  H
  H36      1.0000 0.71640  0.81830  0.48740  Biso   1.000  H
  H37      1.0000 0.78360  0.31830  0.98740  Biso   1.000  H
  H38      1.0000 0.71640  0.68170  0.48740  Biso   1.000  H
  H39      1.0000 0.21640  0.81830  0.01260  Biso   1.000  H
  H40      1.0000 0.28360  0.18170  0.51260  Biso   1.000  H
  C29      1.0000 0.07290  0.68132  0.42510  Biso   1.000  C
  C30      1.0000 0.42710  0.31868  0.92510  Biso   1.000  C
  C31      1.0000 0.92710  0.18132  0.57490  Biso   1.000  C
  C32      1.0000 0.57290  0.81868  0.07490  Biso   1.000  C
  C33      1.0000 0.92710  0.31868  0.57490  Biso   1.000  C
  C34      1.0000 0.57290  0.68132  0.07490  Biso   1.000  C
  C35      1.0000 0.07290  0.81868  0.42510  Biso   1.000  C
  C36      1.0000 0.42710  0.18132  0.92510  Biso   1.000  C
  H41      1.0000 0.99860  0.68130  0.45200  Biso   1.000  H
  H42      1.0000 0.50140  0.31870  0.95200  Biso   1.000  H
  H43      1.0000 0.00140  0.18130  0.54800  Biso   1.000  H
  H44      1.0000 0.49860  0.81870  0.04800  Biso   1.000  H
  H45      1.0000 0.00140  0.31870  0.54800  Biso   1.000  H
  H46      1.0000 0.49860  0.68130  0.04800  Biso   1.000  H
  H47      1.0000 0.99860  0.81870  0.45200  Biso   1.000  H
  H48      1.0000 0.50140  0.18130  0.95200  Biso   1.000  H
  H49      1.0000 0.10200  0.63420  0.48890  Biso   1.000  H
  H50      1.0000 0.39800  0.36580  0.98890  Biso   1.000  H
  H51      1.0000 0.89800  0.13420  0.51110  Biso   1.000  H
  H52      1.0000 0.60200  0.86580  0.01110  Biso   1.000  H
  H53      1.0000 0.89800  0.36580  0.51110  Biso   1.000  H
  H54      1.0000 0.60200  0.63420  0.01110  Biso   1.000  H
  H55      1.0000 0.10200  0.86580  0.48890  Biso   1.000  H
  H56      1.0000 0.39800  0.13420  0.98890  Biso   1.000  H
  C37      1.0000 0.04550  0.75000  0.10690  Biso   1.000  C
  C38      1.0000 0.45450  0.25000  0.60690  Biso   1.000  C
  C39      1.0000 0.95450  0.25000  0.89310  Biso   1.000  C
  C40      1.0000 0.54550  0.75000  0.39310  Biso   1.000  C
  H57      1.0000 0.97100  0.75000  0.13010  Biso   1.000  H
  H58      1.0000 0.52900  0.25000  0.63010  Biso   1.000  H
  H59      1.0000 0.02900  0.25000  0.86990  Biso   1.000  H
  H60      1.0000 0.47100  0.75000  0.36990  Biso   1.000  H
  H61      1.0000 0.05760  0.75000  0.95600  Biso   1.000  H
  H62      1.0000 0.44240  0.25000  0.45600  Biso   1.000  H
  H63      1.0000 0.94240  0.25000  0.04400  Biso   1.000  H
  H64      1.0000 0.55760  0.75000  0.54400  Biso   1.000  H
  N9       1.0000 0.25020  0.75000  0.25530  Biso   1.000  N
  N10      1.0000 0.24980  0.25000  0.75530  Biso   1.000  N
  N11      1.0000 0.74980  0.25000  0.74470  Biso   1.000  N
  N12      1.0000 0.75020  0.75000  0.24470  Biso   1.000  N
  N13      1.0000 0.11870  0.75000  0.52190  Biso   1.000  N
  N14      1.0000 0.38130  0.25000  0.02190  Biso   1.000  N
  N15      1.0000 0.88130  0.25000  0.47810  Biso   1.000  N
  N16      1.0000 0.61870  0.75000  0.97810  Biso   1.000  N
