data_image0
_cell_length_a       5.512
_cell_length_b       10.4289
_cell_length_c       29.3412
_cell_angle_alpha    90
_cell_angle_beta     90
_cell_angle_gamma    90

_symmetry_space_group_name_H-M    "P 1"
_symmetry_int_tables_number       1

loop_
  _symmetry_equiv_pos_as_xyz
  'x, y, z'

loop_
  _atom_site_label
  _atom_site_occupancy
  _atom_site_fract_x
  _atom_site_fract_y
  _atom_site_fract_z
  _atom_site_thermal_displace_type
  _atom_site_B_iso_or_equiv
  _atom_site_type_symbol
  Cu1      1.0000 0.77076  0.48925  0.76200  Biso   1.000  Cu
  Cu2      1.0000 0.72924  0.51075  0.26200  Biso   1.000  Cu
  Cu3      1.0000 0.22924  0.98925  0.73800  Biso   1.000  Cu
  Cu4      1.0000 0.27076  0.01075  0.23800  Biso   1.000  Cu
  S1       1.0000 0.33800  0.68243  0.78346  Biso   1.000  S
  S2       1.0000 0.16200  0.31757  0.28346  Biso   1.000  S
  S3       1.0000 0.66200  0.18243  0.71654  Biso   1.000  S
  S4       1.0000 0.83800  0.81757  0.21654  Biso   1.000  S
  S5       1.0000 0.66533  0.56076  0.51240  Biso   1.000  S
  S6       1.0000 0.83467  0.43924  0.01240  Biso   1.000  S
  S7       1.0000 0.33467  0.06076  0.98760  Biso   1.000  S
  S8       1.0000 0.16533  0.93924  0.48760  Biso   1.000  S
  O1       1.0000 0.07490  0.38870  0.76184  Biso   1.000  O
  O2       1.0000 0.42510  0.61130  0.26184  Biso   1.000  O
  O3       1.0000 0.92510  0.88870  0.73816  Biso   1.000  O
  O4       1.0000 0.57490  0.11130  0.23816  Biso   1.000  O
  H1       1.0000 0.05690  0.32200  0.74520  Biso   1.000  H
  H2       1.0000 0.44310  0.67800  0.24520  Biso   1.000  H
  H3       1.0000 0.94310  0.82200  0.75480  Biso   1.000  H
  H4       1.0000 0.55690  0.17800  0.25480  Biso   1.000  H
  O5       1.0000 0.44080  0.56260  0.76169  Biso   1.000  O
  O6       1.0000 0.05920  0.43740  0.26169  Biso   1.000  O
  O7       1.0000 0.55920  0.06260  0.73831  Biso   1.000  O
  O8       1.0000 0.94080  0.93740  0.23831  Biso   1.000  O
  O9       1.0000 0.42380  0.79380  0.75730  Biso   1.000  O
  O10      1.0000 0.07620  0.20620  0.25730  Biso   1.000  O
  O11      1.0000 0.57620  0.29380  0.74270  Biso   1.000  O
  O12      1.0000 0.92380  0.70620  0.24270  Biso   1.000  O
  O13      1.0000 0.07030  0.67030  0.77933  Biso   1.000  O
  O14      1.0000 0.42970  0.32970  0.27933  Biso   1.000  O
  O15      1.0000 0.92970  0.17030  0.72067  Biso   1.000  O
  O16      1.0000 0.57030  0.82970  0.22067  Biso   1.000  O
  O17      1.0000 0.40800  0.68770  0.83126  Biso   1.000  O
  O18      1.0000 0.09200  0.31230  0.33126  Biso   1.000  O
  O19      1.0000 0.59200  0.18770  0.66874  Biso   1.000  O
  O20      1.0000 0.90800  0.81230  0.16874  Biso   1.000  O
  N1       1.0000 0.76110  0.55190  0.32902  Biso   1.000  N
  N2       1.0000 0.73890  0.44810  0.82902  Biso   1.000  N
  N3       1.0000 0.23890  0.05190  0.17098  Biso   1.000  N
  N4       1.0000 0.26110  0.94810  0.67098  Biso   1.000  N
  N5       1.0000 0.09430  0.61830  0.48801  Biso   1.000  N
  N6       1.0000 0.40570  0.38170  0.98801  Biso   1.000  N
  N7       1.0000 0.90570  0.11830  0.01199  Biso   1.000  N
  N8       1.0000 0.59430  0.88170  0.51199  Biso   1.000  N
  N9       1.0000 0.09740  0.61730  0.53471  Biso   1.000  N
  N10      1.0000 0.40260  0.38270  0.03471  Biso   1.000  N
  N11      1.0000 0.90260  0.11730  0.96529  Biso   1.000  N
  N12      1.0000 0.59740  0.88270  0.46529  Biso   1.000  N
  N13      1.0000 0.80220  0.53740  0.69513  Biso   1.000  N
  N14      1.0000 0.69780  0.46260  0.19513  Biso   1.000  N
  N15      1.0000 0.19780  0.03740  0.80487  Biso   1.000  N
  N16      1.0000 0.30220  0.96260  0.30487  Biso   1.000  N
  C1       1.0000 0.96160  0.61030  0.34504  Biso   1.000  C
  C2       1.0000 0.53840  0.38970  0.84504  Biso   1.000  C
  C3       1.0000 0.03840  0.11030  0.15496  Biso   1.000  C
  C4       1.0000 0.46160  0.88970  0.65496  Biso   1.000  C
  H5       1.0000 0.07830  0.64150  0.32390  Biso   1.000  H
  H6       1.0000 0.42170  0.35850  0.82390  Biso   1.000  H
  H7       1.0000 0.92170  0.14150  0.17610  Biso   1.000  H
  H8       1.0000 0.57830  0.85850  0.67610  Biso   1.000  H
  C5       1.0000 0.00350  0.62640  0.39119  Biso   1.000  C
  C6       1.0000 0.49650  0.37360  0.89119  Biso   1.000  C
  C7       1.0000 0.99650  0.12640  0.10881  Biso   1.000  C
  C8       1.0000 0.50350  0.87360  0.60881  Biso   1.000  C
  H9       1.0000 0.14770  0.66710  0.40150  Biso   1.000  H
  H10      1.0000 0.35230  0.33290  0.90150  Biso   1.000  H
  H11      1.0000 0.85230  0.16710  0.09850  Biso   1.000  H
  H12      1.0000 0.64770  0.83290  0.59850  Biso   1.000  H
  C9       1.0000 0.83270  0.58260  0.42243  Biso   1.000  C
  C10      1.0000 0.66730  0.41740  0.92243  Biso   1.000  C
  C11      1.0000 0.16730  0.08260  0.07757  Biso   1.000  C
  C12      1.0000 0.33270  0.91740  0.57757  Biso   1.000  C
  C13      1.0000 0.62220  0.52710  0.40589  Biso   1.000  C
  C14      1.0000 0.87780  0.47290  0.90589  Biso   1.000  C
  C15      1.0000 0.37780  0.02710  0.09411  Biso   1.000  C
  C16      1.0000 0.12220  0.97290  0.59411  Biso   1.000  C
  H13      1.0000 0.49900  0.49920  0.42620  Biso   1.000  H
  H14      1.0000 0.00100  0.50080  0.92620  Biso   1.000  H
  H15      1.0000 0.50100  0.99920  0.07380  Biso   1.000  H
  H16      1.0000 0.99900  0.00080  0.57380  Biso   1.000  H
  C17      1.0000 0.59330  0.51270  0.35890  Biso   1.000  C
  C18      1.0000 0.90670  0.48730  0.85890  Biso   1.000  C
  C19      1.0000 0.40670  0.01270  0.14110  Biso   1.000  C
  C20      1.0000 0.09330  0.98730  0.64110  Biso   1.000  C
  H17      1.0000 0.44940  0.47360  0.34770  Biso   1.000  H
  H18      1.0000 0.05060  0.52640  0.84770  Biso   1.000  H
  H19      1.0000 0.55060  0.97360  0.15230  Biso   1.000  H
  H20      1.0000 0.94940  0.02640  0.65230  Biso   1.000  H
  C21      1.0000 0.88170  0.59100  0.47182  Biso   1.000  C
  C22      1.0000 0.61830  0.40900  0.97182  Biso   1.000  C
  C23      1.0000 0.11830  0.09100  0.02818  Biso   1.000  C
  C24      1.0000 0.38170  0.90900  0.52818  Biso   1.000  C
  C25      1.0000 0.88780  0.58760  0.55201  Biso   1.000  C
  C26      1.0000 0.61220  0.41240  0.05201  Biso   1.000  C
  C27      1.0000 0.11220  0.08760  0.94799  Biso   1.000  C
  C28      1.0000 0.38780  0.91240  0.44799  Biso   1.000  C
  C29      1.0000 0.85000  0.57460  0.60160  Biso   1.000  C
  C30      1.0000 0.65000  0.42540  0.10160  Biso   1.000  C
  C31      1.0000 0.15000  0.07460  0.89840  Biso   1.000  C
  C32      1.0000 0.35000  0.92540  0.39840  Biso   1.000  C
  C33      1.0000 0.02430  0.61880  0.63136  Biso   1.000  C
  C34      1.0000 0.47570  0.38120  0.13136  Biso   1.000  C
  C35      1.0000 0.97570  0.11880  0.86864  Biso   1.000  C
  C36      1.0000 0.52430  0.88120  0.36864  Biso   1.000  C
  H21      1.0000 0.16250  0.66320  0.62020  Biso   1.000  H
  H22      1.0000 0.33750  0.33680  0.12020  Biso   1.000  H
  H23      1.0000 0.83750  0.16320  0.87980  Biso   1.000  H
  H24      1.0000 0.66250  0.83680  0.37980  Biso   1.000  H
  C37      1.0000 0.99640  0.59800  0.67773  Biso   1.000  C
  C38      1.0000 0.50360  0.40200  0.17773  Biso   1.000  C
  C39      1.0000 0.00360  0.09800  0.82227  Biso   1.000  C
  C40      1.0000 0.49640  0.90200  0.32227  Biso   1.000  C
  H25      1.0000 0.11900  0.62750  0.69790  Biso   1.000  H
  H26      1.0000 0.38100  0.37250  0.19790  Biso   1.000  H
  H27      1.0000 0.88100  0.12750  0.80210  Biso   1.000  H
  H28      1.0000 0.61900  0.87250  0.30210  Biso   1.000  H
  C41      1.0000 0.62880  0.49920  0.66598  Biso   1.000  C
  C42      1.0000 0.87120  0.50080  0.16598  Biso   1.000  C
  C43      1.0000 0.37120  0.99920  0.83402  Biso   1.000  C
  C44      1.0000 0.12880  0.00080  0.33402  Biso   1.000  C
  H29      1.0000 0.48800  0.45890  0.67790  Biso   1.000  H
  H30      1.0000 0.01200  0.54110  0.17790  Biso   1.000  H
  H31      1.0000 0.51200  0.95890  0.82210  Biso   1.000  H
  H32      1.0000 0.98800  0.04110  0.32210  Biso   1.000  H
  C45      1.0000 0.64600  0.51580  0.61974  Biso   1.000  C
  C46      1.0000 0.85400  0.48420  0.11974  Biso   1.000  C
  C47      1.0000 0.35400  0.01580  0.88026  Biso   1.000  C
  C48      1.0000 0.14600  0.98420  0.38026  Biso   1.000  C
  H33      1.0000 0.51920  0.48730  0.60030  Biso   1.000  H
  H34      1.0000 0.98080  0.51270  0.10030  Biso   1.000  H
  H35      1.0000 0.48080  0.98730  0.89970  Biso   1.000  H
  H36      1.0000 0.01920  0.01270  0.39970  Biso   1.000  H
  H37      1.0000 0.18400  0.43800  0.75600  Biso   1.000  H
  H38      1.0000 0.31600  0.56200  0.25600  Biso   1.000  H
  H39      1.0000 0.81600  0.93800  0.74400  Biso   1.000  H
  H40      1.0000 0.68400  0.06200  0.24400  Biso   1.000  H
  O21      1.0000 0.83780  0.80720  0.85970  Biso   1.000  O
  O22      1.0000 0.66220  0.19280  0.35970  Biso   1.000  O
  O23      1.0000 0.16220  0.30720  0.64030  Biso   1.000  O
  O24      1.0000 0.33780  0.69280  0.14030  Biso   1.000  O
  H41      1.0000 0.71680  0.75400  0.86190  Biso   1.000  H
  H42      1.0000 0.78320  0.24600  0.36190  Biso   1.000  H
  H43      1.0000 0.28320  0.25400  0.63810  Biso   1.000  H
  H44      1.0000 0.21680  0.74600  0.13810  Biso   1.000  H
  H45      1.0000 0.96580  0.76650  0.85020  Biso   1.000  H
  H46      1.0000 0.53420  0.23350  0.35020  Biso   1.000  H
  H47      1.0000 0.03420  0.26650  0.64980  Biso   1.000  H
  H48      1.0000 0.46580  0.73350  0.14980  Biso   1.000  H
