data_image0
_cell_length_a       7.2413
_cell_length_b       17.2528
_cell_length_c       12.9833
_cell_angle_alpha    90
_cell_angle_beta     90
_cell_angle_gamma    90

_symmetry_space_group_name_H-M    "P 1"
_symmetry_int_tables_number       1

loop_
  _symmetry_equiv_pos_as_xyz
  'x, y, z'

loop_
  _atom_site_label
  _atom_site_occupancy
  _atom_site_fract_x
  _atom_site_fract_y
  _atom_site_fract_z
  _atom_site_thermal_displace_type
  _atom_site_B_iso_or_equiv
  _atom_site_type_symbol
  Au1      1.0000 0.51150  0.50000  0.50000  Biso   1.000  Au
  Au2      1.0000 0.01150  0.00000  0.50000  Biso   1.000  Au
  Au3      1.0000 0.48850  0.50000  0.00000  Biso   1.000  Au
  Au4      1.0000 0.98850  0.00000  0.00000  Biso   1.000  Au
  Cu1      1.0000 0.50000  0.72630  0.75000  Biso   1.000  Cu
  Cu2      1.0000 0.00000  0.22630  0.75000  Biso   1.000  Cu
  Cu3      1.0000 0.50000  0.27370  0.25000  Biso   1.000  Cu
  Cu4      1.0000 0.00000  0.77370  0.25000  Biso   1.000  Cu
  Cl1      1.0000 0.00000  0.77510  0.75000  Biso   1.000  Cl
  Cl2      1.0000 0.50000  0.27510  0.75000  Biso   1.000  Cl
  Cl3      1.0000 0.00000  0.22490  0.25000  Biso   1.000  Cl
  Cl4      1.0000 0.50000  0.72490  0.25000  Biso   1.000  Cl
  O1       1.0000 0.15410  0.72790  0.72360  Biso   1.000  O
  O2       1.0000 0.65410  0.22790  0.72360  Biso   1.000  O
  O3       1.0000 0.15410  0.27210  0.27640  Biso   1.000  O
  O4       1.0000 0.65410  0.77210  0.27640  Biso   1.000  O
  O5       1.0000 0.84590  0.72790  0.77640  Biso   1.000  O
  O6       1.0000 0.34590  0.22790  0.77640  Biso   1.000  O
  O7       1.0000 0.84590  0.27210  0.22360  Biso   1.000  O
  O8       1.0000 0.34590  0.77210  0.22360  Biso   1.000  O
  O9       1.0000 0.04760  0.82320  0.83500  Biso   1.000  O
  O10      1.0000 0.54760  0.32320  0.83500  Biso   1.000  O
  O11      1.0000 0.04760  0.17680  0.16500  Biso   1.000  O
  O12      1.0000 0.54760  0.67680  0.16500  Biso   1.000  O
  O13      1.0000 0.95240  0.82320  0.66500  Biso   1.000  O
  O14      1.0000 0.45240  0.32320  0.66500  Biso   1.000  O
  O15      1.0000 0.95240  0.17680  0.33500  Biso   1.000  O
  O16      1.0000 0.45240  0.67680  0.33500  Biso   1.000  O
  N1       1.0000 0.50960  0.64460  0.64390  Biso   1.000  N
  N2       1.0000 0.00960  0.14460  0.64390  Biso   1.000  N
  N3       1.0000 0.50960  0.35540  0.35610  Biso   1.000  N
  N4       1.0000 0.00960  0.85540  0.35610  Biso   1.000  N
  N5       1.0000 0.49040  0.64460  0.85610  Biso   1.000  N
  N6       1.0000 0.99040  0.14460  0.85610  Biso   1.000  N
  N7       1.0000 0.49040  0.35540  0.14390  Biso   1.000  N
  N8       1.0000 0.99040  0.85540  0.14390  Biso   1.000  N
  N9       1.0000 0.47690  0.81260  0.85410  Biso   1.000  N
  N10      1.0000 0.97690  0.31260  0.85410  Biso   1.000  N
  N11      1.0000 0.47690  0.18740  0.14590  Biso   1.000  N
  N12      1.0000 0.97690  0.68740  0.14590  Biso   1.000  N
  N13      1.0000 0.52310  0.81260  0.64590  Biso   1.000  N
  N14      1.0000 0.02310  0.31260  0.64590  Biso   1.000  N
  N15      1.0000 0.52310  0.18740  0.35410  Biso   1.000  N
  N16      1.0000 0.02310  0.68740  0.35410  Biso   1.000  N
  C1       1.0000 0.50980  0.59170  0.59020  Biso   1.000  C
  C2       1.0000 0.00980  0.09170  0.59020  Biso   1.000  C
  C3       1.0000 0.50980  0.40830  0.40980  Biso   1.000  C
  C4       1.0000 0.00980  0.90830  0.40980  Biso   1.000  C
  C5       1.0000 0.49020  0.59170  0.90980  Biso   1.000  C
  C6       1.0000 0.99020  0.09170  0.90980  Biso   1.000  C
  C7       1.0000 0.49020  0.40830  0.09020  Biso   1.000  C
  C8       1.0000 0.99020  0.90830  0.09020  Biso   1.000  C
  C9       1.0000 0.53420  0.88630  0.80540  Biso   1.000  C
  C10      1.0000 0.03420  0.38630  0.80540  Biso   1.000  C
  C11      1.0000 0.53420  0.11370  0.19460  Biso   1.000  C
  C12      1.0000 0.03420  0.61370  0.19460  Biso   1.000  C
  C13      1.0000 0.46580  0.88630  0.69460  Biso   1.000  C
  C14      1.0000 0.96580  0.38630  0.69460  Biso   1.000  C
  C15      1.0000 0.46580  0.11370  0.30540  Biso   1.000  C
  C16      1.0000 0.96580  0.61370  0.30540  Biso   1.000  C
  C17      1.0000 0.47200  0.95830  0.86060  Biso   1.000  C
  C18      1.0000 0.97200  0.45830  0.86060  Biso   1.000  C
  C19      1.0000 0.47200  0.04170  0.13940  Biso   1.000  C
  C20      1.0000 0.97200  0.54170  0.13940  Biso   1.000  C
  C21      1.0000 0.52800  0.95830  0.63940  Biso   1.000  C
  C22      1.0000 0.02800  0.45830  0.63940  Biso   1.000  C
  C23      1.0000 0.52800  0.04170  0.36060  Biso   1.000  C
  C24      1.0000 0.02800  0.54170  0.36060  Biso   1.000  C
  C25      1.0000 0.52900  0.03120  0.80500  Biso   1.000  C
  C26      1.0000 0.02900  0.53120  0.80500  Biso   1.000  C
  C27      1.0000 0.52900  0.96880  0.19500  Biso   1.000  C
  C28      1.0000 0.02900  0.46880  0.19500  Biso   1.000  C
  C29      1.0000 0.47100  0.03120  0.69500  Biso   1.000  C
  C30      1.0000 0.97100  0.53120  0.69500  Biso   1.000  C
  C31      1.0000 0.47100  0.96880  0.30500  Biso   1.000  C
  C32      1.0000 0.97100  0.46880  0.30500  Biso   1.000  C
  C33      1.0000 0.56060  0.80120  0.95580  Biso   1.000  C
  C34      1.0000 0.06060  0.30120  0.95580  Biso   1.000  C
  C35      1.0000 0.56060  0.19880  0.04420  Biso   1.000  C
  C36      1.0000 0.06060  0.69880  0.04420  Biso   1.000  C
  C37      1.0000 0.43940  0.80120  0.54420  Biso   1.000  C
  C38      1.0000 0.93940  0.30120  0.54420  Biso   1.000  C
  C39      1.0000 0.43940  0.19880  0.45580  Biso   1.000  C
  C40      1.0000 0.93940  0.69880  0.45580  Biso   1.000  C
  H1       1.0000 0.35090  0.81780  0.86620  Biso   1.000  H
  H2       1.0000 0.85090  0.31780  0.86620  Biso   1.000  H
  H3       1.0000 0.35090  0.18220  0.13380  Biso   1.000  H
  H4       1.0000 0.85090  0.68220  0.13380  Biso   1.000  H
  H5       1.0000 0.64910  0.81780  0.63380  Biso   1.000  H
  H6       1.0000 0.14910  0.31780  0.63380  Biso   1.000  H
  H7       1.0000 0.64910  0.18220  0.36620  Biso   1.000  H
  H8       1.0000 0.14910  0.68220  0.36620  Biso   1.000  H
  H9       1.0000 0.67230  0.88650  0.80340  Biso   1.000  H
  H10      1.0000 0.17230  0.38650  0.80340  Biso   1.000  H
  H11      1.0000 0.67230  0.11350  0.19660  Biso   1.000  H
  H12      1.0000 0.17230  0.61350  0.19660  Biso   1.000  H
  H13      1.0000 0.32770  0.88650  0.69660  Biso   1.000  H
  H14      1.0000 0.82770  0.38650  0.69660  Biso   1.000  H
  H15      1.0000 0.32770  0.11350  0.30340  Biso   1.000  H
  H16      1.0000 0.82770  0.61350  0.30340  Biso   1.000  H
  H17      1.0000 0.52950  0.95860  0.93070  Biso   1.000  H
  H18      1.0000 0.02950  0.45860  0.93070  Biso   1.000  H
  H19      1.0000 0.52950  0.04140  0.06930  Biso   1.000  H
  H20      1.0000 0.02950  0.54140  0.06930  Biso   1.000  H
  H21      1.0000 0.47050  0.95860  0.56930  Biso   1.000  H
  H22      1.0000 0.97050  0.45860  0.56930  Biso   1.000  H
  H23      1.0000 0.47050  0.04140  0.43070  Biso   1.000  H
  H24      1.0000 0.97050  0.54140  0.43070  Biso   1.000  H
  H25      1.0000 0.33450  0.95690  0.86760  Biso   1.000  H
  H26      1.0000 0.83450  0.45690  0.86760  Biso   1.000  H
  H27      1.0000 0.33450  0.04310  0.13240  Biso   1.000  H
  H28      1.0000 0.83450  0.54310  0.13240  Biso   1.000  H
  H29      1.0000 0.66550  0.95690  0.63240  Biso   1.000  H
  H30      1.0000 0.16550  0.45690  0.63240  Biso   1.000  H
  H31      1.0000 0.66550  0.04310  0.36760  Biso   1.000  H
  H32      1.0000 0.16550  0.54310  0.36760  Biso   1.000  H
  H33      1.0000 0.46770  0.07620  0.83970  Biso   1.000  H
  H34      1.0000 0.96770  0.57620  0.83970  Biso   1.000  H
  H35      1.0000 0.46770  0.92380  0.16030  Biso   1.000  H
  H36      1.0000 0.96770  0.42380  0.16030  Biso   1.000  H
  H37      1.0000 0.53230  0.07620  0.66030  Biso   1.000  H
  H38      1.0000 0.03230  0.57620  0.66030  Biso   1.000  H
  H39      1.0000 0.53230  0.92380  0.33970  Biso   1.000  H
  H40      1.0000 0.03230  0.42380  0.33970  Biso   1.000  H
  H41      1.0000 0.66610  0.03730  0.80960  Biso   1.000  H
  H42      1.0000 0.16610  0.53730  0.80960  Biso   1.000  H
  H43      1.0000 0.66610  0.96270  0.19040  Biso   1.000  H
  H44      1.0000 0.16610  0.46270  0.19040  Biso   1.000  H
  H45      1.0000 0.33390  0.03730  0.69040  Biso   1.000  H
  H46      1.0000 0.83390  0.53730  0.69040  Biso   1.000  H
  H47      1.0000 0.33390  0.96270  0.30960  Biso   1.000  H
  H48      1.0000 0.83390  0.46270  0.30960  Biso   1.000  H
  H49      1.0000 0.51650  0.75120  0.98580  Biso   1.000  H
  H50      1.0000 0.01650  0.25120  0.98580  Biso   1.000  H
  H51      1.0000 0.51650  0.24880  0.01420  Biso   1.000  H
  H52      1.0000 0.01650  0.74880  0.01420  Biso   1.000  H
  H53      1.0000 0.48350  0.75120  0.51420  Biso   1.000  H
  H54      1.0000 0.98350  0.25120  0.51420  Biso   1.000  H
  H55      1.0000 0.48350  0.24880  0.48580  Biso   1.000  H
  H56      1.0000 0.98350  0.74880  0.48580  Biso   1.000  H
  H57      1.0000 0.52510  0.84490  0.00230  Biso   1.000  H
  H58      1.0000 0.02510  0.34490  0.00230  Biso   1.000  H
  H59      1.0000 0.52510  0.15510  0.99770  Biso   1.000  H
  H60      1.0000 0.02510  0.65510  0.99770  Biso   1.000  H
  H61      1.0000 0.47490  0.84490  0.49770  Biso   1.000  H
  H62      1.0000 0.97490  0.34490  0.49770  Biso   1.000  H
  H63      1.0000 0.47490  0.15510  0.50230  Biso   1.000  H
  H64      1.0000 0.97490  0.65510  0.50230  Biso   1.000  H
  H65      1.0000 0.69810  0.79980  0.94840  Biso   1.000  H
  H66      1.0000 0.19810  0.29980  0.94840  Biso   1.000  H
  H67      1.0000 0.69810  0.20020  0.05160  Biso   1.000  H
  H68      1.0000 0.19810  0.70020  0.05160  Biso   1.000  H
  H69      1.0000 0.30190  0.79980  0.55160  Biso   1.000  H
  H70      1.0000 0.80190  0.29980  0.55160  Biso   1.000  H
  H71      1.0000 0.30190  0.20020  0.44840  Biso   1.000  H
  H72      1.0000 0.80190  0.70020  0.44840  Biso   1.000  H
