data_image0
_cell_length_a       8.3621
_cell_length_b       11.0698
_cell_length_c       9.8203
_cell_angle_alpha    90
_cell_angle_beta     101.459
_cell_angle_gamma    90

_symmetry_space_group_name_H-M    "P 1"
_symmetry_int_tables_number       1

loop_
  _symmetry_equiv_pos_as_xyz
  'x, y, z'

loop_
  _atom_site_label
  _atom_site_occupancy
  _atom_site_fract_x
  _atom_site_fract_y
  _atom_site_fract_z
  _atom_site_thermal_displace_type
  _atom_site_B_iso_or_equiv
  _atom_site_type_symbol
  Au1      1.0000 0.97964  0.23380  0.20481  Biso   1.000  Au
  Au2      1.0000 0.02036  0.73380  0.79519  Biso   1.000  Au
  Au3      1.0000 0.00706  0.98640  0.02705  Biso   1.000  Au
  Au4      1.0000 0.99294  0.48640  0.97295  Biso   1.000  Au
  Cu1      1.0000 0.43120  0.22540  0.83940  Biso   1.000  Cu
  Cu2      1.0000 0.56880  0.72540  0.16060  Biso   1.000  Cu
  N1       1.0000 0.63080  0.25050  0.02100  Biso   1.000  N
  N2       1.0000 0.36920  0.75050  0.97900  Biso   1.000  N
  N3       1.0000 0.31010  0.22200  0.41530  Biso   1.000  N
  N4       1.0000 0.68990  0.72200  0.58470  Biso   1.000  N
  N5       1.0000 0.28900  0.11140  0.91590  Biso   1.000  N
  N6       1.0000 0.71100  0.61140  0.08410  Biso   1.000  N
  N7       1.0000 0.28000  0.35390  0.87800  Biso   1.000  N
  N8       1.0000 0.72000  0.85390  0.12200  Biso   1.000  N
  N9       1.0000 0.56730  0.09140  0.77550  Biso   1.000  N
  N10      1.0000 0.43270  0.59140  0.22450  Biso   1.000  N
  N11      1.0000 0.52190  0.32690  0.70160  Biso   1.000  N
  N12      1.0000 0.47810  0.82690  0.29840  Biso   1.000  N
  C1       1.0000 0.75750  0.24480  0.08990  Biso   1.000  C
  C2       1.0000 0.24250  0.74480  0.91010  Biso   1.000  C
  C3       1.0000 0.19600  0.22800  0.33400  Biso   1.000  C
  C4       1.0000 0.80400  0.72800  0.66600  Biso   1.000  C
  C5       1.0000 0.19000  0.06480  0.95700  Biso   1.000  C
  C6       1.0000 0.81000  0.56480  0.04300  Biso   1.000  C
  C7       1.0000 0.17900  0.40700  0.90800  Biso   1.000  C
  C8       1.0000 0.82100  0.90700  0.09200  Biso   1.000  C
  C9       1.0000 0.65290  0.14080  0.66690  Biso   1.000  C
  C10      1.0000 0.34710  0.64080  0.33310  Biso   1.000  C
  C11      1.0000 0.80800  0.07400  0.65700  Biso   1.000  C
  C12      1.0000 0.19200  0.57400  0.34300  Biso   1.000  C
  C13      1.0000 0.89600  0.12900  0.55400  Biso   1.000  C
  C14      1.0000 0.10400  0.62900  0.44600  Biso   1.000  C
  C15      1.0000 0.91900  0.25900  0.58100  Biso   1.000  C
  C16      1.0000 0.08100  0.75900  0.41900  Biso   1.000  C
  C17      1.0000 0.75900  0.32600  0.57900  Biso   1.000  C
  C18      1.0000 0.24100  0.82600  0.42100  Biso   1.000  C
  C19      1.0000 0.68100  0.27060  0.69100  Biso   1.000  C
  C20      1.0000 0.31900  0.77060  0.30900  Biso   1.000  C
  C21      1.0000 0.47400  0.97700  0.73100  Biso   1.000  C
  C22      1.0000 0.52600  0.47700  0.26900  Biso   1.000  C
  C23      1.0000 0.52500  0.45640  0.72200  Biso   1.000  C
  C24      1.0000 0.47500  0.95640  0.27800  Biso   1.000  C
  H1       1.0000 0.64840  0.07170  0.85170  Biso   1.000  H
  H2       1.0000 0.35160  0.57170  0.14830  Biso   1.000  H
  H3       1.0000 0.57640  0.13200  0.57520  Biso   1.000  H
  H4       1.0000 0.42360  0.63200  0.42480  Biso   1.000  H
  H5       1.0000 0.45340  0.31380  0.61610  Biso   1.000  H
  H6       1.0000 0.54660  0.81380  0.38390  Biso   1.000  H
  H7       1.0000 0.77910  0.98870  0.62750  Biso   1.000  H
  H8       1.0000 0.22090  0.48870  0.37250  Biso   1.000  H
  H9       1.0000 0.88170  0.07350  0.75060  Biso   1.000  H
  H10      1.0000 0.11830  0.57350  0.24940  Biso   1.000  H
  H11      1.0000 0.83120  0.11680  0.45790  Biso   1.000  H
  H12      1.0000 0.16880  0.61680  0.54210  Biso   1.000  H
  H13      1.0000 0.00480  0.08910  0.56260  Biso   1.000  H
  H14      1.0000 0.99520  0.58910  0.43740  Biso   1.000  H
  H15      1.0000 0.97340  0.29490  0.50820  Biso   1.000  H
  H16      1.0000 0.02660  0.79490  0.49180  Biso   1.000  H
  H17      1.0000 0.99090  0.27060  0.67450  Biso   1.000  H
  H18      1.0000 0.00910  0.77060  0.32550  Biso   1.000  H
  H19      1.0000 0.68610  0.31640  0.48600  Biso   1.000  H
  H20      1.0000 0.31390  0.81640  0.51400  Biso   1.000  H
  H21      1.0000 0.78090  0.41390  0.59860  Biso   1.000  H
  H22      1.0000 0.21910  0.91390  0.40140  Biso   1.000  H
  H23      1.0000 0.75770  0.28100  0.78280  Biso   1.000  H
  H24      1.0000 0.24230  0.78100  0.21720  Biso   1.000  H
  H25      1.0000 0.42010  0.94880  0.80700  Biso   1.000  H
  H26      1.0000 0.57990  0.44880  0.19300  Biso   1.000  H
  H27      1.0000 0.55170  0.91390  0.71080  Biso   1.000  H
  H28      1.0000 0.44830  0.41390  0.28920  Biso   1.000  H
  H29      1.0000 0.38970  0.99290  0.64520  Biso   1.000  H
  H30      1.0000 0.61030  0.49290  0.35480  Biso   1.000  H
  H31      1.0000 0.41260  0.48500  0.72780  Biso   1.000  H
  H32      1.0000 0.58740  0.98500  0.27220  Biso   1.000  H
  H33      1.0000 0.56100  0.49710  0.64280  Biso   1.000  H
  H34      1.0000 0.43900  0.99710  0.35720  Biso   1.000  H
  H35      1.0000 0.60190  0.47650  0.81080  Biso   1.000  H
  H36      1.0000 0.39810  0.97650  0.18920  Biso   1.000  H
