data_image0
_cell_length_a       11.2222
_cell_length_b       11.3111
_cell_length_c       12.6549
_cell_angle_alpha    97.497
_cell_angle_beta     100.847
_cell_angle_gamma    110.511

_symmetry_space_group_name_H-M    "P 1"
_symmetry_int_tables_number       1

loop_
  _symmetry_equiv_pos_as_xyz
  'x, y, z'

loop_
  _atom_site_label
  _atom_site_occupancy
  _atom_site_fract_x
  _atom_site_fract_y
  _atom_site_fract_z
  _atom_site_thermal_displace_type
  _atom_site_B_iso_or_equiv
  _atom_site_type_symbol
  Cu1      1.0000 0.15431  0.41136  0.54888  Biso   1.000  Cu
  Cu2      1.0000 0.84569  0.58864  0.45112  Biso   1.000  Cu
  N1       1.0000 0.27870  0.57930  0.52940  Biso   1.000  N
  N2       1.0000 0.72130  0.42070  0.47060  Biso   1.000  N
  C1       1.0000 0.34470  0.38930  0.78700  Biso   1.000  C
  C2       1.0000 0.65530  0.61070  0.21300  Biso   1.000  C
  O1       1.0000 0.24950  0.40210  0.82760  Biso   1.000  O
  O2       1.0000 0.75050  0.59790  0.17240  Biso   1.000  O
  H1       1.0000 0.20800  0.44400  0.78600  Biso   1.000  H
  H2       1.0000 0.79200  0.55600  0.21400  Biso   1.000  H
  O3       1.0000 0.03220  0.24440  0.56050  Biso   1.000  O
  O4       1.0000 0.96780  0.75560  0.43950  Biso   1.000  O
  H3       1.0000 0.98880  0.20400  0.49520  Biso   1.000  H
  H4       1.0000 0.01120  0.79600  0.50480  Biso   1.000  H
  H5       1.0000 0.01060  0.19290  0.60320  Biso   1.000  H
  H6       1.0000 0.98940  0.80710  0.39680  Biso   1.000  H
  N3       1.0000 0.67500  0.04090  0.28610  Biso   1.000  N
  N4       1.0000 0.32500  0.95910  0.71390  Biso   1.000  N
  C3       1.0000 0.42720  0.33650  0.85650  Biso   1.000  C
  C4       1.0000 0.57280  0.66350  0.14350  Biso   1.000  C
  O5       1.0000 0.36170  0.41450  0.70010  Biso   1.000  O
  O6       1.0000 0.63830  0.58550  0.29990  Biso   1.000  O
  C5       1.0000 0.37350  0.25460  0.92410  Biso   1.000  C
  C6       1.0000 0.62650  0.74540  0.07590  Biso   1.000  C
  H7       1.0000 0.28840  0.23830  0.93080  Biso   1.000  H
  H8       1.0000 0.71160  0.76170  0.06920  Biso   1.000  H
  O7       1.0000 0.21566  0.32477  0.43818  Biso   1.000  O
  O8       1.0000 0.78434  0.67523  0.56182  Biso   1.000  O
  C7       1.0000 0.44920  0.19860  0.98050  Biso   1.000  C
  C8       1.0000 0.55080  0.80140  0.01950  Biso   1.000  C
  O9       1.0000 0.06830  0.12150  0.39390  Biso   1.000  O
  O10      1.0000 0.93170  0.87850  0.60610  Biso   1.000  O
  C9       1.0000 0.57670  0.22250  0.97400  Biso   1.000  C
  C10      1.0000 0.42330  0.77750  0.02600  Biso   1.000  C
  H9       1.0000 0.62670  0.18430  0.01290  Biso   1.000  H
  H10      1.0000 0.37330  0.81570  0.98710  Biso   1.000  H
  O11      1.0000 0.10880  0.87360  0.29910  Biso   1.000  O
  O12      1.0000 0.89120  0.12640  0.70090  Biso   1.000  O
  O13      1.0000 0.95340  0.91590  0.19990  Biso   1.000  O
  O14      1.0000 0.04660  0.08410  0.80010  Biso   1.000  O
  H11      1.0000 0.94300  0.96600  0.17600  Biso   1.000  H
  H12      1.0000 0.05700  0.03400  0.82400  Biso   1.000  H
  C11      1.0000 0.62830  0.30580  0.90730  Biso   1.000  C
  C12      1.0000 0.37170  0.69420  0.09270  Biso   1.000  C
  C13      1.0000 0.55290  0.35790  0.84600  Biso   1.000  C
  C14      1.0000 0.44710  0.64210  0.15400  Biso   1.000  C
  H13      1.0000 0.58660  0.40760  0.79750  Biso   1.000  H
  H14      1.0000 0.41340  0.59240  0.20250  Biso   1.000  H
  O15      1.0000 0.39700  0.10830  0.04173  Biso   1.000  O
  O16      1.0000 0.60300  0.89170  0.95827  Biso   1.000  O
  C15      1.0000 0.16110  0.21210  0.37900  Biso   1.000  C
  C16      1.0000 0.83890  0.78790  0.62100  Biso   1.000  C
  O17      1.0000 0.09050  0.89340  0.87310  Biso   1.000  O
  O18      1.0000 0.90950  0.10660  0.12690  Biso   1.000  O
  O19      1.0000 0.19310  0.78270  0.79770  Biso   1.000  O
  O20      1.0000 0.80690  0.21730  0.20230  Biso   1.000  O
  H15      1.0000 0.19720  0.71060  0.77430  Biso   1.000  H
  H16      1.0000 0.80280  0.28940  0.22570  Biso   1.000  H
  C17      1.0000 0.07720  0.94400  0.24690  Biso   1.000  C
  C18      1.0000 0.92280  0.05600  0.75310  Biso   1.000  C
  O21      1.0000 0.11530  0.48000  0.68229  Biso   1.000  O
  O22      1.0000 0.88470  0.52000  0.31771  Biso   1.000  O
  C19      1.0000 0.21750  0.18520  0.28470  Biso   1.000  C
  C20      1.0000 0.78250  0.81480  0.71530  Biso   1.000  C
  O23      1.0000 0.00250  0.58760  0.60743  Biso   1.000  O
  O24      1.0000 0.99750  0.41240  0.39257  Biso   1.000  O
  C21      1.0000 0.17900  0.06040  0.22440  Biso   1.000  C
  C22      1.0000 0.82100  0.93960  0.77560  Biso   1.000  C
  O25      1.0000 0.75290  0.31860  0.89700  Biso   1.000  O
  O26      1.0000 0.24710  0.68140  0.10300  Biso   1.000  O
  C23      1.0000 0.23680  0.03650  0.14030  Biso   1.000  C
  C24      1.0000 0.76320  0.96350  0.85970  Biso   1.000  C
  H17      1.0000 0.21090  0.95300  0.09970  Biso   1.000  H
  H18      1.0000 0.78910  0.04700  0.90030  Biso   1.000  H
  C25      1.0000 0.33370  0.13900  0.11770  Biso   1.000  C
  C26      1.0000 0.66630  0.86100  0.88230  Biso   1.000  C
  C27      1.0000 0.37190  0.26290  0.17550  Biso   1.000  C
  C28      1.0000 0.62810  0.73710  0.82450  Biso   1.000  C
  H19      1.0000 0.43600  0.33080  0.15870  Biso   1.000  H
  H20      1.0000 0.56400  0.66920  0.84130  Biso   1.000  H
  C29      1.0000 0.31420  0.28580  0.25850  Biso   1.000  C
  C30      1.0000 0.68580  0.71420  0.74150  Biso   1.000  C
  H21      1.0000 0.34010  0.36980  0.29790  Biso   1.000  H
  H22      1.0000 0.65990  0.63020  0.70210  Biso   1.000  H
  C31      1.0000 0.10040  0.79080  0.84040  Biso   1.000  C
  C32      1.0000 0.89960  0.20920  0.15960  Biso   1.000  C
  C33      1.0000 0.03920  0.54220  0.68310  Biso   1.000  C
  C34      1.0000 0.96080  0.45780  0.31690  Biso   1.000  C
  C35      1.0000 0.00590  0.66550  0.85150  Biso   1.000  C
  C36      1.0000 0.99410  0.33450  0.14850  Biso   1.000  C
  C37      1.0000 0.98550  0.54840  0.78380  Biso   1.000  C
  C38      1.0000 0.01450  0.45160  0.21620  Biso   1.000  C
  C39      1.0000 0.90110  0.43350  0.80070  Biso   1.000  C
  C40      1.0000 0.09890  0.56650  0.19930  Biso   1.000  C
  H23      1.0000 0.88930  0.35500  0.75780  Biso   1.000  H
  H24      1.0000 0.11070  0.64500  0.24220  Biso   1.000  H
  C41      1.0000 0.83440  0.43650  0.88240  Biso   1.000  C
  C42      1.0000 0.16560  0.56350  0.11760  Biso   1.000  C
  C43      1.0000 0.85250  0.55110  0.94850  Biso   1.000  C
  C44      1.0000 0.14750  0.44890  0.05150  Biso   1.000  C
  H25      1.0000 0.80690  0.55160  0.00270  Biso   1.000  H
  H26      1.0000 0.19310  0.44840  0.99730  Biso   1.000  H
  C45      1.0000 0.93850  0.66460  0.93370  Biso   1.000  C
  C46      1.0000 0.06150  0.33540  0.06630  Biso   1.000  C
  H27      1.0000 0.95220  0.74220  0.97910  Biso   1.000  H
  H28      1.0000 0.04780  0.25780  0.02090  Biso   1.000  H
  C47      1.0000 0.24180  0.67350  0.50090  Biso   1.000  C
  C48      1.0000 0.75820  0.32650  0.49910  Biso   1.000  C
  H29      1.0000 0.16080  0.67230  0.50930  Biso   1.000  H
  H30      1.0000 0.83920  0.32770  0.49070  Biso   1.000  H
  C49      1.0000 0.31830  0.77260  0.45970  Biso   1.000  C
  C50      1.0000 0.68170  0.22740  0.54030  Biso   1.000  C
  H31      1.0000 0.28850  0.83590  0.44050  Biso   1.000  H
  H32      1.0000 0.71150  0.16410  0.55950  Biso   1.000  H
  C51      1.0000 0.44010  0.77680  0.44740  Biso   1.000  C
  C52      1.0000 0.55990  0.22320  0.55260  Biso   1.000  C
  C53      1.0000 0.48080  0.68330  0.48310  Biso   1.000  C
  C54      1.0000 0.51920  0.31670  0.51690  Biso   1.000  C
  H33      1.0000 0.56330  0.68470  0.47950  Biso   1.000  H
  H34      1.0000 0.43670  0.31530  0.52050  Biso   1.000  H
  C55      1.0000 0.39910  0.58840  0.52380  Biso   1.000  C
  C56      1.0000 0.60090  0.41160  0.47620  Biso   1.000  C
  H35      1.0000 0.42920  0.52760  0.54870  Biso   1.000  H
  H36      1.0000 0.57080  0.47240  0.45130  Biso   1.000  H
  C57      1.0000 0.54910  0.02020  0.27410  Biso   1.000  C
  C58      1.0000 0.45090  0.97980  0.72590  Biso   1.000  C
  H37      1.0000 0.51240  0.06290  0.22800  Biso   1.000  H
  H38      1.0000 0.48760  0.93710  0.77200  Biso   1.000  H
  C59      1.0000 0.46950  0.93780  0.32690  Biso   1.000  C
  C60      1.0000 0.53050  0.06220  0.67310  Biso   1.000  C
  H39      1.0000 0.38140  0.92570  0.31640  Biso   1.000  H
  H40      1.0000 0.61860  0.07430  0.68360  Biso   1.000  H
  C61      1.0000 0.52300  0.87400  0.39540  Biso   1.000  C
  C62      1.0000 0.47700  0.12600  0.60460  Biso   1.000  C
  C63      1.0000 0.65660  0.89870  0.40900  Biso   1.000  C
  C64      1.0000 0.34340  0.10130  0.59100  Biso   1.000  C
  H41      1.0000 0.69690  0.85920  0.45580  Biso   1.000  H
  H42      1.0000 0.30310  0.14080  0.54420  Biso   1.000  H
  C65      1.0000 0.72790  0.98140  0.35310  Biso   1.000  C
  C66      1.0000 0.27210  0.01860  0.64690  Biso   1.000  C
  H43      1.0000 0.81660  0.99640  0.36250  Biso   1.000  H
  H44      1.0000 0.18340  0.00360  0.63750  Biso   1.000  H
