data_image0
_cell_length_a       15.106
_cell_length_b       23.667
_cell_length_c       27.637
_cell_angle_alpha    90
_cell_angle_beta     90
_cell_angle_gamma    90

_symmetry_space_group_name_H-M    "P 1"
_symmetry_int_tables_number       1

loop_
  _symmetry_equiv_pos_as_xyz
  'x, y, z'

loop_
  _atom_site_label
  _atom_site_occupancy
  _atom_site_fract_x
  _atom_site_fract_y
  _atom_site_fract_z
  _atom_site_thermal_displace_type
  _atom_site_B_iso_or_equiv
  _atom_site_type_symbol
  Cu1      1.0000 0.79585  0.12500  0.12500  Biso   1.000  Cu
  Cu2      1.0000 0.45415  0.12500  0.12500  Biso   1.000  Cu
  Cu3      1.0000 0.79585  0.62500  0.62500  Biso   1.000  Cu
  Cu4      1.0000 0.29585  0.12500  0.62500  Biso   1.000  Cu
  Cu5      1.0000 0.29585  0.62500  0.12500  Biso   1.000  Cu
  Cu6      1.0000 0.45415  0.62500  0.62500  Biso   1.000  Cu
  Cu7      1.0000 0.95415  0.12500  0.62500  Biso   1.000  Cu
  Cu8      1.0000 0.95415  0.62500  0.12500  Biso   1.000  Cu
  Cu9      1.0000 0.20415  0.87500  0.87500  Biso   1.000  Cu
  Cu10     1.0000 0.04585  0.37500  0.87500  Biso   1.000  Cu
  Cu11     1.0000 0.20415  0.37500  0.37500  Biso   1.000  Cu
  Cu12     1.0000 0.04585  0.87500  0.37500  Biso   1.000  Cu
  Cu13     1.0000 0.70415  0.87500  0.37500  Biso   1.000  Cu
  Cu14     1.0000 0.70415  0.37500  0.87500  Biso   1.000  Cu
  Cu15     1.0000 0.54585  0.37500  0.37500  Biso   1.000  Cu
  Cu16     1.0000 0.54585  0.87500  0.87500  Biso   1.000  Cu
  Cl1      1.0000 0.87500  0.23920  0.37500  Biso   1.000  Cl
  Cl2      1.0000 0.37500  0.01080  0.37500  Biso   1.000  Cl
  Cl3      1.0000 0.87500  0.01080  0.87500  Biso   1.000  Cl
  Cl4      1.0000 0.37500  0.23920  0.87500  Biso   1.000  Cl
  Cl5      1.0000 0.87500  0.73920  0.87500  Biso   1.000  Cl
  Cl6      1.0000 0.37500  0.73920  0.37500  Biso   1.000  Cl
  Cl7      1.0000 0.37500  0.51080  0.87500  Biso   1.000  Cl
  Cl8      1.0000 0.87500  0.51080  0.37500  Biso   1.000  Cl
  Cl9      1.0000 0.12500  0.76080  0.62500  Biso   1.000  Cl
  Cl10     1.0000 0.12500  0.48920  0.62500  Biso   1.000  Cl
  Cl11     1.0000 0.12500  0.26080  0.12500  Biso   1.000  Cl
  Cl12     1.0000 0.62500  0.76080  0.12500  Biso   1.000  Cl
  Cl13     1.0000 0.62500  0.26080  0.62500  Biso   1.000  Cl
  Cl14     1.0000 0.12500  0.98920  0.12500  Biso   1.000  Cl
  Cl15     1.0000 0.62500  0.48920  0.12500  Biso   1.000  Cl
  Cl16     1.0000 0.62500  0.98920  0.62500  Biso   1.000  Cl
  S1       1.0000 0.08296  0.15863  0.29844  Biso   1.000  S
  S2       1.0000 0.16704  0.09137  0.29844  Biso   1.000  S
  S3       1.0000 0.08296  0.09137  0.95156  Biso   1.000  S
  S4       1.0000 0.16704  0.15863  0.95156  Biso   1.000  S
  S5       1.0000 0.08296  0.65863  0.79844  Biso   1.000  S
  S6       1.0000 0.58296  0.15863  0.79844  Biso   1.000  S
  S7       1.0000 0.58296  0.65863  0.29844  Biso   1.000  S
  S8       1.0000 0.16704  0.59137  0.79844  Biso   1.000  S
  S9       1.0000 0.08296  0.59137  0.45156  Biso   1.000  S
  S10      1.0000 0.16704  0.65863  0.45156  Biso   1.000  S
  S11      1.0000 0.66704  0.09137  0.79844  Biso   1.000  S
  S12      1.0000 0.58296  0.09137  0.45156  Biso   1.000  S
  S13      1.0000 0.66704  0.15863  0.45156  Biso   1.000  S
  S14      1.0000 0.66704  0.59137  0.29844  Biso   1.000  S
  S15      1.0000 0.58296  0.59137  0.95156  Biso   1.000  S
  S16      1.0000 0.66704  0.65863  0.95156  Biso   1.000  S
  S17      1.0000 0.91704  0.84137  0.70156  Biso   1.000  S
  S18      1.0000 0.33296  0.40863  0.70156  Biso   1.000  S
  S19      1.0000 0.91704  0.40863  0.54844  Biso   1.000  S
  S20      1.0000 0.33296  0.84137  0.54844  Biso   1.000  S
  S21      1.0000 0.91704  0.34137  0.20156  Biso   1.000  S
  S22      1.0000 0.41704  0.84137  0.20156  Biso   1.000  S
  S23      1.0000 0.41704  0.34137  0.70156  Biso   1.000  S
  S24      1.0000 0.33296  0.90863  0.20156  Biso   1.000  S
  S25      1.0000 0.91704  0.90863  0.04844  Biso   1.000  S
  S26      1.0000 0.33296  0.34137  0.04844  Biso   1.000  S
  S27      1.0000 0.83296  0.40863  0.20156  Biso   1.000  S
  S28      1.0000 0.41704  0.40863  0.04844  Biso   1.000  S
  S29      1.0000 0.83296  0.84137  0.04844  Biso   1.000  S
  S30      1.0000 0.83296  0.90863  0.70156  Biso   1.000  S
  S31      1.0000 0.41704  0.90863  0.54844  Biso   1.000  S
  S32      1.0000 0.83296  0.34137  0.54844  Biso   1.000  S
  O1       1.0000 0.69800  0.12160  0.07712  Biso   1.000  O
  O2       1.0000 0.55200  0.12840  0.07712  Biso   1.000  O
  O3       1.0000 0.69800  0.12840  0.17288  Biso   1.000  O
  O4       1.0000 0.55200  0.12160  0.17288  Biso   1.000  O
  O5       1.0000 0.69800  0.62160  0.57712  Biso   1.000  O
  O6       1.0000 0.19800  0.12160  0.57712  Biso   1.000  O
  O7       1.0000 0.19800  0.62160  0.07712  Biso   1.000  O
  O8       1.0000 0.55200  0.62840  0.57712  Biso   1.000  O
  O9       1.0000 0.69800  0.62840  0.67288  Biso   1.000  O
  O10      1.0000 0.55200  0.62160  0.67288  Biso   1.000  O
  O11      1.0000 0.05200  0.12840  0.57712  Biso   1.000  O
  O12      1.0000 0.19800  0.12840  0.67288  Biso   1.000  O
  O13      1.0000 0.05200  0.12160  0.67288  Biso   1.000  O
  O14      1.0000 0.05200  0.62840  0.07712  Biso   1.000  O
  O15      1.0000 0.19800  0.62840  0.17288  Biso   1.000  O
  O16      1.0000 0.05200  0.62160  0.17288  Biso   1.000  O
  O17      1.0000 0.30200  0.87840  0.92288  Biso   1.000  O
  O18      1.0000 0.94800  0.37160  0.92288  Biso   1.000  O
  O19      1.0000 0.30200  0.37160  0.32712  Biso   1.000  O
  O20      1.0000 0.94800  0.87840  0.32712  Biso   1.000  O
  O21      1.0000 0.30200  0.37840  0.42288  Biso   1.000  O
  O22      1.0000 0.80200  0.87840  0.42288  Biso   1.000  O
  O23      1.0000 0.80200  0.37840  0.92288  Biso   1.000  O
  O24      1.0000 0.94800  0.87160  0.42288  Biso   1.000  O
  O25      1.0000 0.30200  0.87160  0.82712  Biso   1.000  O
  O26      1.0000 0.94800  0.37840  0.82712  Biso   1.000  O
  O27      1.0000 0.44800  0.37160  0.42288  Biso   1.000  O
  O28      1.0000 0.80200  0.37160  0.82712  Biso   1.000  O
  O29      1.0000 0.44800  0.87840  0.82712  Biso   1.000  O
  O30      1.0000 0.44800  0.87160  0.92288  Biso   1.000  O
  O31      1.0000 0.80200  0.87160  0.32712  Biso   1.000  O
  O32      1.0000 0.44800  0.37840  0.32712  Biso   1.000  O
  O33      1.0000 0.78690  0.22730  0.11710  Biso   1.000  O
  O34      1.0000 0.46310  0.02270  0.11710  Biso   1.000  O
  O35      1.0000 0.78690  0.02270  0.13290  Biso   1.000  O
  O36      1.0000 0.46310  0.22730  0.13290  Biso   1.000  O
  O37      1.0000 0.78690  0.72730  0.61710  Biso   1.000  O
  O38      1.0000 0.28690  0.22730  0.61710  Biso   1.000  O
  O39      1.0000 0.28690  0.72730  0.11710  Biso   1.000  O
  O40      1.0000 0.46310  0.52270  0.61710  Biso   1.000  O
  O41      1.0000 0.78690  0.52270  0.63290  Biso   1.000  O
  O42      1.0000 0.46310  0.72730  0.63290  Biso   1.000  O
  O43      1.0000 0.96310  0.02270  0.61710  Biso   1.000  O
  O44      1.0000 0.28690  0.02270  0.63290  Biso   1.000  O
  O45      1.0000 0.96310  0.22730  0.63290  Biso   1.000  O
  O46      1.0000 0.96310  0.52270  0.11710  Biso   1.000  O
  O47      1.0000 0.28690  0.52270  0.13290  Biso   1.000  O
  O48      1.0000 0.96310  0.72730  0.13290  Biso   1.000  O
  O49      1.0000 0.21310  0.77270  0.88290  Biso   1.000  O
  O50      1.0000 0.03690  0.47730  0.88290  Biso   1.000  O
  O51      1.0000 0.21310  0.47730  0.36710  Biso   1.000  O
  O52      1.0000 0.03690  0.77270  0.36710  Biso   1.000  O
  O53      1.0000 0.21310  0.27270  0.38290  Biso   1.000  O
  O54      1.0000 0.71310  0.77270  0.38290  Biso   1.000  O
  O55      1.0000 0.71310  0.27270  0.88290  Biso   1.000  O
  O56      1.0000 0.03690  0.97730  0.38290  Biso   1.000  O
  O57      1.0000 0.21310  0.97730  0.86710  Biso   1.000  O
  O58      1.0000 0.03690  0.27270  0.86710  Biso   1.000  O
  O59      1.0000 0.53690  0.47730  0.38290  Biso   1.000  O
  O60      1.0000 0.71310  0.47730  0.86710  Biso   1.000  O
  O61      1.0000 0.53690  0.77270  0.86710  Biso   1.000  O
  O62      1.0000 0.53690  0.97730  0.88290  Biso   1.000  O
  O63      1.0000 0.71310  0.97730  0.36710  Biso   1.000  O
  O64      1.0000 0.53690  0.27270  0.36710  Biso   1.000  O
  O65      1.0000 0.85080  0.18810  0.35860  Biso   1.000  O
  O66      1.0000 0.39920  0.06190  0.35860  Biso   1.000  O
  O67      1.0000 0.85080  0.06190  0.89140  Biso   1.000  O
  O68      1.0000 0.39920  0.18810  0.89140  Biso   1.000  O
  O69      1.0000 0.85080  0.68810  0.85860  Biso   1.000  O
  O70      1.0000 0.35080  0.18810  0.85860  Biso   1.000  O
  O71      1.0000 0.35080  0.68810  0.35860  Biso   1.000  O
  O72      1.0000 0.39920  0.56190  0.85860  Biso   1.000  O
  O73      1.0000 0.85080  0.56190  0.39140  Biso   1.000  O
  O74      1.0000 0.39920  0.68810  0.39140  Biso   1.000  O
  O75      1.0000 0.89920  0.06190  0.85860  Biso   1.000  O
  O76      1.0000 0.35080  0.06190  0.39140  Biso   1.000  O
  O77      1.0000 0.89920  0.18810  0.39140  Biso   1.000  O
  O78      1.0000 0.89920  0.56190  0.35860  Biso   1.000  O
  O79      1.0000 0.35080  0.56190  0.89140  Biso   1.000  O
  O80      1.0000 0.89920  0.68810  0.89140  Biso   1.000  O
  O81      1.0000 0.14920  0.81190  0.64140  Biso   1.000  O
  O82      1.0000 0.10080  0.43810  0.64140  Biso   1.000  O
  O83      1.0000 0.14920  0.43810  0.60860  Biso   1.000  O
  O84      1.0000 0.10080  0.81190  0.60860  Biso   1.000  O
  O85      1.0000 0.14920  0.31190  0.14140  Biso   1.000  O
  O86      1.0000 0.64920  0.81190  0.14140  Biso   1.000  O
  O87      1.0000 0.64920  0.31190  0.64140  Biso   1.000  O
  O88      1.0000 0.10080  0.93810  0.14140  Biso   1.000  O
  O89      1.0000 0.14920  0.93810  0.10860  Biso   1.000  O
  O90      1.0000 0.10080  0.31190  0.10860  Biso   1.000  O
  O91      1.0000 0.60080  0.43810  0.14140  Biso   1.000  O
  O92      1.0000 0.64920  0.43810  0.10860  Biso   1.000  O
  O93      1.0000 0.60080  0.81190  0.10860  Biso   1.000  O
  O94      1.0000 0.60080  0.93810  0.64140  Biso   1.000  O
  O95      1.0000 0.64920  0.93810  0.60860  Biso   1.000  O
  O96      1.0000 0.60080  0.31190  0.60860  Biso   1.000  O
  O97      1.0000 0.95170  0.22280  0.41350  Biso   1.000  O
  O98      1.0000 0.29830  0.02720  0.41350  Biso   1.000  O
  O99      1.0000 0.95170  0.02720  0.83650  Biso   1.000  O
  O100     1.0000 0.29830  0.22280  0.83650  Biso   1.000  O
  O101     1.0000 0.95170  0.72280  0.91350  Biso   1.000  O
  O102     1.0000 0.45170  0.22280  0.91350  Biso   1.000  O
  O103     1.0000 0.45170  0.72280  0.41350  Biso   1.000  O
  O104     1.0000 0.29830  0.52720  0.91350  Biso   1.000  O
  O105     1.0000 0.95170  0.52720  0.33650  Biso   1.000  O
  O106     1.0000 0.29830  0.72280  0.33650  Biso   1.000  O
  O107     1.0000 0.79830  0.02720  0.91350  Biso   1.000  O
  O108     1.0000 0.45170  0.02720  0.33650  Biso   1.000  O
  O109     1.0000 0.79830  0.22280  0.33650  Biso   1.000  O
  O110     1.0000 0.79830  0.52720  0.41350  Biso   1.000  O
  O111     1.0000 0.45170  0.52720  0.83650  Biso   1.000  O
  O112     1.0000 0.79830  0.72280  0.83650  Biso   1.000  O
  O113     1.0000 0.04830  0.77720  0.58650  Biso   1.000  O
  O114     1.0000 0.20170  0.47280  0.58650  Biso   1.000  O
  O115     1.0000 0.04830  0.47280  0.66350  Biso   1.000  O
  O116     1.0000 0.20170  0.77720  0.66350  Biso   1.000  O
  O117     1.0000 0.04830  0.27720  0.08650  Biso   1.000  O
  O118     1.0000 0.54830  0.77720  0.08650  Biso   1.000  O
  O119     1.0000 0.54830  0.27720  0.58650  Biso   1.000  O
  O120     1.0000 0.20170  0.97280  0.08650  Biso   1.000  O
  O121     1.0000 0.04830  0.97280  0.16350  Biso   1.000  O
  O122     1.0000 0.20170  0.27720  0.16350  Biso   1.000  O
  O123     1.0000 0.70170  0.47280  0.08650  Biso   1.000  O
  O124     1.0000 0.54830  0.47280  0.16350  Biso   1.000  O
  O125     1.0000 0.70170  0.77720  0.16350  Biso   1.000  O
  O126     1.0000 0.70170  0.97280  0.58650  Biso   1.000  O
  O127     1.0000 0.54830  0.97280  0.66350  Biso   1.000  O
  O128     1.0000 0.70170  0.27720  0.66350  Biso   1.000  O
  O129     1.0000 0.92670  0.27190  0.34380  Biso   1.000  O
  O130     1.0000 0.32330  0.97810  0.34380  Biso   1.000  O
  O131     1.0000 0.92670  0.97810  0.90620  Biso   1.000  O
  O132     1.0000 0.32330  0.27190  0.90620  Biso   1.000  O
  O133     1.0000 0.92670  0.77190  0.84380  Biso   1.000  O
  O134     1.0000 0.42670  0.27190  0.84380  Biso   1.000  O
  O135     1.0000 0.42670  0.77190  0.34380  Biso   1.000  O
  O136     1.0000 0.32330  0.47810  0.84380  Biso   1.000  O
  O137     1.0000 0.92670  0.47810  0.40620  Biso   1.000  O
  O138     1.0000 0.32330  0.77190  0.40620  Biso   1.000  O
  O139     1.0000 0.82330  0.97810  0.84380  Biso   1.000  O
  O140     1.0000 0.42670  0.97810  0.40620  Biso   1.000  O
  O141     1.0000 0.82330  0.27190  0.40620  Biso   1.000  O
  O142     1.0000 0.82330  0.47810  0.34380  Biso   1.000  O
  O143     1.0000 0.42670  0.47810  0.90620  Biso   1.000  O
  O144     1.0000 0.82330  0.77190  0.90620  Biso   1.000  O
  O145     1.0000 0.07330  0.72810  0.65620  Biso   1.000  O
  O146     1.0000 0.17670  0.52190  0.65620  Biso   1.000  O
  O147     1.0000 0.07330  0.52190  0.59380  Biso   1.000  O
  O148     1.0000 0.17670  0.72810  0.59380  Biso   1.000  O
  O149     1.0000 0.07330  0.22810  0.15620  Biso   1.000  O
  O150     1.0000 0.57330  0.72810  0.15620  Biso   1.000  O
  O151     1.0000 0.57330  0.22810  0.65620  Biso   1.000  O
  O152     1.0000 0.17670  0.02190  0.15620  Biso   1.000  O
  O153     1.0000 0.07330  0.02190  0.09380  Biso   1.000  O
  O154     1.0000 0.17670  0.22810  0.09380  Biso   1.000  O
  O155     1.0000 0.67670  0.52190  0.15620  Biso   1.000  O
  O156     1.0000 0.57330  0.52190  0.09380  Biso   1.000  O
  O157     1.0000 0.67670  0.72810  0.09380  Biso   1.000  O
  O158     1.0000 0.67670  0.02190  0.65620  Biso   1.000  O
  O159     1.0000 0.57330  0.02190  0.59380  Biso   1.000  O
  O160     1.0000 0.67670  0.22810  0.59380  Biso   1.000  O
  N1       1.0000 0.88500  0.13300  0.17683  Biso   1.000  N
  N2       1.0000 0.36500  0.11700  0.17683  Biso   1.000  N
  N3       1.0000 0.88500  0.11700  0.07317  Biso   1.000  N
  N4       1.0000 0.36500  0.13300  0.07317  Biso   1.000  N
  N5       1.0000 0.88500  0.63300  0.67683  Biso   1.000  N
  N6       1.0000 0.38500  0.13300  0.67683  Biso   1.000  N
  N7       1.0000 0.38500  0.63300  0.17683  Biso   1.000  N
  N8       1.0000 0.36500  0.61700  0.67683  Biso   1.000  N
  N9       1.0000 0.88500  0.61700  0.57317  Biso   1.000  N
  N10      1.0000 0.36500  0.63300  0.57317  Biso   1.000  N
  N11      1.0000 0.86500  0.11700  0.67683  Biso   1.000  N
  N12      1.0000 0.38500  0.11700  0.57317  Biso   1.000  N
  N13      1.0000 0.86500  0.13300  0.57317  Biso   1.000  N
  N14      1.0000 0.86500  0.61700  0.17683  Biso   1.000  N
  N15      1.0000 0.38500  0.61700  0.07317  Biso   1.000  N
  N16      1.0000 0.86500  0.63300  0.07317  Biso   1.000  N
  N17      1.0000 0.11500  0.86700  0.82317  Biso   1.000  N
  N18      1.0000 0.13500  0.38300  0.82317  Biso   1.000  N
  N19      1.0000 0.11500  0.38300  0.42683  Biso   1.000  N
  N20      1.0000 0.13500  0.86700  0.42683  Biso   1.000  N
  N21      1.0000 0.11500  0.36700  0.32317  Biso   1.000  N
  N22      1.0000 0.61500  0.86700  0.32317  Biso   1.000  N
  N23      1.0000 0.61500  0.36700  0.82317  Biso   1.000  N
  N24      1.0000 0.13500  0.88300  0.32317  Biso   1.000  N
  N25      1.0000 0.11500  0.88300  0.92683  Biso   1.000  N
  N26      1.0000 0.13500  0.36700  0.92683  Biso   1.000  N
  N27      1.0000 0.63500  0.38300  0.32317  Biso   1.000  N
  N28      1.0000 0.61500  0.38300  0.92683  Biso   1.000  N
  N29      1.0000 0.63500  0.86700  0.92683  Biso   1.000  N
  N30      1.0000 0.63500  0.88300  0.82317  Biso   1.000  N
  N31      1.0000 0.61500  0.88300  0.42683  Biso   1.000  N
  N32      1.0000 0.63500  0.36700  0.42683  Biso   1.000  N
  C1       1.0000 0.62500  0.12500  0.09720  Biso   1.000  C
  C2       1.0000 0.62500  0.12500  0.15280  Biso   1.000  C
  C3       1.0000 0.62500  0.62500  0.59720  Biso   1.000  C
  C4       1.0000 0.12500  0.12500  0.59720  Biso   1.000  C
  C5       1.0000 0.12500  0.62500  0.09720  Biso   1.000  C
  C6       1.0000 0.62500  0.62500  0.65280  Biso   1.000  C
  C7       1.0000 0.12500  0.12500  0.65280  Biso   1.000  C
  C8       1.0000 0.12500  0.62500  0.15280  Biso   1.000  C
  C9       1.0000 0.37500  0.87500  0.90280  Biso   1.000  C
  C10      1.0000 0.87500  0.37500  0.90280  Biso   1.000  C
  C11      1.0000 0.37500  0.37500  0.34720  Biso   1.000  C
  C12      1.0000 0.87500  0.87500  0.34720  Biso   1.000  C
  C13      1.0000 0.37500  0.37500  0.40280  Biso   1.000  C
  C14      1.0000 0.87500  0.87500  0.40280  Biso   1.000  C
  C15      1.0000 0.37500  0.87500  0.84720  Biso   1.000  C
  C16      1.0000 0.87500  0.37500  0.84720  Biso   1.000  C
  C17      1.0000 0.87750  0.17500  0.21010  Biso   1.000  C
  C18      1.0000 0.37250  0.07500  0.21010  Biso   1.000  C
  C19      1.0000 0.87750  0.07500  0.03990  Biso   1.000  C
  C20      1.0000 0.37250  0.17500  0.03990  Biso   1.000  C
  C21      1.0000 0.87750  0.67500  0.71010  Biso   1.000  C
  C22      1.0000 0.37750  0.17500  0.71010  Biso   1.000  C
  C23      1.0000 0.37750  0.67500  0.21010  Biso   1.000  C
  C24      1.0000 0.37250  0.57500  0.71010  Biso   1.000  C
  C25      1.0000 0.87750  0.57500  0.53990  Biso   1.000  C
  C26      1.0000 0.37250  0.67500  0.53990  Biso   1.000  C
  C27      1.0000 0.87250  0.07500  0.71010  Biso   1.000  C
  C28      1.0000 0.37750  0.07500  0.53990  Biso   1.000  C
  C29      1.0000 0.87250  0.17500  0.53990  Biso   1.000  C
  C30      1.0000 0.87250  0.57500  0.21010  Biso   1.000  C
  C31      1.0000 0.37750  0.57500  0.03990  Biso   1.000  C
  C32      1.0000 0.87250  0.67500  0.03990  Biso   1.000  C
  C33      1.0000 0.12250  0.82500  0.78990  Biso   1.000  C
  C34      1.0000 0.12750  0.42500  0.78990  Biso   1.000  C
  C35      1.0000 0.12250  0.42500  0.46010  Biso   1.000  C
  C36      1.0000 0.12750  0.82500  0.46010  Biso   1.000  C
  C37      1.0000 0.12250  0.32500  0.28990  Biso   1.000  C
  C38      1.0000 0.62250  0.82500  0.28990  Biso   1.000  C
  C39      1.0000 0.62250  0.32500  0.78990  Biso   1.000  C
  C40      1.0000 0.12750  0.92500  0.28990  Biso   1.000  C
  C41      1.0000 0.12250  0.92500  0.96010  Biso   1.000  C
  C42      1.0000 0.12750  0.32500  0.96010  Biso   1.000  C
  C43      1.0000 0.62750  0.42500  0.28990  Biso   1.000  C
  C44      1.0000 0.62250  0.42500  0.96010  Biso   1.000  C
  C45      1.0000 0.62750  0.82500  0.96010  Biso   1.000  C
  C46      1.0000 0.62750  0.92500  0.78990  Biso   1.000  C
  C47      1.0000 0.62250  0.92500  0.46010  Biso   1.000  C
  C48      1.0000 0.62750  0.32500  0.46010  Biso   1.000  C
  H1       1.0000 0.82880  0.20020  0.20780  Biso   1.000  H
  H2       1.0000 0.42120  0.04980  0.20780  Biso   1.000  H
  H3       1.0000 0.82880  0.04980  0.04220  Biso   1.000  H
  H4       1.0000 0.42120  0.20020  0.04220  Biso   1.000  H
  H5       1.0000 0.82880  0.70020  0.70780  Biso   1.000  H
  H6       1.0000 0.32880  0.20020  0.70780  Biso   1.000  H
  H7       1.0000 0.32880  0.70020  0.20780  Biso   1.000  H
  H8       1.0000 0.42120  0.54980  0.70780  Biso   1.000  H
  H9       1.0000 0.82880  0.54980  0.54220  Biso   1.000  H
  H10      1.0000 0.42120  0.70020  0.54220  Biso   1.000  H
  H11      1.0000 0.92120  0.04980  0.70780  Biso   1.000  H
  H12      1.0000 0.32880  0.04980  0.54220  Biso   1.000  H
  H13      1.0000 0.92120  0.20020  0.54220  Biso   1.000  H
  H14      1.0000 0.92120  0.54980  0.20780  Biso   1.000  H
  H15      1.0000 0.32880  0.54980  0.04220  Biso   1.000  H
  H16      1.0000 0.92120  0.70020  0.04220  Biso   1.000  H
  H17      1.0000 0.17120  0.79980  0.79220  Biso   1.000  H
  H18      1.0000 0.07880  0.45020  0.79220  Biso   1.000  H
  H19      1.0000 0.17120  0.45020  0.45780  Biso   1.000  H
  H20      1.0000 0.07880  0.79980  0.45780  Biso   1.000  H
  H21      1.0000 0.17120  0.29980  0.29220  Biso   1.000  H
  H22      1.0000 0.67120  0.79980  0.29220  Biso   1.000  H
  H23      1.0000 0.67120  0.29980  0.79220  Biso   1.000  H
  H24      1.0000 0.07880  0.95020  0.29220  Biso   1.000  H
  H25      1.0000 0.17120  0.95020  0.95780  Biso   1.000  H
  H26      1.0000 0.07880  0.29980  0.95780  Biso   1.000  H
  H27      1.0000 0.57880  0.45020  0.29220  Biso   1.000  H
  H28      1.0000 0.67120  0.45020  0.95780  Biso   1.000  H
  H29      1.0000 0.57880  0.79980  0.95780  Biso   1.000  H
  H30      1.0000 0.57880  0.95020  0.79220  Biso   1.000  H
  H31      1.0000 0.67120  0.95020  0.45780  Biso   1.000  H
  H32      1.0000 0.57880  0.29980  0.45780  Biso   1.000  H
  C49      1.0000 0.93660  0.18250  0.24660  Biso   1.000  C
  C50      1.0000 0.31340  0.06750  0.24660  Biso   1.000  C
  C51      1.0000 0.93660  0.06750  0.00340  Biso   1.000  C
  C52      1.0000 0.31340  0.18250  0.00340  Biso   1.000  C
  C53      1.0000 0.93660  0.68250  0.74660  Biso   1.000  C
  C54      1.0000 0.43660  0.18250  0.74660  Biso   1.000  C
  C55      1.0000 0.43660  0.68250  0.24660  Biso   1.000  C
  C56      1.0000 0.31340  0.56750  0.74660  Biso   1.000  C
  C57      1.0000 0.93660  0.56750  0.50340  Biso   1.000  C
  C58      1.0000 0.31340  0.68250  0.50340  Biso   1.000  C
  C59      1.0000 0.81340  0.06750  0.74660  Biso   1.000  C
  C60      1.0000 0.43660  0.06750  0.50340  Biso   1.000  C
  C61      1.0000 0.81340  0.18250  0.50340  Biso   1.000  C
  C62      1.0000 0.81340  0.56750  0.24660  Biso   1.000  C
  C63      1.0000 0.43660  0.56750  0.00340  Biso   1.000  C
  C64      1.0000 0.81340  0.68250  0.00340  Biso   1.000  C
  C65      1.0000 0.06340  0.81750  0.75340  Biso   1.000  C
  C66      1.0000 0.18660  0.43250  0.75340  Biso   1.000  C
  C67      1.0000 0.06340  0.43250  0.49660  Biso   1.000  C
  C68      1.0000 0.18660  0.81750  0.49660  Biso   1.000  C
  C69      1.0000 0.06340  0.31750  0.25340  Biso   1.000  C
  C70      1.0000 0.56340  0.81750  0.25340  Biso   1.000  C
  C71      1.0000 0.56340  0.31750  0.75340  Biso   1.000  C
  C72      1.0000 0.18660  0.93250  0.25340  Biso   1.000  C
  C73      1.0000 0.06340  0.93250  0.99660  Biso   1.000  C
  C74      1.0000 0.18660  0.31750  0.99660  Biso   1.000  C
  C75      1.0000 0.68660  0.43250  0.25340  Biso   1.000  C
  C76      1.0000 0.56340  0.43250  0.99660  Biso   1.000  C
  C77      1.0000 0.68660  0.81750  0.99660  Biso   1.000  C
  C78      1.0000 0.68660  0.93250  0.75340  Biso   1.000  C
  C79      1.0000 0.56340  0.93250  0.49660  Biso   1.000  C
  C80      1.0000 0.68660  0.31750  0.49660  Biso   1.000  C
  H33      1.0000 0.93000  0.21290  0.26880  Biso   1.000  H
  H34      1.0000 0.32000  0.03710  0.26880  Biso   1.000  H
  H35      1.0000 0.93000  0.03710  0.98120  Biso   1.000  H
  H36      1.0000 0.32000  0.21290  0.98120  Biso   1.000  H
  H37      1.0000 0.93000  0.71290  0.76880  Biso   1.000  H
  H38      1.0000 0.43000  0.21290  0.76880  Biso   1.000  H
  H39      1.0000 0.43000  0.71290  0.26880  Biso   1.000  H
  H40      1.0000 0.32000  0.53710  0.76880  Biso   1.000  H
  H41      1.0000 0.93000  0.53710  0.48120  Biso   1.000  H
  H42      1.0000 0.32000  0.71290  0.48120  Biso   1.000  H
  H43      1.0000 0.82000  0.03710  0.76880  Biso   1.000  H
  H44      1.0000 0.43000  0.03710  0.48120  Biso   1.000  H
  H45      1.0000 0.82000  0.21290  0.48120  Biso   1.000  H
  H46      1.0000 0.82000  0.53710  0.26880  Biso   1.000  H
  H47      1.0000 0.43000  0.53710  0.98120  Biso   1.000  H
  H48      1.0000 0.82000  0.71290  0.98120  Biso   1.000  H
  H49      1.0000 0.07000  0.78710  0.73120  Biso   1.000  H
  H50      1.0000 0.18000  0.46290  0.73120  Biso   1.000  H
  H51      1.0000 0.07000  0.46290  0.51880  Biso   1.000  H
  H52      1.0000 0.18000  0.78710  0.51880  Biso   1.000  H
  H53      1.0000 0.07000  0.28710  0.23120  Biso   1.000  H
  H54      1.0000 0.57000  0.78710  0.23120  Biso   1.000  H
  H55      1.0000 0.57000  0.28710  0.73120  Biso   1.000  H
  H56      1.0000 0.18000  0.96290  0.23120  Biso   1.000  H
  H57      1.0000 0.07000  0.96290  0.01880  Biso   1.000  H
  H58      1.0000 0.18000  0.28710  0.01880  Biso   1.000  H
  H59      1.0000 0.68000  0.46290  0.23120  Biso   1.000  H
  H60      1.0000 0.57000  0.46290  0.01880  Biso   1.000  H
  H61      1.0000 0.68000  0.78710  0.01880  Biso   1.000  H
  H62      1.0000 0.68000  0.96290  0.73120  Biso   1.000  H
  H63      1.0000 0.57000  0.96290  0.51880  Biso   1.000  H
  H64      1.0000 0.68000  0.28710  0.51880  Biso   1.000  H
  C81      1.0000 0.00720  0.14500  0.25075  Biso   1.000  C
  C82      1.0000 0.24280  0.10500  0.25075  Biso   1.000  C
  C83      1.0000 0.00720  0.10500  0.99925  Biso   1.000  C
  C84      1.0000 0.24280  0.14500  0.99925  Biso   1.000  C
  C85      1.0000 0.00720  0.64500  0.75075  Biso   1.000  C
  C86      1.0000 0.50720  0.14500  0.75075  Biso   1.000  C
  C87      1.0000 0.50720  0.64500  0.25075  Biso   1.000  C
  C88      1.0000 0.24280  0.60500  0.75075  Biso   1.000  C
  C89      1.0000 0.00720  0.60500  0.49925  Biso   1.000  C
  C90      1.0000 0.24280  0.64500  0.49925  Biso   1.000  C
  C91      1.0000 0.74280  0.10500  0.75075  Biso   1.000  C
  C92      1.0000 0.50720  0.10500  0.49925  Biso   1.000  C
  C93      1.0000 0.74280  0.14500  0.49925  Biso   1.000  C
  C94      1.0000 0.74280  0.60500  0.25075  Biso   1.000  C
  C95      1.0000 0.50720  0.60500  0.99925  Biso   1.000  C
  C96      1.0000 0.74280  0.64500  0.99925  Biso   1.000  C
  C97      1.0000 0.99280  0.85500  0.74925  Biso   1.000  C
  C98      1.0000 0.25720  0.39500  0.74925  Biso   1.000  C
  C99      1.0000 0.99280  0.39500  0.50075  Biso   1.000  C
  C100     1.0000 0.25720  0.85500  0.50075  Biso   1.000  C
  C101     1.0000 0.99280  0.35500  0.24925  Biso   1.000  C
  C102     1.0000 0.49280  0.85500  0.24925  Biso   1.000  C
  C103     1.0000 0.49280  0.35500  0.74925  Biso   1.000  C
  C104     1.0000 0.25720  0.89500  0.24925  Biso   1.000  C
  C105     1.0000 0.99280  0.89500  0.00075  Biso   1.000  C
  C106     1.0000 0.25720  0.35500  0.00075  Biso   1.000  C
  C107     1.0000 0.75720  0.39500  0.24925  Biso   1.000  C
  C108     1.0000 0.49280  0.39500  0.00075  Biso   1.000  C
  C109     1.0000 0.75720  0.85500  0.00075  Biso   1.000  C
  C110     1.0000 0.75720  0.89500  0.74925  Biso   1.000  C
  C111     1.0000 0.49280  0.89500  0.50075  Biso   1.000  C
  C112     1.0000 0.75720  0.35500  0.50075  Biso   1.000  C
  C113     1.0000 0.01600  0.10350  0.21709  Biso   1.000  C
  C114     1.0000 0.23400  0.14650  0.21709  Biso   1.000  C
  C115     1.0000 0.01600  0.14650  0.03291  Biso   1.000  C
  C116     1.0000 0.23400  0.10350  0.03291  Biso   1.000  C
  C117     1.0000 0.01600  0.60350  0.71709  Biso   1.000  C
  C118     1.0000 0.51600  0.10350  0.71709  Biso   1.000  C
  C119     1.0000 0.51600  0.60350  0.21709  Biso   1.000  C
  C120     1.0000 0.23400  0.64650  0.71709  Biso   1.000  C
  C121     1.0000 0.01600  0.64650  0.53291  Biso   1.000  C
  C122     1.0000 0.23400  0.60350  0.53291  Biso   1.000  C
  C123     1.0000 0.73400  0.14650  0.71709  Biso   1.000  C
  C124     1.0000 0.51600  0.14650  0.53291  Biso   1.000  C
  C125     1.0000 0.73400  0.10350  0.53291  Biso   1.000  C
  C126     1.0000 0.73400  0.64650  0.21709  Biso   1.000  C
  C127     1.0000 0.51600  0.64650  0.03291  Biso   1.000  C
  C128     1.0000 0.73400  0.60350  0.03291  Biso   1.000  C
  C129     1.0000 0.98400  0.89650  0.78291  Biso   1.000  C
  C130     1.0000 0.26600  0.35350  0.78291  Biso   1.000  C
  C131     1.0000 0.98400  0.35350  0.46709  Biso   1.000  C
  C132     1.0000 0.26600  0.89650  0.46709  Biso   1.000  C
  C133     1.0000 0.98400  0.39650  0.28291  Biso   1.000  C
  C134     1.0000 0.48400  0.89650  0.28291  Biso   1.000  C
  C135     1.0000 0.48400  0.39650  0.78291  Biso   1.000  C
  C136     1.0000 0.26600  0.85350  0.28291  Biso   1.000  C
  C137     1.0000 0.98400  0.85350  0.96709  Biso   1.000  C
  C138     1.0000 0.26600  0.39650  0.96709  Biso   1.000  C
  C139     1.0000 0.76600  0.35350  0.28291  Biso   1.000  C
  C140     1.0000 0.48400  0.35350  0.96709  Biso   1.000  C
  C141     1.0000 0.76600  0.89650  0.96709  Biso   1.000  C
  C142     1.0000 0.76600  0.85350  0.78291  Biso   1.000  C
  C143     1.0000 0.48400  0.85350  0.46709  Biso   1.000  C
  C144     1.0000 0.76600  0.39650  0.46709  Biso   1.000  C
  H65      1.0000 0.06530  0.07860  0.21850  Biso   1.000  H
  H66      1.0000 0.18470  0.17140  0.21850  Biso   1.000  H
  H67      1.0000 0.06530  0.17140  0.03150  Biso   1.000  H
  H68      1.0000 0.18470  0.07860  0.03150  Biso   1.000  H
  H69      1.0000 0.06530  0.57860  0.71850  Biso   1.000  H
  H70      1.0000 0.56530  0.07860  0.71850  Biso   1.000  H
  H71      1.0000 0.56530  0.57860  0.21850  Biso   1.000  H
  H72      1.0000 0.18470  0.67140  0.71850  Biso   1.000  H
  H73      1.0000 0.06530  0.67140  0.53150  Biso   1.000  H
  H74      1.0000 0.18470  0.57860  0.53150  Biso   1.000  H
  H75      1.0000 0.68470  0.17140  0.71850  Biso   1.000  H
  H76      1.0000 0.56530  0.17140  0.53150  Biso   1.000  H
  H77      1.0000 0.68470  0.07860  0.53150  Biso   1.000  H
  H78      1.0000 0.68470  0.67140  0.21850  Biso   1.000  H
  H79      1.0000 0.56530  0.67140  0.03150  Biso   1.000  H
  H80      1.0000 0.68470  0.57860  0.03150  Biso   1.000  H
  H81      1.0000 0.93470  0.92140  0.78150  Biso   1.000  H
  H82      1.0000 0.31530  0.32860  0.78150  Biso   1.000  H
  H83      1.0000 0.93470  0.32860  0.46850  Biso   1.000  H
  H84      1.0000 0.31530  0.92140  0.46850  Biso   1.000  H
  H85      1.0000 0.93470  0.42140  0.28150  Biso   1.000  H
  H86      1.0000 0.43470  0.92140  0.28150  Biso   1.000  H
  H87      1.0000 0.43470  0.42140  0.78150  Biso   1.000  H
  H88      1.0000 0.31530  0.82860  0.28150  Biso   1.000  H
  H89      1.0000 0.93470  0.82860  0.96850  Biso   1.000  H
  H90      1.0000 0.31530  0.42140  0.96850  Biso   1.000  H
  H91      1.0000 0.81530  0.32860  0.28150  Biso   1.000  H
  H92      1.0000 0.43470  0.32860  0.96850  Biso   1.000  H
  H93      1.0000 0.81530  0.92140  0.96850  Biso   1.000  H
  H94      1.0000 0.81530  0.82860  0.78150  Biso   1.000  H
  H95      1.0000 0.43470  0.82860  0.46850  Biso   1.000  H
  H96      1.0000 0.81530  0.42140  0.46850  Biso   1.000  H
  C145     1.0000 0.95430  0.09730  0.18106  Biso   1.000  C
  C146     1.0000 0.29570  0.15270  0.18106  Biso   1.000  C
  C147     1.0000 0.95430  0.15270  0.06894  Biso   1.000  C
  C148     1.0000 0.29570  0.09730  0.06894  Biso   1.000  C
  C149     1.0000 0.95430  0.59730  0.68106  Biso   1.000  C
  C150     1.0000 0.45430  0.09730  0.68106  Biso   1.000  C
  C151     1.0000 0.45430  0.59730  0.18106  Biso   1.000  C
  C152     1.0000 0.29570  0.65270  0.68106  Biso   1.000  C
  C153     1.0000 0.95430  0.65270  0.56894  Biso   1.000  C
  C154     1.0000 0.29570  0.59730  0.56894  Biso   1.000  C
  C155     1.0000 0.79570  0.15270  0.68106  Biso   1.000  C
  C156     1.0000 0.45430  0.15270  0.56894  Biso   1.000  C
  C157     1.0000 0.79570  0.09730  0.56894  Biso   1.000  C
  C158     1.0000 0.79570  0.65270  0.18106  Biso   1.000  C
  C159     1.0000 0.45430  0.65270  0.06894  Biso   1.000  C
  C160     1.0000 0.79570  0.59730  0.06894  Biso   1.000  C
  C161     1.0000 0.04570  0.90270  0.81894  Biso   1.000  C
  C162     1.0000 0.20430  0.34730  0.81894  Biso   1.000  C
  C163     1.0000 0.04570  0.34730  0.43106  Biso   1.000  C
  C164     1.0000 0.20430  0.90270  0.43106  Biso   1.000  C
  C165     1.0000 0.04570  0.40270  0.31894  Biso   1.000  C
  C166     1.0000 0.54570  0.90270  0.31894  Biso   1.000  C
  C167     1.0000 0.54570  0.40270  0.81894  Biso   1.000  C
  C168     1.0000 0.20430  0.84730  0.31894  Biso   1.000  C
  C169     1.0000 0.04570  0.84730  0.93106  Biso   1.000  C
  C170     1.0000 0.20430  0.40270  0.93106  Biso   1.000  C
  C171     1.0000 0.70430  0.34730  0.31894  Biso   1.000  C
  C172     1.0000 0.54570  0.34730  0.93106  Biso   1.000  C
  C173     1.0000 0.70430  0.90270  0.93106  Biso   1.000  C
  C174     1.0000 0.70430  0.84730  0.81894  Biso   1.000  C
  C175     1.0000 0.54570  0.84730  0.43106  Biso   1.000  C
  C176     1.0000 0.70430  0.40270  0.43106  Biso   1.000  C
  H97      1.0000 0.96060  0.06720  0.15860  Biso   1.000  H
  H98      1.0000 0.28940  0.18280  0.15860  Biso   1.000  H
  H99      1.0000 0.96060  0.18280  0.09140  Biso   1.000  H
  H100     1.0000 0.28940  0.06720  0.09140  Biso   1.000  H
  H101     1.0000 0.96060  0.56720  0.65860  Biso   1.000  H
  H102     1.0000 0.46060  0.06720  0.65860  Biso   1.000  H
  H103     1.0000 0.46060  0.56720  0.15860  Biso   1.000  H
  H104     1.0000 0.28940  0.68280  0.65860  Biso   1.000  H
  H105     1.0000 0.96060  0.68280  0.59140  Biso   1.000  H
  H106     1.0000 0.28940  0.56720  0.59140  Biso   1.000  H
  H107     1.0000 0.78940  0.18280  0.65860  Biso   1.000  H
  H108     1.0000 0.46060  0.18280  0.59140  Biso   1.000  H
  H109     1.0000 0.78940  0.06720  0.59140  Biso   1.000  H
  H110     1.0000 0.78940  0.68280  0.15860  Biso   1.000  H
  H111     1.0000 0.46060  0.68280  0.09140  Biso   1.000  H
  H112     1.0000 0.78940  0.56720  0.09140  Biso   1.000  H
  H113     1.0000 0.03940  0.93280  0.84140  Biso   1.000  H
  H114     1.0000 0.21060  0.31720  0.84140  Biso   1.000  H
  H115     1.0000 0.03940  0.31720  0.40860  Biso   1.000  H
  H116     1.0000 0.21060  0.93280  0.40860  Biso   1.000  H
  H117     1.0000 0.03940  0.43280  0.34140  Biso   1.000  H
  H118     1.0000 0.53940  0.93280  0.34140  Biso   1.000  H
  H119     1.0000 0.53940  0.43280  0.84140  Biso   1.000  H
  H120     1.0000 0.21060  0.81720  0.34140  Biso   1.000  H
  H121     1.0000 0.03940  0.81720  0.90860  Biso   1.000  H
  H122     1.0000 0.21060  0.43280  0.90860  Biso   1.000  H
  H123     1.0000 0.71060  0.31720  0.34140  Biso   1.000  H
  H124     1.0000 0.53940  0.31720  0.90860  Biso   1.000  H
  H125     1.0000 0.71060  0.93280  0.90860  Biso   1.000  H
  H126     1.0000 0.71060  0.81720  0.84140  Biso   1.000  H
  H127     1.0000 0.53940  0.81720  0.40860  Biso   1.000  H
  H128     1.0000 0.71060  0.43280  0.40860  Biso   1.000  H
