data_image0
_cell_length_a       5.6238
_cell_length_b       15.3174
_cell_length_c       17.4404
_cell_angle_alpha    90
_cell_angle_beta     90
_cell_angle_gamma    90

_symmetry_space_group_name_H-M    "P 1"
_symmetry_int_tables_number       1

loop_
  _symmetry_equiv_pos_as_xyz
  'x, y, z'

loop_
  _atom_site_label
  _atom_site_occupancy
  _atom_site_fract_x
  _atom_site_fract_y
  _atom_site_fract_z
  _atom_site_thermal_displace_type
  _atom_site_B_iso_or_equiv
  _atom_site_type_symbol
  Cu1      1.0000 0.25711  0.97944  0.87637  Biso   1.000  Cu
  Cu2      1.0000 0.24289  0.02056  0.37637  Biso   1.000  Cu
  Cu3      1.0000 0.74289  0.47944  0.62363  Biso   1.000  Cu
  Cu4      1.0000 0.75711  0.52056  0.12363  Biso   1.000  Cu
  O1       1.0000 0.26780  0.98360  0.76609  Biso   1.000  O
  O2       1.0000 0.23220  0.01640  0.26609  Biso   1.000  O
  O3       1.0000 0.73220  0.48360  0.73391  Biso   1.000  O
  O4       1.0000 0.76780  0.51640  0.23391  Biso   1.000  O
  O5       1.0000 0.88400  0.96840  0.74117  Biso   1.000  O
  O6       1.0000 0.61600  0.03160  0.24117  Biso   1.000  O
  O7       1.0000 0.11600  0.46840  0.75883  Biso   1.000  O
  O8       1.0000 0.38400  0.53160  0.25883  Biso   1.000  O
  O9       1.0000 0.62120  0.97820  0.50624  Biso   1.000  O
  O10      1.0000 0.87880  0.02180  0.00624  Biso   1.000  O
  O11      1.0000 0.37880  0.47820  0.99376  Biso   1.000  O
  O12      1.0000 0.12120  0.52180  0.49376  Biso   1.000  O
  O13      1.0000 0.25100  0.02406  0.48704  Biso   1.000  O
  O14      1.0000 0.24900  0.97594  0.98704  Biso   1.000  O
  O15      1.0000 0.74900  0.52406  0.01296  Biso   1.000  O
  O16      1.0000 0.75100  0.47594  0.51296  Biso   1.000  O
  O17      1.0000 0.64950  0.97210  0.87740  Biso   1.000  O
  O18      1.0000 0.85050  0.02790  0.37740  Biso   1.000  O
  O19      1.0000 0.35050  0.47210  0.62260  Biso   1.000  O
  O20      1.0000 0.14950  0.52790  0.12260  Biso   1.000  O
  H1       1.0000 0.72180  0.97920  0.83130  Biso   1.000  H
  H2       1.0000 0.77820  0.02080  0.33130  Biso   1.000  H
  H3       1.0000 0.27820  0.47920  0.66870  Biso   1.000  H
  H4       1.0000 0.22180  0.52080  0.16870  Biso   1.000  H
  H5       1.0000 0.75220  0.99280  0.91090  Biso   1.000  H
  H6       1.0000 0.74780  0.00720  0.41090  Biso   1.000  H
  H7       1.0000 0.24780  0.49280  0.58910  Biso   1.000  H
  H8       1.0000 0.25220  0.50720  0.08910  Biso   1.000  H
  N1       1.0000 0.22740  0.84750  0.87281  Biso   1.000  N
  N2       1.0000 0.27260  0.15250  0.37281  Biso   1.000  N
  N3       1.0000 0.77260  0.34750  0.62719  Biso   1.000  N
  N4       1.0000 0.72740  0.65250  0.12719  Biso   1.000  N
  N5       1.0000 0.24340  0.11190  0.87979  Biso   1.000  N
  N6       1.0000 0.25660  0.88810  0.37979  Biso   1.000  N
  N7       1.0000 0.75660  0.61190  0.62021  Biso   1.000  N
  N8       1.0000 0.74340  0.38810  0.12021  Biso   1.000  N
  C1       1.0000 0.09110  0.97610  0.72200  Biso   1.000  C
  C2       1.0000 0.40890  0.02390  0.22200  Biso   1.000  C
  C3       1.0000 0.90890  0.47610  0.77800  Biso   1.000  C
  C4       1.0000 0.59110  0.52390  0.27800  Biso   1.000  C
  C5       1.0000 0.14660  0.98240  0.63800  Biso   1.000  C
  C6       1.0000 0.35340  0.01760  0.13800  Biso   1.000  C
  C7       1.0000 0.85340  0.48240  0.86200  Biso   1.000  C
  C8       1.0000 0.64660  0.51760  0.36200  Biso   1.000  C
  H9       1.0000 0.02210  0.98200  0.60300  Biso   1.000  H
  H10      1.0000 0.47790  0.01800  0.10300  Biso   1.000  H
  H11      1.0000 0.97790  0.48200  0.89700  Biso   1.000  H
  H12      1.0000 0.52210  0.51800  0.39700  Biso   1.000  H
  C9       1.0000 0.36560  0.98830  0.61260  Biso   1.000  C
  C10      1.0000 0.13440  0.01170  0.11260  Biso   1.000  C
  C11      1.0000 0.63440  0.48830  0.88740  Biso   1.000  C
  C12      1.0000 0.86560  0.51170  0.38740  Biso   1.000  C
  H13      1.0000 0.49030  0.98720  0.64760  Biso   1.000  H
  H14      1.0000 0.00970  0.01280  0.14760  Biso   1.000  H
  H15      1.0000 0.50970  0.48720  0.85240  Biso   1.000  H
  H16      1.0000 0.99030  0.51280  0.35240  Biso   1.000  H
  C13      1.0000 0.42170  0.99680  0.52810  Biso   1.000  C
  C14      1.0000 0.07830  0.00320  0.02810  Biso   1.000  C
  C15      1.0000 0.57830  0.49680  0.97190  Biso   1.000  C
  C16      1.0000 0.92170  0.50320  0.47190  Biso   1.000  C
  C17      1.0000 0.07180  0.80320  0.91410  Biso   1.000  C
  C18      1.0000 0.42820  0.19680  0.41410  Biso   1.000  C
  C19      1.0000 0.92820  0.30320  0.58590  Biso   1.000  C
  C20      1.0000 0.57180  0.69680  0.08590  Biso   1.000  C
  H17      1.0000 0.96230  0.83370  0.94380  Biso   1.000  H
  H18      1.0000 0.53770  0.16630  0.44380  Biso   1.000  H
  H19      1.0000 0.03770  0.33370  0.55620  Biso   1.000  H
  H20      1.0000 0.46230  0.66630  0.05620  Biso   1.000  H
  C21      1.0000 0.06640  0.71180  0.91460  Biso   1.000  C
  C22      1.0000 0.43360  0.28820  0.41460  Biso   1.000  C
  C23      1.0000 0.93360  0.21180  0.58540  Biso   1.000  C
  C24      1.0000 0.56640  0.78820  0.08540  Biso   1.000  C
  H21      1.0000 0.95460  0.68220  0.94400  Biso   1.000  H
  H22      1.0000 0.54540  0.31780  0.44400  Biso   1.000  H
  H23      1.0000 0.04540  0.18220  0.55600  Biso   1.000  H
  H24      1.0000 0.45460  0.81780  0.05600  Biso   1.000  H
  C25      1.0000 0.22510  0.66740  0.87190  Biso   1.000  C
  C26      1.0000 0.27490  0.33260  0.37190  Biso   1.000  C
  C27      1.0000 0.77490  0.16740  0.62810  Biso   1.000  C
  C28      1.0000 0.72510  0.83260  0.12810  Biso   1.000  C
  H25      1.0000 0.22490  0.60670  0.87160  Biso   1.000  H
  H26      1.0000 0.27510  0.39330  0.37160  Biso   1.000  H
  H27      1.0000 0.77510  0.10670  0.62840  Biso   1.000  H
  H28      1.0000 0.72490  0.89330  0.12840  Biso   1.000  H
  C29      1.0000 0.38460  0.71230  0.82940  Biso   1.000  C
  C30      1.0000 0.11540  0.28770  0.32940  Biso   1.000  C
  C31      1.0000 0.61540  0.21230  0.67060  Biso   1.000  C
  C32      1.0000 0.88460  0.78770  0.17060  Biso   1.000  C
  H29      1.0000 0.49580  0.68270  0.79980  Biso   1.000  H
  H30      1.0000 0.00420  0.31730  0.29980  Biso   1.000  H
  H31      1.0000 0.50420  0.18270  0.70020  Biso   1.000  H
  H32      1.0000 0.99580  0.81730  0.20020  Biso   1.000  H
  C33      1.0000 0.38180  0.80190  0.83030  Biso   1.000  C
  C34      1.0000 0.11820  0.19810  0.33030  Biso   1.000  C
  C35      1.0000 0.61820  0.30190  0.66970  Biso   1.000  C
  C36      1.0000 0.88180  0.69810  0.16970  Biso   1.000  C
  H33      1.0000 0.49110  0.83200  0.80030  Biso   1.000  H
  H34      1.0000 0.00890  0.16800  0.30030  Biso   1.000  H
  H35      1.0000 0.50890  0.33200  0.69970  Biso   1.000  H
  H36      1.0000 0.99110  0.66800  0.19970  Biso   1.000  H
  C37      1.0000 0.08600  0.15700  0.83770  Biso   1.000  C
  C38      1.0000 0.41400  0.84300  0.33770  Biso   1.000  C
  C39      1.0000 0.91400  0.65700  0.66230  Biso   1.000  C
  C40      1.0000 0.58600  0.34300  0.16230  Biso   1.000  C
  H37      1.0000 0.97360  0.12690  0.80880  Biso   1.000  H
  H38      1.0000 0.52640  0.87310  0.30880  Biso   1.000  H
  H39      1.0000 0.02640  0.62690  0.69120  Biso   1.000  H
  H40      1.0000 0.47360  0.37310  0.19120  Biso   1.000  H
  C41      1.0000 0.08740  0.24760  0.83630  Biso   1.000  C
  C42      1.0000 0.41260  0.75240  0.33630  Biso   1.000  C
  C43      1.0000 0.91260  0.74760  0.66370  Biso   1.000  C
  C44      1.0000 0.58740  0.25240  0.16370  Biso   1.000  C
  H41      1.0000 0.97660  0.27760  0.80670  Biso   1.000  H
  H42      1.0000 0.52340  0.72240  0.30670  Biso   1.000  H
  H43      1.0000 0.02340  0.77760  0.69330  Biso   1.000  H
  H44      1.0000 0.47660  0.22240  0.19330  Biso   1.000  H
  C45      1.0000 0.25070  0.29240  0.87810  Biso   1.000  C
  C46      1.0000 0.24930  0.70760  0.37810  Biso   1.000  C
  C47      1.0000 0.74930  0.79240  0.62190  Biso   1.000  C
  C48      1.0000 0.75070  0.20760  0.12190  Biso   1.000  C
  H45      1.0000 0.25440  0.35300  0.87710  Biso   1.000  H
  H46      1.0000 0.24560  0.64700  0.37710  Biso   1.000  H
  H47      1.0000 0.74560  0.85300  0.62290  Biso   1.000  H
  H48      1.0000 0.75440  0.14700  0.12290  Biso   1.000  H
  C49      1.0000 0.40770  0.24680  0.92110  Biso   1.000  C
  C50      1.0000 0.09230  0.75320  0.42110  Biso   1.000  C
  C51      1.0000 0.59230  0.74680  0.57890  Biso   1.000  C
  C52      1.0000 0.90770  0.25320  0.07890  Biso   1.000  C
  H49      1.0000 0.52010  0.27610  0.95050  Biso   1.000  H
  H50      1.0000 0.97990  0.72390  0.45050  Biso   1.000  H
  H51      1.0000 0.47990  0.77610  0.54950  Biso   1.000  H
  H52      1.0000 0.02010  0.22390  0.04950  Biso   1.000  H
  C53      1.0000 0.40040  0.15670  0.92110  Biso   1.000  C
  C54      1.0000 0.09960  0.84330  0.42110  Biso   1.000  C
  C55      1.0000 0.59960  0.65670  0.57890  Biso   1.000  C
  C56      1.0000 0.90040  0.34330  0.07890  Biso   1.000  C
  H53      1.0000 0.50910  0.12620  0.95110  Biso   1.000  H
  H54      1.0000 0.99090  0.87380  0.45110  Biso   1.000  H
  H55      1.0000 0.49090  0.62620  0.54890  Biso   1.000  H
  H56      1.0000 0.00910  0.37380  0.04890  Biso   1.000  H
