data_image0
_cell_length_a       11.76
_cell_length_b       23.703
_cell_length_c       13.8
_cell_angle_alpha    90
_cell_angle_beta     98.06
_cell_angle_gamma    90

_symmetry_space_group_name_H-M    "P 1"
_symmetry_int_tables_number       1

loop_
  _symmetry_equiv_pos_as_xyz
  'x, y, z'

loop_
  _atom_site_label
  _atom_site_occupancy
  _atom_site_fract_x
  _atom_site_fract_y
  _atom_site_fract_z
  _atom_site_thermal_displace_type
  _atom_site_B_iso_or_equiv
  _atom_site_type_symbol
  Cu1      1.0000 0.50000  0.24972  0.25000  Biso   1.000  Cu
  Cu2      1.0000 0.00000  0.74972  0.25000  Biso   1.000  Cu
  Cu3      1.0000 0.50000  0.75028  0.75000  Biso   1.000  Cu
  Cu4      1.0000 0.00000  0.25028  0.75000  Biso   1.000  Cu
  N1       1.0000 0.50000  0.33371  0.25000  Biso   1.000  N
  N2       1.0000 0.00000  0.83371  0.25000  Biso   1.000  N
  N3       1.0000 0.50000  0.66629  0.75000  Biso   1.000  N
  N4       1.0000 0.00000  0.16629  0.75000  Biso   1.000  N
  N5       1.0000 0.50000  0.16519  0.25000  Biso   1.000  N
  N6       1.0000 0.00000  0.66519  0.25000  Biso   1.000  N
  N7       1.0000 0.50000  0.83481  0.75000  Biso   1.000  N
  N8       1.0000 0.00000  0.33481  0.75000  Biso   1.000  N
  O1       1.0000 0.59866  0.25344  0.41993  Biso   1.000  O
  O2       1.0000 0.40134  0.25344  0.08007  Biso   1.000  O
  O3       1.0000 0.09866  0.75344  0.41993  Biso   1.000  O
  O4       1.0000 0.90134  0.75344  0.08007  Biso   1.000  O
  O5       1.0000 0.40134  0.74656  0.58007  Biso   1.000  O
  O6       1.0000 0.59866  0.74656  0.91993  Biso   1.000  O
  O7       1.0000 0.90134  0.24656  0.58007  Biso   1.000  O
  O8       1.0000 0.09866  0.24656  0.91993  Biso   1.000  O
  O9       1.0000 0.41443  0.25014  0.36363  Biso   1.000  O
  O10      1.0000 0.58557  0.25014  0.13637  Biso   1.000  O
  O11      1.0000 0.91443  0.75014  0.36363  Biso   1.000  O
  O12      1.0000 0.08557  0.75014  0.13637  Biso   1.000  O
  O13      1.0000 0.58557  0.74986  0.63637  Biso   1.000  O
  O14      1.0000 0.41443  0.74986  0.86363  Biso   1.000  O
  O15      1.0000 0.08557  0.24986  0.63637  Biso   1.000  O
  O16      1.0000 0.91443  0.24986  0.86363  Biso   1.000  O
  C1       1.0000 0.59322  0.36247  0.28997  Biso   1.000  C
  C2       1.0000 0.40678  0.36247  0.21003  Biso   1.000  C
  C3       1.0000 0.09322  0.86247  0.28997  Biso   1.000  C
  C4       1.0000 0.90678  0.86247  0.21003  Biso   1.000  C
  C5       1.0000 0.40678  0.63753  0.71003  Biso   1.000  C
  C6       1.0000 0.59322  0.63753  0.78997  Biso   1.000  C
  C7       1.0000 0.90678  0.13753  0.71003  Biso   1.000  C
  C8       1.0000 0.09322  0.13753  0.78997  Biso   1.000  C
  C9       1.0000 0.40498  0.13615  0.26204  Biso   1.000  C
  C10      1.0000 0.59502  0.13615  0.23796  Biso   1.000  C
  C11      1.0000 0.90498  0.63615  0.26204  Biso   1.000  C
  C12      1.0000 0.09502  0.63615  0.23796  Biso   1.000  C
  C13      1.0000 0.59502  0.86385  0.73796  Biso   1.000  C
  C14      1.0000 0.40498  0.86385  0.76204  Biso   1.000  C
  C15      1.0000 0.09502  0.36385  0.73796  Biso   1.000  C
  C16      1.0000 0.90498  0.36385  0.76204  Biso   1.000  C
  C17      1.0000 0.49377  0.25036  0.44012  Biso   1.000  C
  C18      1.0000 0.50623  0.25036  0.05988  Biso   1.000  C
  C19      1.0000 0.99377  0.75036  0.44012  Biso   1.000  C
  C20      1.0000 0.00623  0.75036  0.05988  Biso   1.000  C
  C21      1.0000 0.50623  0.74964  0.55988  Biso   1.000  C
  C22      1.0000 0.49377  0.74964  0.94012  Biso   1.000  C
  C23      1.0000 0.00623  0.24964  0.55988  Biso   1.000  C
  C24      1.0000 0.99377  0.24964  0.94012  Biso   1.000  C
  Cu5      1.0000 0.75000  0.25000  0.50000  Biso   1.000  Cu
  Cu6      1.0000 0.25000  0.25000  0.00000  Biso   1.000  Cu
  Cu7      1.0000 0.25000  0.75000  0.50000  Biso   1.000  Cu
  Cu8      1.0000 0.75000  0.75000  0.00000  Biso   1.000  Cu
  C25      1.0000 0.59625  0.42099  0.29156  Biso   1.000  C
  C26      1.0000 0.40375  0.42099  0.20844  Biso   1.000  C
  C27      1.0000 0.09625  0.92099  0.29156  Biso   1.000  C
  C28      1.0000 0.90375  0.92099  0.20844  Biso   1.000  C
  C29      1.0000 0.40375  0.57901  0.70844  Biso   1.000  C
  C30      1.0000 0.59625  0.57901  0.79156  Biso   1.000  C
  C31      1.0000 0.90375  0.07901  0.70844  Biso   1.000  C
  C32      1.0000 0.09625  0.07901  0.79156  Biso   1.000  C
  H1       1.0000 0.65930  0.34210  0.31810  Biso   1.000  H
  H2       1.0000 0.34070  0.34210  0.18190  Biso   1.000  H
  H3       1.0000 0.15930  0.84210  0.31810  Biso   1.000  H
  H4       1.0000 0.84070  0.84210  0.18190  Biso   1.000  H
  H5       1.0000 0.34070  0.65790  0.68190  Biso   1.000  H
  H6       1.0000 0.65930  0.65790  0.81810  Biso   1.000  H
  H7       1.0000 0.84070  0.15790  0.68190  Biso   1.000  H
  H8       1.0000 0.15930  0.15790  0.81810  Biso   1.000  H
  C33      1.0000 0.40150  0.07765  0.26216  Biso   1.000  C
  C34      1.0000 0.59850  0.07765  0.23784  Biso   1.000  C
  C35      1.0000 0.90150  0.57765  0.26216  Biso   1.000  C
  C36      1.0000 0.09850  0.57765  0.23784  Biso   1.000  C
  C37      1.0000 0.59850  0.92235  0.73784  Biso   1.000  C
  C38      1.0000 0.40150  0.92235  0.76216  Biso   1.000  C
  C39      1.0000 0.09850  0.42235  0.73784  Biso   1.000  C
  C40      1.0000 0.90150  0.42235  0.76216  Biso   1.000  C
  H9       1.0000 0.33750  0.15640  0.27080  Biso   1.000  H
  H10      1.0000 0.66250  0.15640  0.22920  Biso   1.000  H
  H11      1.0000 0.83750  0.65640  0.27080  Biso   1.000  H
  H12      1.0000 0.16250  0.65640  0.22920  Biso   1.000  H
  H13      1.0000 0.66250  0.84360  0.72920  Biso   1.000  H
  H14      1.0000 0.33750  0.84360  0.77080  Biso   1.000  H
  H15      1.0000 0.16250  0.34360  0.72920  Biso   1.000  H
  H16      1.0000 0.83750  0.34360  0.77080  Biso   1.000  H
  O17      1.0000 0.46928  0.24751  0.52594  Biso   1.000  O
  O18      1.0000 0.53072  0.24751  0.97406  Biso   1.000  O
  O19      1.0000 0.96928  0.74751  0.52594  Biso   1.000  O
  O20      1.0000 0.03072  0.74751  0.97406  Biso   1.000  O
  O21      1.0000 0.53072  0.75249  0.47406  Biso   1.000  O
  O22      1.0000 0.46928  0.75249  0.02594  Biso   1.000  O
  O23      1.0000 0.03072  0.25249  0.47406  Biso   1.000  O
  O24      1.0000 0.96928  0.25249  0.02594  Biso   1.000  O
  N9       1.0000 0.74984  0.33531  0.52024  Biso   1.000  N
  N10      1.0000 0.25016  0.33531  0.97976  Biso   1.000  N
  N11      1.0000 0.24984  0.83531  0.52024  Biso   1.000  N
  N12      1.0000 0.75016  0.83531  0.97976  Biso   1.000  N
  N13      1.0000 0.25016  0.66469  0.47976  Biso   1.000  N
  N14      1.0000 0.74984  0.66469  0.02024  Biso   1.000  N
  N15      1.0000 0.75016  0.16469  0.47976  Biso   1.000  N
  N16      1.0000 0.24984  0.16469  0.02024  Biso   1.000  N
  O25      1.0000 0.66623  0.23226  0.64939  Biso   1.000  O
  O26      1.0000 0.33377  0.23226  0.85061  Biso   1.000  O
  O27      1.0000 0.16623  0.73226  0.64939  Biso   1.000  O
  O28      1.0000 0.83377  0.73226  0.85061  Biso   1.000  O
  O29      1.0000 0.33377  0.76774  0.35061  Biso   1.000  O
  O30      1.0000 0.66623  0.76774  0.14939  Biso   1.000  O
  O31      1.0000 0.83377  0.26774  0.35061  Biso   1.000  O
  O32      1.0000 0.16623  0.26774  0.14939  Biso   1.000  O
  C41      1.0000 0.50000  0.45178  0.25000  Biso   1.000  C
  C42      1.0000 0.00000  0.95178  0.25000  Biso   1.000  C
  C43      1.0000 0.50000  0.54822  0.75000  Biso   1.000  C
  C44      1.0000 0.00000  0.04822  0.75000  Biso   1.000  C
  H17      1.0000 0.66340  0.44010  0.32080  Biso   1.000  H
  H18      1.0000 0.33660  0.44010  0.17920  Biso   1.000  H
  H19      1.0000 0.16340  0.94010  0.32080  Biso   1.000  H
  H20      1.0000 0.83660  0.94010  0.17920  Biso   1.000  H
  H21      1.0000 0.33660  0.55990  0.67920  Biso   1.000  H
  H22      1.0000 0.66340  0.55990  0.82080  Biso   1.000  H
  H23      1.0000 0.83660  0.05990  0.67920  Biso   1.000  H
  H24      1.0000 0.16340  0.05990  0.82080  Biso   1.000  H
  C45      1.0000 0.50000  0.04688  0.25000  Biso   1.000  C
  C46      1.0000 0.00000  0.54688  0.25000  Biso   1.000  C
  C47      1.0000 0.50000  0.95312  0.75000  Biso   1.000  C
  C48      1.0000 0.00000  0.45312  0.75000  Biso   1.000  C
  H25      1.0000 0.33250  0.05860  0.27050  Biso   1.000  H
  H26      1.0000 0.66750  0.05860  0.22950  Biso   1.000  H
  H27      1.0000 0.83250  0.55860  0.27050  Biso   1.000  H
  H28      1.0000 0.16750  0.55860  0.22950  Biso   1.000  H
  H29      1.0000 0.66750  0.94140  0.72950  Biso   1.000  H
  H30      1.0000 0.33250  0.94140  0.77050  Biso   1.000  H
  H31      1.0000 0.16750  0.44140  0.72950  Biso   1.000  H
  H32      1.0000 0.83250  0.44140  0.77050  Biso   1.000  H
  C49      1.0000 0.83957  0.36633  0.50018  Biso   1.000  C
  C50      1.0000 0.16043  0.36633  0.99982  Biso   1.000  C
  C51      1.0000 0.33957  0.86633  0.50018  Biso   1.000  C
  C52      1.0000 0.66043  0.86633  0.99982  Biso   1.000  C
  C53      1.0000 0.16043  0.63367  0.49982  Biso   1.000  C
  C54      1.0000 0.83957  0.63367  0.00018  Biso   1.000  C
  C55      1.0000 0.66043  0.13367  0.49982  Biso   1.000  C
  C56      1.0000 0.33957  0.13367  0.00018  Biso   1.000  C
  C57      1.0000 0.65977  0.36280  0.54730  Biso   1.000  C
  C58      1.0000 0.34023  0.36280  0.95270  Biso   1.000  C
  C59      1.0000 0.15977  0.86280  0.54730  Biso   1.000  C
  C60      1.0000 0.84023  0.86280  0.95270  Biso   1.000  C
  C61      1.0000 0.34023  0.63720  0.45270  Biso   1.000  C
  C62      1.0000 0.65977  0.63720  0.04730  Biso   1.000  C
  C63      1.0000 0.84023  0.13720  0.45270  Biso   1.000  C
  C64      1.0000 0.15977  0.13720  0.04730  Biso   1.000  C
  H33      1.0000 0.59900  0.24100  0.61840  Biso   1.000  H
  H34      1.0000 0.40100  0.24100  0.88160  Biso   1.000  H
  H35      1.0000 0.09900  0.74100  0.61840  Biso   1.000  H
  H36      1.0000 0.90100  0.74100  0.88160  Biso   1.000  H
  H37      1.0000 0.40100  0.75900  0.38160  Biso   1.000  H
  H38      1.0000 0.59900  0.75900  0.11840  Biso   1.000  H
  H39      1.0000 0.90100  0.25900  0.38160  Biso   1.000  H
  H40      1.0000 0.09900  0.25900  0.11840  Biso   1.000  H
  H41      1.0000 0.67440  0.24690  0.70780  Biso   1.000  H
  H42      1.0000 0.32560  0.24690  0.79220  Biso   1.000  H
  H43      1.0000 0.17440  0.74690  0.70780  Biso   1.000  H
  H44      1.0000 0.82560  0.74690  0.79220  Biso   1.000  H
  H45      1.0000 0.32560  0.75310  0.29220  Biso   1.000  H
  H46      1.0000 0.67440  0.75310  0.20780  Biso   1.000  H
  H47      1.0000 0.82560  0.25310  0.29220  Biso   1.000  H
  H48      1.0000 0.17440  0.25310  0.20780  Biso   1.000  H
  C65      1.0000 0.50000  0.51439  0.25000  Biso   1.000  C
  C66      1.0000 0.00000  0.01439  0.25000  Biso   1.000  C
  C67      1.0000 0.50000  0.48561  0.75000  Biso   1.000  C
  C68      1.0000 0.00000  0.98561  0.75000  Biso   1.000  C
  C69      1.0000 0.50000  0.98409  0.25000  Biso   1.000  C
  C70      1.0000 0.00000  0.48409  0.25000  Biso   1.000  C
  C71      1.0000 0.50000  0.01591  0.75000  Biso   1.000  C
  C72      1.0000 0.00000  0.51591  0.75000  Biso   1.000  C
  C73      1.0000 0.84151  0.42479  0.50475  Biso   1.000  C
  C74      1.0000 0.15849  0.42479  0.99525  Biso   1.000  C
  C75      1.0000 0.34151  0.92479  0.50475  Biso   1.000  C
  C76      1.0000 0.65849  0.92479  0.99525  Biso   1.000  C
  C77      1.0000 0.15849  0.57521  0.49525  Biso   1.000  C
  C78      1.0000 0.84151  0.57521  0.00475  Biso   1.000  C
  C79      1.0000 0.65849  0.07521  0.49525  Biso   1.000  C
  C80      1.0000 0.34151  0.07521  0.00475  Biso   1.000  C
  H49      1.0000 0.90450  0.34730  0.48210  Biso   1.000  H
  H50      1.0000 0.09550  0.34730  0.01790  Biso   1.000  H
  H51      1.0000 0.40450  0.84730  0.48210  Biso   1.000  H
  H52      1.0000 0.59550  0.84730  0.01790  Biso   1.000  H
  H53      1.0000 0.09550  0.65270  0.51790  Biso   1.000  H
  H54      1.0000 0.90450  0.65270  0.98210  Biso   1.000  H
  H55      1.0000 0.59550  0.15270  0.51790  Biso   1.000  H
  H56      1.0000 0.40450  0.15270  0.98210  Biso   1.000  H
  C81      1.0000 0.65518  0.42123  0.55407  Biso   1.000  C
  C82      1.0000 0.34482  0.42123  0.94593  Biso   1.000  C
  C83      1.0000 0.15518  0.92123  0.55407  Biso   1.000  C
  C84      1.0000 0.84482  0.92123  0.94593  Biso   1.000  C
  C85      1.0000 0.34482  0.57877  0.44593  Biso   1.000  C
  C86      1.0000 0.65518  0.57877  0.05407  Biso   1.000  C
  C87      1.0000 0.84482  0.07877  0.44593  Biso   1.000  C
  C88      1.0000 0.15518  0.07877  0.05407  Biso   1.000  C
  H57      1.0000 0.59630  0.34140  0.56250  Biso   1.000  H
  H58      1.0000 0.40370  0.34140  0.93750  Biso   1.000  H
  H59      1.0000 0.09630  0.84140  0.56250  Biso   1.000  H
  H60      1.0000 0.90370  0.84140  0.93750  Biso   1.000  H
  H61      1.0000 0.40370  0.65860  0.43750  Biso   1.000  H
  H62      1.0000 0.59630  0.65860  0.06250  Biso   1.000  H
  H63      1.0000 0.90370  0.15860  0.43750  Biso   1.000  H
  H64      1.0000 0.09630  0.15860  0.06250  Biso   1.000  H
  N17      1.0000 0.59440  0.54212  0.29621  Biso   1.000  N
  N18      1.0000 0.40560  0.54212  0.20379  Biso   1.000  N
  N19      1.0000 0.09440  0.04212  0.29621  Biso   1.000  N
  N20      1.0000 0.90560  0.04212  0.20379  Biso   1.000  N
  N21      1.0000 0.40560  0.45788  0.70379  Biso   1.000  N
  N22      1.0000 0.59440  0.45788  0.79621  Biso   1.000  N
  N23      1.0000 0.90560  0.95788  0.70379  Biso   1.000  N
  N24      1.0000 0.09440  0.95788  0.79621  Biso   1.000  N
  C89      1.0000 0.40315  0.95639  0.26709  Biso   1.000  C
  C90      1.0000 0.59685  0.95639  0.23291  Biso   1.000  C
  C91      1.0000 0.90315  0.45639  0.26709  Biso   1.000  C
  C92      1.0000 0.09685  0.45639  0.23291  Biso   1.000  C
  C93      1.0000 0.59685  0.04361  0.73291  Biso   1.000  C
  C94      1.0000 0.40315  0.04361  0.76709  Biso   1.000  C
  C95      1.0000 0.09685  0.54361  0.73291  Biso   1.000  C
  C96      1.0000 0.90315  0.54361  0.76709  Biso   1.000  C
  C97      1.0000 0.74716  0.45390  0.53158  Biso   1.000  C
  C98      1.0000 0.25284  0.45390  0.96842  Biso   1.000  C
  C99      1.0000 0.24716  0.95390  0.53158  Biso   1.000  C
  C100     1.0000 0.75284  0.95390  0.96842  Biso   1.000  C
  C101     1.0000 0.25284  0.54610  0.46842  Biso   1.000  C
  C102     1.0000 0.74716  0.54610  0.03158  Biso   1.000  C
  C103     1.0000 0.75284  0.04610  0.46842  Biso   1.000  C
  C104     1.0000 0.24716  0.04610  0.03158  Biso   1.000  C
  H65      1.0000 0.90660  0.44500  0.48970  Biso   1.000  H
  H66      1.0000 0.09340  0.44500  0.01030  Biso   1.000  H
  H67      1.0000 0.40660  0.94500  0.48970  Biso   1.000  H
  H68      1.0000 0.59340  0.94500  0.01030  Biso   1.000  H
  H69      1.0000 0.09340  0.55500  0.51030  Biso   1.000  H
  H70      1.0000 0.90660  0.55500  0.98970  Biso   1.000  H
  H71      1.0000 0.59340  0.05500  0.51030  Biso   1.000  H
  H72      1.0000 0.40660  0.05500  0.98970  Biso   1.000  H
  H73      1.0000 0.58980  0.43900  0.57390  Biso   1.000  H
  H74      1.0000 0.41020  0.43900  0.92610  Biso   1.000  H
  H75      1.0000 0.08980  0.93900  0.57390  Biso   1.000  H
  H76      1.0000 0.91020  0.93900  0.92610  Biso   1.000  H
  H77      1.0000 0.41020  0.56100  0.42610  Biso   1.000  H
  H78      1.0000 0.58980  0.56100  0.07390  Biso   1.000  H
  H79      1.0000 0.91020  0.06100  0.42610  Biso   1.000  H
  H80      1.0000 0.08980  0.06100  0.07390  Biso   1.000  H
  C105     1.0000 0.59325  0.59988  0.29600  Biso   1.000  C
  C106     1.0000 0.40675  0.59988  0.20400  Biso   1.000  C
  C107     1.0000 0.09325  0.09988  0.29600  Biso   1.000  C
  C108     1.0000 0.90675  0.09988  0.20400  Biso   1.000  C
  C109     1.0000 0.40675  0.40012  0.70400  Biso   1.000  C
  C110     1.0000 0.59325  0.40012  0.79600  Biso   1.000  C
  C111     1.0000 0.90675  0.90012  0.70400  Biso   1.000  C
  C112     1.0000 0.09325  0.90012  0.79600  Biso   1.000  C
  H81      1.0000 0.65900  0.52190  0.32760  Biso   1.000  H
  H82      1.0000 0.34100  0.52190  0.17240  Biso   1.000  H
  H83      1.0000 0.15900  0.02190  0.32760  Biso   1.000  H
  H84      1.0000 0.84100  0.02190  0.17240  Biso   1.000  H
  H85      1.0000 0.34100  0.47810  0.67240  Biso   1.000  H
  H86      1.0000 0.65900  0.47810  0.82760  Biso   1.000  H
  H87      1.0000 0.84100  0.97810  0.67240  Biso   1.000  H
  H88      1.0000 0.15900  0.97810  0.82760  Biso   1.000  H
  C113     1.0000 0.40368  0.89870  0.26638  Biso   1.000  C
  C114     1.0000 0.59632  0.89870  0.23362  Biso   1.000  C
  C115     1.0000 0.90368  0.39870  0.26638  Biso   1.000  C
  C116     1.0000 0.09632  0.39870  0.23362  Biso   1.000  C
  C117     1.0000 0.59632  0.10130  0.73362  Biso   1.000  C
  C118     1.0000 0.40368  0.10130  0.76638  Biso   1.000  C
  C119     1.0000 0.09632  0.60130  0.73362  Biso   1.000  C
  C120     1.0000 0.90368  0.60130  0.76638  Biso   1.000  C
  H89      1.0000 0.33690  0.97670  0.27920  Biso   1.000  H
  H90      1.0000 0.66310  0.97670  0.22080  Biso   1.000  H
  H91      1.0000 0.83690  0.47670  0.27920  Biso   1.000  H
  H92      1.0000 0.16310  0.47670  0.22080  Biso   1.000  H
  H93      1.0000 0.66310  0.02330  0.72080  Biso   1.000  H
  H94      1.0000 0.33690  0.02330  0.77920  Biso   1.000  H
  H95      1.0000 0.16310  0.52330  0.72080  Biso   1.000  H
  H96      1.0000 0.83690  0.52330  0.77920  Biso   1.000  H
  C121     1.0000 0.74446  0.51663  0.53357  Biso   1.000  C
  C122     1.0000 0.25554  0.51663  0.96643  Biso   1.000  C
  C123     1.0000 0.24446  0.01663  0.53357  Biso   1.000  C
  C124     1.0000 0.75554  0.01663  0.96643  Biso   1.000  C
  C125     1.0000 0.25554  0.48337  0.46643  Biso   1.000  C
  C126     1.0000 0.74446  0.48337  0.03357  Biso   1.000  C
  C127     1.0000 0.75554  0.98337  0.46643  Biso   1.000  C
  C128     1.0000 0.24446  0.98337  0.03357  Biso   1.000  C
  C129     1.0000 0.50000  0.63007  0.25000  Biso   1.000  C
  C130     1.0000 0.00000  0.13007  0.25000  Biso   1.000  C
  C131     1.0000 0.50000  0.36993  0.75000  Biso   1.000  C
  C132     1.0000 0.00000  0.86993  0.75000  Biso   1.000  C
  H97      1.0000 0.65790  0.61980  0.32820  Biso   1.000  H
  H98      1.0000 0.34210  0.61980  0.17180  Biso   1.000  H
  H99      1.0000 0.15790  0.11980  0.32820  Biso   1.000  H
  H100     1.0000 0.84210  0.11980  0.17180  Biso   1.000  H
  H101     1.0000 0.34210  0.38020  0.67180  Biso   1.000  H
  H102     1.0000 0.65790  0.38020  0.82820  Biso   1.000  H
  H103     1.0000 0.84210  0.88020  0.67180  Biso   1.000  H
  H104     1.0000 0.15790  0.88020  0.82820  Biso   1.000  H
  C133     1.0000 0.50000  0.86853  0.25000  Biso   1.000  C
  C134     1.0000 0.00000  0.36853  0.25000  Biso   1.000  C
  C135     1.0000 0.50000  0.13147  0.75000  Biso   1.000  C
  C136     1.0000 0.00000  0.63147  0.75000  Biso   1.000  C
  H105     1.0000 0.33640  0.87890  0.27740  Biso   1.000  H
  H106     1.0000 0.66360  0.87890  0.22260  Biso   1.000  H
  H107     1.0000 0.83640  0.37890  0.27740  Biso   1.000  H
  H108     1.0000 0.16360  0.37890  0.22260  Biso   1.000  H
  H109     1.0000 0.66360  0.12110  0.72260  Biso   1.000  H
  H110     1.0000 0.33640  0.12110  0.77740  Biso   1.000  H
  H111     1.0000 0.16360  0.62110  0.72260  Biso   1.000  H
  H112     1.0000 0.83640  0.62110  0.77740  Biso   1.000  H
  C137     1.0000 0.83766  0.54556  0.51094  Biso   1.000  C
  C138     1.0000 0.16234  0.54556  0.98906  Biso   1.000  C
  C139     1.0000 0.33766  0.04556  0.51094  Biso   1.000  C
  C140     1.0000 0.66234  0.04556  0.98906  Biso   1.000  C
  C141     1.0000 0.16234  0.45444  0.48906  Biso   1.000  C
  C142     1.0000 0.83766  0.45444  0.01094  Biso   1.000  C
  C143     1.0000 0.66234  0.95444  0.48906  Biso   1.000  C
  C144     1.0000 0.33766  0.95444  0.01094  Biso   1.000  C
  N25      1.0000 0.64813  0.54304  0.55608  Biso   1.000  N
  N26      1.0000 0.35187  0.54304  0.94392  Biso   1.000  N
  N27      1.0000 0.14813  0.04304  0.55608  Biso   1.000  N
  N28      1.0000 0.85187  0.04304  0.94392  Biso   1.000  N
  N29      1.0000 0.35187  0.45696  0.44392  Biso   1.000  N
  N30      1.0000 0.64813  0.45696  0.05608  Biso   1.000  N
  N31      1.0000 0.85187  0.95696  0.44392  Biso   1.000  N
  N32      1.0000 0.14813  0.95696  0.05608  Biso   1.000  N
  H113     1.0000 0.50000  0.67020  0.25000  Biso   1.000  H
  H114     1.0000 0.00000  0.17020  0.25000  Biso   1.000  H
  H115     1.0000 0.50000  0.32980  0.75000  Biso   1.000  H
  H116     1.0000 0.00000  0.82980  0.75000  Biso   1.000  H
  H117     1.0000 0.50000  0.82840  0.25000  Biso   1.000  H
  H118     1.0000 0.00000  0.32840  0.25000  Biso   1.000  H
  H119     1.0000 0.50000  0.17160  0.75000  Biso   1.000  H
  H120     1.0000 0.00000  0.67160  0.75000  Biso   1.000  H
  C145     1.0000 0.83433  0.60299  0.51298  Biso   1.000  C
  C146     1.0000 0.16567  0.60299  0.98702  Biso   1.000  C
  C147     1.0000 0.33433  0.10299  0.51298  Biso   1.000  C
  C148     1.0000 0.66567  0.10299  0.98702  Biso   1.000  C
  C149     1.0000 0.16567  0.39701  0.48702  Biso   1.000  C
  C150     1.0000 0.83433  0.39701  0.01298  Biso   1.000  C
  C151     1.0000 0.66567  0.89701  0.48702  Biso   1.000  C
  C152     1.0000 0.33433  0.89701  0.01298  Biso   1.000  C
  H121     1.0000 0.90290  0.52620  0.49430  Biso   1.000  H
  H122     1.0000 0.09710  0.52620  0.00570  Biso   1.000  H
  H123     1.0000 0.40290  0.02620  0.49430  Biso   1.000  H
  H124     1.0000 0.59710  0.02620  0.00570  Biso   1.000  H
  H125     1.0000 0.09710  0.47380  0.50570  Biso   1.000  H
  H126     1.0000 0.90290  0.47380  0.99430  Biso   1.000  H
  H127     1.0000 0.59710  0.97380  0.50570  Biso   1.000  H
  H128     1.0000 0.40290  0.97380  0.99430  Biso   1.000  H
  C153     1.0000 0.64708  0.60097  0.55789  Biso   1.000  C
  C154     1.0000 0.35292  0.60097  0.94211  Biso   1.000  C
  C155     1.0000 0.14708  0.10097  0.55789  Biso   1.000  C
  C156     1.0000 0.85292  0.10097  0.94211  Biso   1.000  C
  C157     1.0000 0.35292  0.39903  0.44211  Biso   1.000  C
  C158     1.0000 0.64708  0.39903  0.05789  Biso   1.000  C
  C159     1.0000 0.85292  0.89903  0.44211  Biso   1.000  C
  C160     1.0000 0.14708  0.89903  0.05789  Biso   1.000  C
  C161     1.0000 0.73999  0.63213  0.53724  Biso   1.000  C
  C162     1.0000 0.26001  0.63213  0.96276  Biso   1.000  C
  C163     1.0000 0.23999  0.13213  0.53724  Biso   1.000  C
  C164     1.0000 0.76001  0.13213  0.96276  Biso   1.000  C
  C165     1.0000 0.26001  0.36787  0.46276  Biso   1.000  C
  C166     1.0000 0.73999  0.36787  0.03724  Biso   1.000  C
  C167     1.0000 0.76001  0.86787  0.46276  Biso   1.000  C
  C168     1.0000 0.23999  0.86787  0.03724  Biso   1.000  C
  H129     1.0000 0.89850  0.62370  0.49730  Biso   1.000  H
  H130     1.0000 0.10150  0.62370  0.00270  Biso   1.000  H
  H131     1.0000 0.39850  0.12370  0.49730  Biso   1.000  H
  H132     1.0000 0.60150  0.12370  0.00270  Biso   1.000  H
  H133     1.0000 0.10150  0.37630  0.50270  Biso   1.000  H
  H134     1.0000 0.89850  0.37630  0.99730  Biso   1.000  H
  H135     1.0000 0.60150  0.87630  0.50270  Biso   1.000  H
  H136     1.0000 0.39850  0.87630  0.99730  Biso   1.000  H
  H137     1.0000 0.58100  0.62000  0.57370  Biso   1.000  H
  H138     1.0000 0.41900  0.62000  0.92630  Biso   1.000  H
  H139     1.0000 0.08100  0.12000  0.57370  Biso   1.000  H
  H140     1.0000 0.91900  0.12000  0.92630  Biso   1.000  H
  H141     1.0000 0.41900  0.38000  0.42630  Biso   1.000  H
  H142     1.0000 0.58100  0.38000  0.07370  Biso   1.000  H
  H143     1.0000 0.91900  0.88000  0.42630  Biso   1.000  H
  H144     1.0000 0.08100  0.88000  0.07370  Biso   1.000  H
  H145     1.0000 0.73930  0.67220  0.53960  Biso   1.000  H
  H146     1.0000 0.26070  0.67220  0.96040  Biso   1.000  H
  H147     1.0000 0.23930  0.17220  0.53960  Biso   1.000  H
  H148     1.0000 0.76070  0.17220  0.96040  Biso   1.000  H
  H149     1.0000 0.26070  0.32780  0.46040  Biso   1.000  H
  H150     1.0000 0.73930  0.32780  0.03960  Biso   1.000  H
  H151     1.0000 0.76070  0.82780  0.46040  Biso   1.000  H
  H152     1.0000 0.23930  0.82780  0.03960  Biso   1.000  H
  O33      1.0000 0.18608  0.22919  0.34255  Biso   1.000  O
  O34      1.0000 0.81392  0.22919  0.15745  Biso   1.000  O
  O35      1.0000 0.68608  0.72919  0.34255  Biso   1.000  O
  O36      1.0000 0.31392  0.72919  0.15745  Biso   1.000  O
  O37      1.0000 0.81392  0.77081  0.65745  Biso   1.000  O
  O38      1.0000 0.18608  0.77081  0.84255  Biso   1.000  O
  O39      1.0000 0.31392  0.27081  0.65745  Biso   1.000  O
  O40      1.0000 0.68608  0.27081  0.84255  Biso   1.000  O
  H153     1.0000 0.14230  0.23910  0.38550  Biso   1.000  H
  H154     1.0000 0.85770  0.23910  0.11450  Biso   1.000  H
  H155     1.0000 0.64230  0.73910  0.38550  Biso   1.000  H
  H156     1.0000 0.35770  0.73910  0.11450  Biso   1.000  H
  H157     1.0000 0.85770  0.76090  0.61450  Biso   1.000  H
  H158     1.0000 0.14230  0.76090  0.88550  Biso   1.000  H
  H159     1.0000 0.35770  0.26090  0.61450  Biso   1.000  H
  H160     1.0000 0.64230  0.26090  0.88550  Biso   1.000  H
  H161     1.0000 0.25690  0.23820  0.36390  Biso   1.000  H
  H162     1.0000 0.74310  0.23820  0.13610  Biso   1.000  H
  H163     1.0000 0.75690  0.73820  0.36390  Biso   1.000  H
  H164     1.0000 0.24310  0.73820  0.13610  Biso   1.000  H
  H165     1.0000 0.74310  0.76180  0.63610  Biso   1.000  H
  H166     1.0000 0.25690  0.76180  0.86390  Biso   1.000  H
  H167     1.0000 0.24310  0.26180  0.63610  Biso   1.000  H
  H168     1.0000 0.75690  0.26180  0.86390  Biso   1.000  H
