data_image0
_cell_length_a       6.5086
_cell_length_b       12.4962
_cell_length_c       12.9374
_cell_angle_alpha    102.423
_cell_angle_beta     94.894
_cell_angle_gamma    92.474

_symmetry_space_group_name_H-M    "P 1"
_symmetry_int_tables_number       1

loop_
  _symmetry_equiv_pos_as_xyz
  'x, y, z'

loop_
  _atom_site_label
  _atom_site_occupancy
  _atom_site_fract_x
  _atom_site_fract_y
  _atom_site_fract_z
  _atom_site_thermal_displace_type
  _atom_site_B_iso_or_equiv
  _atom_site_type_symbol
  Cu1      1.0000 0.00000  0.00000  0.00000  Biso   1.000  Cu
  C1       1.0000 0.43980  0.10150  0.25540  Biso   1.000  C
  C2       1.0000 0.56020  0.89850  0.74460  Biso   1.000  C
  H1       1.0000 0.55580  0.14430  0.29060  Biso   1.000  H
  H2       1.0000 0.44420  0.85570  0.70940  Biso   1.000  H
  N1       1.0000 0.18650  0.03240  0.13900  Biso   1.000  N
  N2       1.0000 0.81350  0.96760  0.86100  Biso   1.000  N
  N3       1.0000 0.35170  0.11000  0.16290  Biso   1.000  N
  N4       1.0000 0.64830  0.89000  0.83710  Biso   1.000  N
  N5       1.0000 0.15420  0.12220  0.95410  Biso   1.000  N
  N6       1.0000 0.84580  0.87780  0.04590  Biso   1.000  N
  N7       1.0000 0.30590  0.28290  0.96150  Biso   1.000  N
  N8       1.0000 0.69410  0.71710  0.03850  Biso   1.000  N
  N9       1.0000 0.34050  0.02250  0.29340  Biso   1.000  N
  N10      1.0000 0.65950  0.97750  0.70660  Biso   1.000  N
  N11      1.0000 0.31750  0.10640  0.89300  Biso   1.000  N
  N12      1.0000 0.68250  0.89360  0.10700  Biso   1.000  N
  C3       1.0000 0.18370  0.98140  0.21790  Biso   1.000  C
  C4       1.0000 0.81630  0.01860  0.78210  Biso   1.000  C
  H3       1.0000 0.08780  0.92520  0.22130  Biso   1.000  H
  H4       1.0000 0.91220  0.07480  0.77870  Biso   1.000  H
  C5       1.0000 0.15000  0.22750  0.99320  Biso   1.000  C
  C6       1.0000 0.85000  0.77250  0.00680  Biso   1.000  C
  H5       1.0000 0.05290  0.25970  0.03690  Biso   1.000  H
  H6       1.0000 0.94710  0.74030  0.96310  Biso   1.000  H
  C7       1.0000 0.40470  0.20450  0.89960  Biso   1.000  C
  C8       1.0000 0.59530  0.79550  0.10040  Biso   1.000  C
  H7       1.0000 0.52040  0.21830  0.86590  Biso   1.000  H
  H8       1.0000 0.47960  0.78170  0.13410  Biso   1.000  H
  C9       1.0000 0.37640  0.45310  0.89800  Biso   1.000  C
  C10      1.0000 0.62360  0.54690  0.10200  Biso   1.000  C
  H9       1.0000 0.47900  0.41600  0.85500  Biso   1.000  H
  H10      1.0000 0.52100  0.58400  0.14500  Biso   1.000  H
  H11      1.0000 0.24600  0.44400  0.85200  Biso   1.000  H
  H12      1.0000 0.75400  0.55600  0.14800  Biso   1.000  H
  C11      1.0000 0.39230  0.98700  0.39440  Biso   1.000  C
  C12      1.0000 0.60770  0.01300  0.60560  Biso   1.000  C
  H13      1.0000 0.30500  0.92100  0.38700  Biso   1.000  H
  H14      1.0000 0.69500  0.07900  0.61300  Biso   1.000  H
  C13      1.0000 0.36190  0.40310  0.99380  Biso   1.000  C
  C14      1.0000 0.63810  0.59690  0.00620  Biso   1.000  C
  H15      1.0000 0.25900  0.43400  0.03300  Biso   1.000  H
  H16      1.0000 0.74100  0.56600  0.96700  Biso   1.000  H
  C15      1.0000 0.33030  0.07090  0.48800  Biso   1.000  C
  C16      1.0000 0.66970  0.92910  0.51200  Biso   1.000  C
  H17      1.0000 0.66500  0.91200  0.34700  Biso   1.000  H
  H18      1.0000 0.33500  0.08800  0.65300  Biso   1.000  H
  H19      1.0000 0.69700  0.03100  0.41200  Biso   1.000  H
  H20      1.0000 0.30300  0.96900  0.58800  Biso   1.000  H
  C17      1.0000 0.56330  0.42340  0.06660  Biso   1.000  C
  C18      1.0000 0.43670  0.57660  0.93340  Biso   1.000  C
  H21      1.0000 0.66700  0.38600  0.03000  Biso   1.000  H
  H22      1.0000 0.33300  0.61400  0.97000  Biso   1.000  H
  H23      1.0000 0.55700  0.39100  0.12700  Biso   1.000  H
  H24      1.0000 0.44300  0.60900  0.87300  Biso   1.000  H
  C19      1.0000 0.61970  0.96600  0.40730  Biso   1.000  C
  C20      1.0000 0.38030  0.03400  0.59270  Biso   1.000  C
  H25      1.0000 0.40700  0.13900  0.48800  Biso   1.000  H
  H26      1.0000 0.59300  0.86100  0.51200  Biso   1.000  H
  H27      1.0000 0.18400  0.08300  0.47600  Biso   1.000  H
  H28      1.0000 0.81600  0.91700  0.52400  Biso   1.000  H
  O1       1.0000 0.77050  0.14010  0.07150  Biso   1.000  O
  O2       1.0000 0.22950  0.85990  0.92850  Biso   1.000  O
  H29      1.0000 0.80300  0.17500  0.13600  Biso   1.000  H
  H30      1.0000 0.19700  0.82500  0.86400  Biso   1.000  H
  H31      1.0000 0.65100  0.12500  0.07100  Biso   1.000  H
  H32      1.0000 0.34900  0.87500  0.92900  Biso   1.000  H
  Cl1      1.0000 0.85794  0.32139  0.73210  Biso   1.000  Cl
  Cl2      1.0000 0.14206  0.67861  0.26790  Biso   1.000  Cl
  O3       1.0000 0.65820  0.28900  0.67670  Biso   1.000  O
  O4       1.0000 0.34180  0.71100  0.32330  Biso   1.000  O
  O5       1.0000 0.85030  0.31930  0.84000  Biso   1.000  O
  O6       1.0000 0.14970  0.68070  0.16000  Biso   1.000  O
  O7       1.0000 0.00470  0.24600  0.69250  Biso   1.000  O
  O8       1.0000 0.99530  0.75400  0.30750  Biso   1.000  O
  O9       1.0000 0.91740  0.42570  0.71950  Biso   1.000  O
  O10      1.0000 0.08260  0.57430  0.28050  Biso   1.000  O
  C21      1.0000 0.03270  0.28300  0.44350  Biso   1.000  C
  C22      1.0000 0.96730  0.71700  0.55650  Biso   1.000  C
  H33      1.0000 0.04130  0.27800  0.51440  Biso   1.000  H
  H34      1.0000 0.95870  0.72200  0.48560  Biso   1.000  H
  C23      1.0000 0.09460  0.32890  0.29990  Biso   1.000  C
  C24      1.0000 0.90540  0.67110  0.70010  Biso   1.000  C
  H35      1.0000 0.15510  0.36190  0.25100  Biso   1.000  H
  H36      1.0000 0.84490  0.63810  0.74900  Biso   1.000  H
  N13      1.0000 0.16690  0.34350  0.40250  Biso   1.000  N
  N14      1.0000 0.83310  0.65650  0.59750  Biso   1.000  N
  N15      1.0000 0.88920  0.23240  0.37110  Biso   1.000  N
  N16      1.0000 0.11080  0.76760  0.62890  Biso   1.000  N
  N17      1.0000 0.92890  0.26280  0.27750  Biso   1.000  N
  N18      1.0000 0.07110  0.73720  0.72250  Biso   1.000  N
  C25      1.0000 0.35610  0.40630  0.46390  Biso   1.000  C
  C26      1.0000 0.64390  0.59370  0.53610  Biso   1.000  C
  H37      1.0000 0.42530  0.35500  0.50080  Biso   1.000  H
  H38      1.0000 0.57470  0.64500  0.49920  Biso   1.000  H
  C27      1.0000 0.50530  0.43560  0.39110  Biso   1.000  C
  C28      1.0000 0.49470  0.56440  0.60890  Biso   1.000  C
  H39      1.0000 0.43710  0.47690  0.34420  Biso   1.000  H
  H40      1.0000 0.56290  0.52310  0.65580  Biso   1.000  H
  H41      1.0000 0.54960  0.36890  0.34750  Biso   1.000  H
  H42      1.0000 0.45040  0.63110  0.65250  Biso   1.000  H
  C29      1.0000 0.69390  0.50380  0.45360  Biso   1.000  C
  C30      1.0000 0.30610  0.49620  0.54640  Biso   1.000  C
  H43      1.0000 0.78070  0.45620  0.48570  Biso   1.000  H
  H44      1.0000 0.21930  0.54380  0.51430  Biso   1.000  H
  H45      1.0000 0.77320  0.53300  0.40460  Biso   1.000  H
  H46      1.0000 0.22680  0.46700  0.59540  Biso   1.000  H
