data_image0
_cell_length_a       21.7514
_cell_length_b       6.8794
_cell_length_c       12.9048
_cell_angle_alpha    90
_cell_angle_beta     93.621
_cell_angle_gamma    90

_symmetry_space_group_name_H-M    "P 1"
_symmetry_int_tables_number       1

loop_
  _symmetry_equiv_pos_as_xyz
  'x, y, z'

loop_
  _atom_site_label
  _atom_site_occupancy
  _atom_site_fract_x
  _atom_site_fract_y
  _atom_site_fract_z
  _atom_site_thermal_displace_type
  _atom_site_B_iso_or_equiv
  _atom_site_type_symbol
  Cu1      1.0000 0.50000  0.56167  0.25000  Biso   1.000  Cu
  Cu2      1.0000 0.00000  0.06167  0.25000  Biso   1.000  Cu
  Cu3      1.0000 0.50000  0.43833  0.75000  Biso   1.000  Cu
  Cu4      1.0000 0.00000  0.93833  0.75000  Biso   1.000  Cu
  O1       1.0000 0.58159  0.55545  0.19469  Biso   1.000  O
  O2       1.0000 0.41841  0.55545  0.30531  Biso   1.000  O
  O3       1.0000 0.08159  0.05545  0.19469  Biso   1.000  O
  O4       1.0000 0.91841  0.05545  0.30531  Biso   1.000  O
  O5       1.0000 0.41841  0.44455  0.80531  Biso   1.000  O
  O6       1.0000 0.58159  0.44455  0.69469  Biso   1.000  O
  O7       1.0000 0.91841  0.94455  0.80531  Biso   1.000  O
  O8       1.0000 0.08159  0.94455  0.69469  Biso   1.000  O
  O9       1.0000 0.63771  0.67550  0.33131  Biso   1.000  O
  O10      1.0000 0.36229  0.67550  0.16869  Biso   1.000  O
  O11      1.0000 0.13771  0.17550  0.33131  Biso   1.000  O
  O12      1.0000 0.86229  0.17550  0.16869  Biso   1.000  O
  O13      1.0000 0.36229  0.32450  0.66869  Biso   1.000  O
  O14      1.0000 0.63771  0.32450  0.83131  Biso   1.000  O
  O15      1.0000 0.86229  0.82450  0.66869  Biso   1.000  O
  O16      1.0000 0.13771  0.82450  0.83131  Biso   1.000  O
  O17      1.0000 0.90018  0.61860  0.03875  Biso   1.000  O
  O18      1.0000 0.09982  0.61860  0.46125  Biso   1.000  O
  O19      1.0000 0.40018  0.11860  0.03875  Biso   1.000  O
  O20      1.0000 0.59982  0.11860  0.46125  Biso   1.000  O
  O21      1.0000 0.09982  0.38140  0.96125  Biso   1.000  O
  O22      1.0000 0.90018  0.38140  0.53875  Biso   1.000  O
  O23      1.0000 0.59982  0.88140  0.96125  Biso   1.000  O
  O24      1.0000 0.40018  0.88140  0.53875  Biso   1.000  O
  O25      1.0000 0.54054  0.58180  0.43338  Biso   1.000  O
  O26      1.0000 0.45946  0.58180  0.06662  Biso   1.000  O
  O27      1.0000 0.04054  0.08180  0.43338  Biso   1.000  O
  O28      1.0000 0.95946  0.08180  0.06662  Biso   1.000  O
  O29      1.0000 0.45946  0.41820  0.56662  Biso   1.000  O
  O30      1.0000 0.54054  0.41820  0.93338  Biso   1.000  O
  O31      1.0000 0.95946  0.91820  0.56662  Biso   1.000  O
  O32      1.0000 0.04054  0.91820  0.93338  Biso   1.000  O
  N1       1.0000 0.50000  0.85900  0.25000  Biso   1.000  N
  N2       1.0000 0.00000  0.35900  0.25000  Biso   1.000  N
  N3       1.0000 0.50000  0.14100  0.75000  Biso   1.000  N
  N4       1.0000 0.00000  0.64100  0.75000  Biso   1.000  N
  N5       1.0000 0.50000  0.26320  0.25000  Biso   1.000  N
  N6       1.0000 0.00000  0.76320  0.25000  Biso   1.000  N
  N7       1.0000 0.50000  0.73680  0.75000  Biso   1.000  N
  N8       1.0000 0.00000  0.23680  0.75000  Biso   1.000  N
  C1       1.0000 0.63185  0.61230  0.24173  Biso   1.000  C
  C2       1.0000 0.36815  0.61230  0.25827  Biso   1.000  C
  C3       1.0000 0.13185  0.11230  0.24173  Biso   1.000  C
  C4       1.0000 0.86815  0.11230  0.25827  Biso   1.000  C
  C5       1.0000 0.36815  0.38770  0.75827  Biso   1.000  C
  C6       1.0000 0.63185  0.38770  0.74173  Biso   1.000  C
  C7       1.0000 0.86815  0.88770  0.75827  Biso   1.000  C
  C8       1.0000 0.13185  0.88770  0.74173  Biso   1.000  C
  C9       1.0000 0.68848  0.59840  0.18010  Biso   1.000  C
  C10      1.0000 0.31152  0.59840  0.31990  Biso   1.000  C
  C11      1.0000 0.18848  0.09840  0.18010  Biso   1.000  C
  C12      1.0000 0.81152  0.09840  0.31990  Biso   1.000  C
  C13      1.0000 0.31152  0.40160  0.81990  Biso   1.000  C
  C14      1.0000 0.68848  0.40160  0.68010  Biso   1.000  C
  C15      1.0000 0.81152  0.90160  0.81990  Biso   1.000  C
  C16      1.0000 0.18848  0.90160  0.68010  Biso   1.000  C
  C17      1.0000 0.68624  0.50980  0.08295  Biso   1.000  C
  C18      1.0000 0.31376  0.50980  0.41705  Biso   1.000  C
  C19      1.0000 0.18624  0.00980  0.08295  Biso   1.000  C
  C20      1.0000 0.81376  0.00980  0.41705  Biso   1.000  C
  C21      1.0000 0.31376  0.49020  0.91705  Biso   1.000  C
  C22      1.0000 0.68624  0.49020  0.58295  Biso   1.000  C
  C23      1.0000 0.81376  0.99020  0.91705  Biso   1.000  C
  C24      1.0000 0.18624  0.99020  0.58295  Biso   1.000  C
  C25      1.0000 0.73941  0.49340  0.02948  Biso   1.000  C
  C26      1.0000 0.26059  0.49340  0.47052  Biso   1.000  C
  C27      1.0000 0.23941  0.99340  0.02948  Biso   1.000  C
  C28      1.0000 0.76059  0.99340  0.47052  Biso   1.000  C
  C29      1.0000 0.26059  0.50660  0.97052  Biso   1.000  C
  C30      1.0000 0.73941  0.50660  0.52948  Biso   1.000  C
  C31      1.0000 0.76059  0.00660  0.97052  Biso   1.000  C
  C32      1.0000 0.23941  0.00660  0.52948  Biso   1.000  C
  C33      1.0000 0.79501  0.56560  0.07299  Biso   1.000  C
  C34      1.0000 0.20499  0.56560  0.42701  Biso   1.000  C
  C35      1.0000 0.29501  0.06560  0.07299  Biso   1.000  C
  C36      1.0000 0.70499  0.06560  0.42701  Biso   1.000  C
  C37      1.0000 0.20499  0.43440  0.92701  Biso   1.000  C
  C38      1.0000 0.79501  0.43440  0.57299  Biso   1.000  C
  C39      1.0000 0.70499  0.93440  0.92701  Biso   1.000  C
  C40      1.0000 0.29501  0.93440  0.57299  Biso   1.000  C
  C41      1.0000 0.79729  0.65540  0.16972  Biso   1.000  C
  C42      1.0000 0.20271  0.65540  0.33028  Biso   1.000  C
  C43      1.0000 0.29729  0.15540  0.16972  Biso   1.000  C
  C44      1.0000 0.70271  0.15540  0.33028  Biso   1.000  C
  C45      1.0000 0.20271  0.34460  0.83028  Biso   1.000  C
  C46      1.0000 0.79729  0.34460  0.66972  Biso   1.000  C
  C47      1.0000 0.70271  0.84460  0.83028  Biso   1.000  C
  C48      1.0000 0.29729  0.84460  0.66972  Biso   1.000  C
  C49      1.0000 0.74435  0.67180  0.22284  Biso   1.000  C
  C50      1.0000 0.25565  0.67180  0.27716  Biso   1.000  C
  C51      1.0000 0.24435  0.17180  0.22284  Biso   1.000  C
  C52      1.0000 0.75565  0.17180  0.27716  Biso   1.000  C
  C53      1.0000 0.25565  0.32820  0.77716  Biso   1.000  C
  C54      1.0000 0.74435  0.32820  0.72284  Biso   1.000  C
  C55      1.0000 0.75565  0.82820  0.77716  Biso   1.000  C
  C56      1.0000 0.24435  0.82820  0.72284  Biso   1.000  C
  C57      1.0000 0.85122  0.54720  0.01458  Biso   1.000  C
  C58      1.0000 0.14878  0.54720  0.48542  Biso   1.000  C
  C59      1.0000 0.35122  0.04720  0.01458  Biso   1.000  C
  C60      1.0000 0.64878  0.04720  0.48542  Biso   1.000  C
  C61      1.0000 0.14878  0.45280  0.98542  Biso   1.000  C
  C62      1.0000 0.85122  0.45280  0.51458  Biso   1.000  C
  C63      1.0000 0.64878  0.95280  0.98542  Biso   1.000  C
  C64      1.0000 0.35122  0.95280  0.51458  Biso   1.000  C
  C65      1.0000 0.52244  0.96020  0.17228  Biso   1.000  C
  C66      1.0000 0.47756  0.96020  0.32772  Biso   1.000  C
  C67      1.0000 0.02244  0.46020  0.17228  Biso   1.000  C
  C68      1.0000 0.97756  0.46020  0.32772  Biso   1.000  C
  C69      1.0000 0.47756  0.03980  0.82772  Biso   1.000  C
  C70      1.0000 0.52244  0.03980  0.67228  Biso   1.000  C
  C71      1.0000 0.97756  0.53980  0.82772  Biso   1.000  C
  C72      1.0000 0.02244  0.53980  0.67228  Biso   1.000  C
  C73      1.0000 0.52268  0.16180  0.17257  Biso   1.000  C
  C74      1.0000 0.47732  0.16180  0.32743  Biso   1.000  C
  C75      1.0000 0.02268  0.66180  0.17257  Biso   1.000  C
  C76      1.0000 0.97732  0.66180  0.32743  Biso   1.000  C
  C77      1.0000 0.47732  0.83820  0.82743  Biso   1.000  C
  C78      1.0000 0.52268  0.83820  0.67257  Biso   1.000  C
  C79      1.0000 0.97732  0.33820  0.82743  Biso   1.000  C
  C80      1.0000 0.02268  0.33820  0.67257  Biso   1.000  C
  H1       1.0000 0.64910  0.46150  0.05390  Biso   1.000  H
  H2       1.0000 0.35090  0.46150  0.44610  Biso   1.000  H
  H3       1.0000 0.14910  0.96150  0.05390  Biso   1.000  H
  H4       1.0000 0.85090  0.96150  0.44610  Biso   1.000  H
  H5       1.0000 0.35090  0.53850  0.94610  Biso   1.000  H
  H6       1.0000 0.64910  0.53850  0.55390  Biso   1.000  H
  H7       1.0000 0.85090  0.03850  0.94610  Biso   1.000  H
  H8       1.0000 0.14910  0.03850  0.55390  Biso   1.000  H
  H9       1.0000 0.73790  0.43420  0.96460  Biso   1.000  H
  H10      1.0000 0.26210  0.43420  0.53540  Biso   1.000  H
  H11      1.0000 0.23790  0.93420  0.96460  Biso   1.000  H
  H12      1.0000 0.76210  0.93420  0.53540  Biso   1.000  H
  H13      1.0000 0.26210  0.56580  0.03540  Biso   1.000  H
  H14      1.0000 0.73790  0.56580  0.46460  Biso   1.000  H
  H15      1.0000 0.76210  0.06580  0.03540  Biso   1.000  H
  H16      1.0000 0.23790  0.06580  0.46460  Biso   1.000  H
  H17      1.0000 0.83440  0.70420  0.19860  Biso   1.000  H
  H18      1.0000 0.16560  0.70420  0.30140  Biso   1.000  H
  H19      1.0000 0.33440  0.20420  0.19860  Biso   1.000  H
  H20      1.0000 0.66560  0.20420  0.30140  Biso   1.000  H
  H21      1.0000 0.16560  0.29580  0.80140  Biso   1.000  H
  H22      1.0000 0.83440  0.29580  0.69860  Biso   1.000  H
  H23      1.0000 0.66560  0.79580  0.80140  Biso   1.000  H
  H24      1.0000 0.33440  0.79580  0.69860  Biso   1.000  H
  H25      1.0000 0.74590  0.73200  0.28750  Biso   1.000  H
  H26      1.0000 0.25410  0.73200  0.21250  Biso   1.000  H
  H27      1.0000 0.24590  0.23200  0.28750  Biso   1.000  H
  H28      1.0000 0.75410  0.23200  0.21250  Biso   1.000  H
  H29      1.0000 0.25410  0.26800  0.71250  Biso   1.000  H
  H30      1.0000 0.74590  0.26800  0.78750  Biso   1.000  H
  H31      1.0000 0.75410  0.76800  0.71250  Biso   1.000  H
  H32      1.0000 0.24590  0.76800  0.78750  Biso   1.000  H
  H33      1.0000 0.84820  0.47380  0.95400  Biso   1.000  H
  H34      1.0000 0.15180  0.47380  0.54600  Biso   1.000  H
  H35      1.0000 0.34820  0.97380  0.95400  Biso   1.000  H
  H36      1.0000 0.65180  0.97380  0.54600  Biso   1.000  H
  H37      1.0000 0.15180  0.52620  0.04600  Biso   1.000  H
  H38      1.0000 0.84820  0.52620  0.45400  Biso   1.000  H
  H39      1.0000 0.65180  0.02620  0.04600  Biso   1.000  H
  H40      1.0000 0.34820  0.02620  0.45400  Biso   1.000  H
  H41      1.0000 0.53820  0.89410  0.11700  Biso   1.000  H
  H42      1.0000 0.46180  0.89410  0.38300  Biso   1.000  H
  H43      1.0000 0.03820  0.39410  0.11700  Biso   1.000  H
  H44      1.0000 0.96180  0.39410  0.38300  Biso   1.000  H
  H45      1.0000 0.46180  0.10590  0.88300  Biso   1.000  H
  H46      1.0000 0.53820  0.10590  0.61700  Biso   1.000  H
  H47      1.0000 0.96180  0.60590  0.88300  Biso   1.000  H
  H48      1.0000 0.03820  0.60590  0.61700  Biso   1.000  H
  H49      1.0000 0.53900  0.22800  0.11770  Biso   1.000  H
  H50      1.0000 0.46100  0.22800  0.38230  Biso   1.000  H
  H51      1.0000 0.03900  0.72800  0.11770  Biso   1.000  H
  H52      1.0000 0.96100  0.72800  0.38230  Biso   1.000  H
  H53      1.0000 0.46100  0.77200  0.88230  Biso   1.000  H
  H54      1.0000 0.53900  0.77200  0.61770  Biso   1.000  H
  H55      1.0000 0.96100  0.27200  0.88230  Biso   1.000  H
  H56      1.0000 0.03900  0.27200  0.61770  Biso   1.000  H
  H57      1.0000 0.54640  0.48500  0.46500  Biso   1.000  H
  H58      1.0000 0.45360  0.48500  0.03500  Biso   1.000  H
  H59      1.0000 0.04640  0.98500  0.46500  Biso   1.000  H
  H60      1.0000 0.95360  0.98500  0.03500  Biso   1.000  H
  H61      1.0000 0.45360  0.51500  0.53500  Biso   1.000  H
  H62      1.0000 0.54640  0.51500  0.96500  Biso   1.000  H
  H63      1.0000 0.95360  0.01500  0.53500  Biso   1.000  H
  H64      1.0000 0.04640  0.01500  0.96500  Biso   1.000  H
  H65      1.0000 0.57380  0.60900  0.41400  Biso   1.000  H
  H66      1.0000 0.42620  0.60900  0.08600  Biso   1.000  H
  H67      1.0000 0.07380  0.10900  0.41400  Biso   1.000  H
  H68      1.0000 0.92620  0.10900  0.08600  Biso   1.000  H
  H69      1.0000 0.42620  0.39100  0.58600  Biso   1.000  H
  H70      1.0000 0.57380  0.39100  0.91400  Biso   1.000  H
  H71      1.0000 0.92620  0.89100  0.58600  Biso   1.000  H
  H72      1.0000 0.07380  0.89100  0.91400  Biso   1.000  H
