data_image0
_cell_length_a       12.391
_cell_length_b       12.77
_cell_length_c       7.135
_cell_angle_alpha    90
_cell_angle_beta     95.155
_cell_angle_gamma    90

_symmetry_space_group_name_H-M    "P 1"
_symmetry_int_tables_number       1

loop_
  _symmetry_equiv_pos_as_xyz
  'x, y, z'

loop_
  _atom_site_label
  _atom_site_occupancy
  _atom_site_fract_x
  _atom_site_fract_y
  _atom_site_fract_z
  _atom_site_thermal_displace_type
  _atom_site_B_iso_or_equiv
  _atom_site_type_symbol
  Cu1      1.0000 0.68330  0.08657  0.94118  Biso   1.000  Cu
  Cu2      1.0000 0.31670  0.58657  0.55882  Biso   1.000  Cu
  Cu3      1.0000 0.31670  0.91343  0.05882  Biso   1.000  Cu
  Cu4      1.0000 0.68330  0.41343  0.44118  Biso   1.000  Cu
  O1       1.0000 0.72910  0.93470  0.94620  Biso   1.000  O
  O2       1.0000 0.27090  0.43470  0.55380  Biso   1.000  O
  O3       1.0000 0.27090  0.06530  0.05380  Biso   1.000  O
  O4       1.0000 0.72910  0.56530  0.44620  Biso   1.000  O
  O5       1.0000 0.86610  0.83110  0.05960  Biso   1.000  O
  O6       1.0000 0.13390  0.33110  0.44040  Biso   1.000  O
  O7       1.0000 0.13390  0.16890  0.94040  Biso   1.000  O
  O8       1.0000 0.86610  0.66890  0.55960  Biso   1.000  O
  O9       1.0000 0.67300  0.23900  0.01810  Biso   1.000  O
  O10      1.0000 0.32700  0.73900  0.48190  Biso   1.000  O
  O11      1.0000 0.32700  0.76100  0.98190  Biso   1.000  O
  O12      1.0000 0.67300  0.26100  0.51810  Biso   1.000  O
  O13      1.0000 0.76950  0.36450  0.17950  Biso   1.000  O
  O14      1.0000 0.23050  0.86450  0.32050  Biso   1.000  O
  O15      1.0000 0.23050  0.63550  0.82050  Biso   1.000  O
  O16      1.0000 0.76950  0.13550  0.67950  Biso   1.000  O
  O17      1.0000 0.10240  0.12580  0.41050  Biso   1.000  O
  O18      1.0000 0.89760  0.62580  0.08950  Biso   1.000  O
  O19      1.0000 0.89760  0.87420  0.58950  Biso   1.000  O
  O20      1.0000 0.10240  0.37420  0.91050  Biso   1.000  O
  N1       1.0000 0.81280  0.09750  0.10340  Biso   1.000  N
  N2       1.0000 0.18720  0.59750  0.39660  Biso   1.000  N
  N3       1.0000 0.18720  0.90250  0.89660  Biso   1.000  N
  N4       1.0000 0.81280  0.40250  0.60340  Biso   1.000  N
  N5       1.0000 0.53980  0.07570  0.80660  Biso   1.000  N
  N6       1.0000 0.46020  0.57570  0.69340  Biso   1.000  N
  N7       1.0000 0.46020  0.92430  0.19340  Biso   1.000  N
  N8       1.0000 0.53980  0.42430  0.30660  Biso   1.000  N
  C1       1.0000 0.81970  0.91690  0.04090  Biso   1.000  C
  C2       1.0000 0.18030  0.41690  0.45910  Biso   1.000  C
  C3       1.0000 0.18030  0.08310  0.95910  Biso   1.000  C
  C4       1.0000 0.81970  0.58310  0.54090  Biso   1.000  C
  C5       1.0000 0.87330  0.01210  0.13490  Biso   1.000  C
  C6       1.0000 0.12670  0.51210  0.36510  Biso   1.000  C
  C7       1.0000 0.12670  0.98790  0.86510  Biso   1.000  C
  C8       1.0000 0.87330  0.48790  0.63490  Biso   1.000  C
  C9       1.0000 0.97300  0.01950  0.24270  Biso   1.000  C
  C10      1.0000 0.02700  0.51950  0.25730  Biso   1.000  C
  C11      1.0000 0.02700  0.98050  0.75730  Biso   1.000  C
  C12      1.0000 0.97300  0.48050  0.74270  Biso   1.000  C
  H1       1.0000 0.01610  0.96060  0.26810  Biso   1.000  H
  H2       1.0000 0.98390  0.46060  0.23190  Biso   1.000  H
  H3       1.0000 0.98390  0.03940  0.73190  Biso   1.000  H
  H4       1.0000 0.01610  0.53940  0.76810  Biso   1.000  H
  C13      1.0000 0.00600  0.11850  0.31140  Biso   1.000  C
  C14      1.0000 0.99400  0.61850  0.18860  Biso   1.000  C
  C15      1.0000 0.99400  0.88150  0.68860  Biso   1.000  C
  C16      1.0000 0.00600  0.38150  0.81140  Biso   1.000  C
  C17      1.0000 0.93850  0.20580  0.27920  Biso   1.000  C
  C18      1.0000 0.06150  0.70580  0.22080  Biso   1.000  C
  C19      1.0000 0.06150  0.79420  0.72080  Biso   1.000  C
  C20      1.0000 0.93850  0.29420  0.77920  Biso   1.000  C
  H5       1.0000 0.95830  0.27110  0.32830  Biso   1.000  H
  H6       1.0000 0.04170  0.77110  0.17170  Biso   1.000  H
  H7       1.0000 0.04170  0.72890  0.67170  Biso   1.000  H
  H8       1.0000 0.95830  0.22890  0.82830  Biso   1.000  H
  C21      1.0000 0.84160  0.19120  0.17230  Biso   1.000  C
  C22      1.0000 0.15840  0.69120  0.32770  Biso   1.000  C
  C23      1.0000 0.15840  0.80880  0.82770  Biso   1.000  C
  C24      1.0000 0.84160  0.30880  0.67230  Biso   1.000  C
  C25      1.0000 0.75540  0.27300  0.12180  Biso   1.000  C
  C26      1.0000 0.24460  0.77300  0.37820  Biso   1.000  C
  C27      1.0000 0.24460  0.72700  0.87820  Biso   1.000  C
  C28      1.0000 0.75540  0.22700  0.62180  Biso   1.000  C
  C29      1.0000 0.48230  0.16070  0.75340  Biso   1.000  C
  C30      1.0000 0.51770  0.66070  0.74660  Biso   1.000  C
  C31      1.0000 0.51770  0.83930  0.24660  Biso   1.000  C
  C32      1.0000 0.48230  0.33930  0.25340  Biso   1.000  C
  H9       1.0000 0.51000  0.22610  0.78900  Biso   1.000  H
  H10      1.0000 0.49000  0.72610  0.71100  Biso   1.000  H
  H11      1.0000 0.49000  0.77390  0.21100  Biso   1.000  H
  H12      1.0000 0.51000  0.27390  0.28900  Biso   1.000  H
  C33      1.0000 0.38290  0.15530  0.64700  Biso   1.000  C
  C34      1.0000 0.61710  0.65530  0.85300  Biso   1.000  C
  C35      1.0000 0.61710  0.84470  0.35300  Biso   1.000  C
  C36      1.0000 0.38290  0.34470  0.14700  Biso   1.000  C
  H13      1.0000 0.34460  0.21600  0.61260  Biso   1.000  H
  H14      1.0000 0.65540  0.71600  0.88740  Biso   1.000  H
  H15      1.0000 0.65540  0.78400  0.38740  Biso   1.000  H
  H16      1.0000 0.34460  0.28400  0.11260  Biso   1.000  H
  C37      1.0000 0.34200  0.05810  0.59300  Biso   1.000  C
  C38      1.0000 0.65800  0.55810  0.90700  Biso   1.000  C
  C39      1.0000 0.65800  0.94190  0.40700  Biso   1.000  C
  C40      1.0000 0.34200  0.44190  0.09300  Biso   1.000  C
  H17      1.0000 0.27650  0.05240  0.51930  Biso   1.000  H
  H18      1.0000 0.72350  0.55240  0.98070  Biso   1.000  H
  H19      1.0000 0.72350  0.94760  0.48070  Biso   1.000  H
  H20      1.0000 0.27650  0.44760  0.01930  Biso   1.000  H
  C41      1.0000 0.40040  0.96890  0.65090  Biso   1.000  C
  C42      1.0000 0.59960  0.46890  0.84910  Biso   1.000  C
  C43      1.0000 0.59960  0.03110  0.34910  Biso   1.000  C
  C44      1.0000 0.40040  0.53110  0.15090  Biso   1.000  C
  H21      1.0000 0.37370  0.90250  0.62020  Biso   1.000  H
  H22      1.0000 0.62630  0.40250  0.87980  Biso   1.000  H
  H23      1.0000 0.62630  0.09750  0.37980  Biso   1.000  H
  H24      1.0000 0.37370  0.59750  0.12020  Biso   1.000  H
  C45      1.0000 0.49890  0.98130  0.75490  Biso   1.000  C
  C46      1.0000 0.50110  0.48130  0.74510  Biso   1.000  C
  C47      1.0000 0.50110  0.01870  0.24510  Biso   1.000  C
  C48      1.0000 0.49890  0.51870  0.25490  Biso   1.000  C
  H25      1.0000 0.53880  0.92180  0.79080  Biso   1.000  H
  H26      1.0000 0.46120  0.42180  0.70920  Biso   1.000  H
  H27      1.0000 0.46120  0.07820  0.20920  Biso   1.000  H
  H28      1.0000 0.53880  0.57820  0.29080  Biso   1.000  H
  H29      1.0000 0.12200  0.18300  0.42700  Biso   1.000  H
  H30      1.0000 0.87800  0.68300  0.07300  Biso   1.000  H
  H31      1.0000 0.87800  0.81700  0.57300  Biso   1.000  H
  H32      1.0000 0.12200  0.31700  0.92700  Biso   1.000  H
