data_image0
_cell_length_a       13.5225
_cell_length_b       6.9078
_cell_length_c       17.6194
_cell_angle_alpha    90
_cell_angle_beta     102.327
_cell_angle_gamma    90

_symmetry_space_group_name_H-M    "P 1"
_symmetry_int_tables_number       1

loop_
  _symmetry_equiv_pos_as_xyz
  'x, y, z'

loop_
  _atom_site_label
  _atom_site_occupancy
  _atom_site_fract_x
  _atom_site_fract_y
  _atom_site_fract_z
  _atom_site_thermal_displace_type
  _atom_site_B_iso_or_equiv
  _atom_site_type_symbol
  Cu1      1.0000 0.73927  0.13044  0.87508  Biso   1.000  Cu
  Cu2      1.0000 0.76073  0.63044  0.62492  Biso   1.000  Cu
  Cu3      1.0000 0.26073  0.86956  0.12492  Biso   1.000  Cu
  Cu4      1.0000 0.23927  0.36956  0.37508  Biso   1.000  Cu
  O1       1.0000 0.75717  0.23680  0.97857  Biso   1.000  O
  O2       1.0000 0.74283  0.73680  0.52143  Biso   1.000  O
  O3       1.0000 0.24283  0.76320  0.02143  Biso   1.000  O
  O4       1.0000 0.25717  0.26320  0.47857  Biso   1.000  O
  N1       1.0000 0.88107  0.15640  0.87261  Biso   1.000  N
  N2       1.0000 0.61893  0.65640  0.62739  Biso   1.000  N
  N3       1.0000 0.11893  0.84360  0.12739  Biso   1.000  N
  N4       1.0000 0.38107  0.34360  0.37261  Biso   1.000  N
  C1       1.0000 0.84380  0.28000  0.02550  Biso   1.000  C
  C2       1.0000 0.65620  0.78000  0.47450  Biso   1.000  C
  C3       1.0000 0.15620  0.72000  0.97450  Biso   1.000  C
  C4       1.0000 0.34380  0.22000  0.52550  Biso   1.000  C
  O5       1.0000 0.73765  0.96740  0.78087  Biso   1.000  O
  O6       1.0000 0.76235  0.46740  0.71913  Biso   1.000  O
  O7       1.0000 0.26235  0.03260  0.21913  Biso   1.000  O
  O8       1.0000 0.23765  0.53260  0.28087  Biso   1.000  O
  N5       1.0000 0.60190  0.02760  0.88512  Biso   1.000  N
  N6       1.0000 0.89810  0.52760  0.61488  Biso   1.000  N
  N7       1.0000 0.39810  0.97240  0.11488  Biso   1.000  N
  N8       1.0000 0.10190  0.47240  0.38512  Biso   1.000  N
  C5       1.0000 0.84230  0.35560  0.10022  Biso   1.000  C
  C6       1.0000 0.65770  0.85560  0.39978  Biso   1.000  C
  C7       1.0000 0.15770  0.64440  0.89978  Biso   1.000  C
  C8       1.0000 0.34230  0.14440  0.60022  Biso   1.000  C
  H1       1.0000 0.78030  0.37640  0.11360  Biso   1.000  H
  H2       1.0000 0.71970  0.87640  0.38640  Biso   1.000  H
  H3       1.0000 0.21970  0.62360  0.88640  Biso   1.000  H
  H4       1.0000 0.28030  0.12360  0.61360  Biso   1.000  H
  C9       1.0000 0.93030  0.39900  0.15361  Biso   1.000  C
  C10      1.0000 0.56970  0.89900  0.34639  Biso   1.000  C
  C11      1.0000 0.06970  0.60100  0.84639  Biso   1.000  C
  C12      1.0000 0.43030  0.10100  0.65361  Biso   1.000  C
  H5       1.0000 0.92640  0.44730  0.20210  Biso   1.000  H
  H6       1.0000 0.57360  0.94730  0.29790  Biso   1.000  H
  H7       1.0000 0.07360  0.55270  0.79790  Biso   1.000  H
  H8       1.0000 0.42640  0.05270  0.70210  Biso   1.000  H
  O9       1.0000 0.66858  0.38950  0.80480  Biso   1.000  O
  O10      1.0000 0.83142  0.88950  0.69520  Biso   1.000  O
  O11      1.0000 0.33142  0.61050  0.19520  Biso   1.000  O
  O12      1.0000 0.16858  0.11050  0.30480  Biso   1.000  O
  C13      1.0000 0.02430  0.37150  0.13570  Biso   1.000  C
  C14      1.0000 0.47570  0.87150  0.36430  Biso   1.000  C
  C15      1.0000 0.97570  0.62850  0.86430  Biso   1.000  C
  C16      1.0000 0.52430  0.12850  0.63570  Biso   1.000  C
  H9       1.0000 0.08340  0.39940  0.17190  Biso   1.000  H
  H10      1.0000 0.41660  0.89940  0.32810  Biso   1.000  H
  H11      1.0000 0.91660  0.60060  0.82810  Biso   1.000  H
  H12      1.0000 0.58340  0.10060  0.67190  Biso   1.000  H
  C17      1.0000 0.02820  0.30220  0.06353  Biso   1.000  C
  C18      1.0000 0.47180  0.80220  0.43647  Biso   1.000  C
  C19      1.0000 0.97180  0.69780  0.93647  Biso   1.000  C
  C20      1.0000 0.52820  0.19780  0.56353  Biso   1.000  C
  H13      1.0000 0.09120  0.28410  0.05130  Biso   1.000  H
  H14      1.0000 0.40880  0.78410  0.44870  Biso   1.000  H
  H15      1.0000 0.90880  0.71590  0.94870  Biso   1.000  H
  H16      1.0000 0.59120  0.21590  0.55130  Biso   1.000  H
  C21      1.0000 0.93990  0.25690  0.00675  Biso   1.000  C
  C22      1.0000 0.56010  0.75690  0.49325  Biso   1.000  C
  C23      1.0000 0.06010  0.74310  0.99325  Biso   1.000  C
  C24      1.0000 0.43990  0.24310  0.50675  Biso   1.000  C
  C25      1.0000 0.95300  0.19710  0.93127  Biso   1.000  C
  C26      1.0000 0.54700  0.69710  0.56873  Biso   1.000  C
  C27      1.0000 0.04700  0.80290  0.06873  Biso   1.000  C
  C28      1.0000 0.45300  0.30290  0.43127  Biso   1.000  C
  H17      1.0000 0.01900  0.18700  0.92420  Biso   1.000  H
  H18      1.0000 0.48100  0.68700  0.57580  Biso   1.000  H
  H19      1.0000 0.98100  0.81300  0.07580  Biso   1.000  H
  H20      1.0000 0.51900  0.31300  0.42420  Biso   1.000  H
  C29      1.0000 0.90260  0.10270  0.79792  Biso   1.000  C
  C30      1.0000 0.59740  0.60270  0.70208  Biso   1.000  C
  C31      1.0000 0.09740  0.89730  0.20208  Biso   1.000  C
  C32      1.0000 0.40260  0.39730  0.29792  Biso   1.000  C
  H21      1.0000 0.96630  0.03340  0.80590  Biso   1.000  H
  H22      1.0000 0.53370  0.53340  0.69410  Biso   1.000  H
  H23      1.0000 0.03370  0.96660  0.19410  Biso   1.000  H
  H24      1.0000 0.46630  0.46660  0.30590  Biso   1.000  H
  H25      1.0000 0.90820  0.21820  0.76780  Biso   1.000  H
  H26      1.0000 0.59180  0.71820  0.73220  Biso   1.000  H
  H27      1.0000 0.09180  0.78180  0.23220  Biso   1.000  H
  H28      1.0000 0.40820  0.28180  0.26780  Biso   1.000  H
  C33      1.0000 0.81730  0.97460  0.75400  Biso   1.000  C
  C34      1.0000 0.68270  0.47460  0.74600  Biso   1.000  C
  C35      1.0000 0.18270  0.02540  0.24600  Biso   1.000  C
  C36      1.0000 0.31730  0.52540  0.25400  Biso   1.000  C
  C37      1.0000 0.59340  0.85160  0.91478  Biso   1.000  C
  C38      1.0000 0.90660  0.35160  0.58522  Biso   1.000  C
  C39      1.0000 0.40660  0.14840  0.08522  Biso   1.000  C
  C40      1.0000 0.09340  0.64840  0.41478  Biso   1.000  C
  C41      1.0000 0.49970  0.78900  0.92610  Biso   1.000  C
  C42      1.0000 0.00030  0.28900  0.57390  Biso   1.000  C
  C43      1.0000 0.50030  0.21100  0.07390  Biso   1.000  C
  C44      1.0000 0.99970  0.71100  0.42610  Biso   1.000  C
  H29      1.0000 0.49350  0.66660  0.94660  Biso   1.000  H
  H30      1.0000 0.00650  0.16660  0.55340  Biso   1.000  H
  H31      1.0000 0.50650  0.33340  0.05340  Biso   1.000  H
  H32      1.0000 0.99350  0.83340  0.44660  Biso   1.000  H
  C45      1.0000 0.41670  0.90670  0.90730  Biso   1.000  C
  C46      1.0000 0.08330  0.40670  0.59270  Biso   1.000  C
  C47      1.0000 0.58330  0.09330  0.09270  Biso   1.000  C
  C48      1.0000 0.91670  0.59330  0.40730  Biso   1.000  C
  H33      1.0000 0.35460  0.86480  0.91590  Biso   1.000  H
  H34      1.0000 0.14540  0.36480  0.58410  Biso   1.000  H
  H35      1.0000 0.64540  0.13520  0.08410  Biso   1.000  H
  H36      1.0000 0.85460  0.63520  0.41590  Biso   1.000  H
  C49      1.0000 0.42470  0.08790  0.87573  Biso   1.000  C
  C50      1.0000 0.07530  0.58790  0.62427  Biso   1.000  C
  C51      1.0000 0.57530  0.91210  0.12427  Biso   1.000  C
  C52      1.0000 0.92470  0.41210  0.37573  Biso   1.000  C
  C53      1.0000 0.51990  0.14030  0.86589  Biso   1.000  C
  C54      1.0000 0.98010  0.64030  0.63411  Biso   1.000  C
  C55      1.0000 0.48010  0.85970  0.13411  Biso   1.000  C
  C56      1.0000 0.01990  0.35970  0.36589  Biso   1.000  C
  H37      1.0000 0.52730  0.26120  0.84460  Biso   1.000  H
  H38      1.0000 0.97270  0.76120  0.65540  Biso   1.000  H
  H39      1.0000 0.47270  0.73880  0.15540  Biso   1.000  H
  H40      1.0000 0.02730  0.23880  0.34460  Biso   1.000  H
  C57      1.0000 0.68760  0.73240  0.93660  Biso   1.000  C
  C58      1.0000 0.81240  0.23240  0.56340  Biso   1.000  C
  C59      1.0000 0.31240  0.26760  0.06340  Biso   1.000  C
  C60      1.0000 0.18760  0.76760  0.43660  Biso   1.000  C
  H41      1.0000 0.74350  0.80240  0.92430  Biso   1.000  H
  H42      1.0000 0.75650  0.30240  0.57570  Biso   1.000  H
  H43      1.0000 0.25650  0.19760  0.07570  Biso   1.000  H
  H44      1.0000 0.24350  0.69760  0.42430  Biso   1.000  H
  H45      1.0000 0.67860  0.61290  0.90820  Biso   1.000  H
  H46      1.0000 0.82140  0.11290  0.59180  Biso   1.000  H
  H47      1.0000 0.32140  0.38710  0.09180  Biso   1.000  H
  H48      1.0000 0.17860  0.88710  0.40820  Biso   1.000  H
  H49      1.0000 0.70110  0.70550  0.99130  Biso   1.000  H
  H50      1.0000 0.79890  0.20550  0.50870  Biso   1.000  H
  H51      1.0000 0.29890  0.29450  0.00870  Biso   1.000  H
  H52      1.0000 0.20110  0.79450  0.49130  Biso   1.000  H
  C61      1.0000 0.33720  0.22800  0.85330  Biso   1.000  C
  C62      1.0000 0.16280  0.72800  0.64670  Biso   1.000  C
  C63      1.0000 0.66280  0.77200  0.14670  Biso   1.000  C
  C64      1.0000 0.83720  0.27200  0.35330  Biso   1.000  C
  H53      1.0000 0.32960  0.29790  0.89940  Biso   1.000  H
  H54      1.0000 0.17040  0.79790  0.60060  Biso   1.000  H
  H55      1.0000 0.67040  0.70210  0.10060  Biso   1.000  H
  H56      1.0000 0.82960  0.20210  0.39940  Biso   1.000  H
  H57      1.0000 0.35440  0.32190  0.81720  Biso   1.000  H
  H58      1.0000 0.14560  0.82190  0.68280  Biso   1.000  H
  H59      1.0000 0.64560  0.67810  0.18280  Biso   1.000  H
  H60      1.0000 0.85440  0.17810  0.31720  Biso   1.000  H
  C65      1.0000 0.23780  0.13890  0.81710  Biso   1.000  C
  C66      1.0000 0.26220  0.63890  0.68290  Biso   1.000  C
  C67      1.0000 0.76220  0.86110  0.18290  Biso   1.000  C
  C68      1.0000 0.73780  0.36110  0.31710  Biso   1.000  C
  H61      1.0000 0.18730  0.23830  0.80510  Biso   1.000  H
  H62      1.0000 0.31270  0.73830  0.69490  Biso   1.000  H
  H63      1.0000 0.81270  0.76170  0.19490  Biso   1.000  H
  H64      1.0000 0.68730  0.26170  0.30510  Biso   1.000  H
  H65      1.0000 0.21880  0.04810  0.85270  Biso   1.000  H
  H66      1.0000 0.28120  0.54810  0.64730  Biso   1.000  H
  H67      1.0000 0.78120  0.95190  0.14730  Biso   1.000  H
  H68      1.0000 0.71880  0.45190  0.35270  Biso   1.000  H
  H69      1.0000 0.24340  0.07290  0.77030  Biso   1.000  H
  H70      1.0000 0.25660  0.57290  0.72970  Biso   1.000  H
  H71      1.0000 0.75660  0.92710  0.22970  Biso   1.000  H
  H72      1.0000 0.74340  0.42710  0.27030  Biso   1.000  H
