data_image0
_cell_length_a       10.45
_cell_length_b       13.396
_cell_length_c       16.067
_cell_angle_alpha    90
_cell_angle_beta     97.33
_cell_angle_gamma    90

_symmetry_space_group_name_H-M    "P 1"
_symmetry_int_tables_number       1

loop_
  _symmetry_equiv_pos_as_xyz
  'x, y, z'

loop_
  _atom_site_label
  _atom_site_occupancy
  _atom_site_fract_x
  _atom_site_fract_y
  _atom_site_fract_z
  _atom_site_thermal_displace_type
  _atom_site_B_iso_or_equiv
  _atom_site_type_symbol
  W1       1.0000 0.00000  0.50000  0.00000  Biso   1.000  W
  W2       1.0000 0.50000  0.00000  0.00000  Biso   1.000  W
  W3       1.0000 0.00000  0.50000  0.50000  Biso   1.000  W
  W4       1.0000 0.50000  0.00000  0.50000  Biso   1.000  W
  Cu1      1.0000 0.25000  0.25000  0.00000  Biso   1.000  Cu
  Cu2      1.0000 0.75000  0.75000  0.00000  Biso   1.000  Cu
  Cu3      1.0000 0.75000  0.25000  0.50000  Biso   1.000  Cu
  Cu4      1.0000 0.25000  0.75000  0.50000  Biso   1.000  Cu
  F1       1.0000 0.11850  0.39310  0.00200  Biso   1.000  F
  F2       1.0000 0.61850  0.89310  0.00200  Biso   1.000  F
  F3       1.0000 0.88150  0.39310  0.49800  Biso   1.000  F
  F4       1.0000 0.38150  0.89310  0.49800  Biso   1.000  F
  F5       1.0000 0.88150  0.60690  0.99800  Biso   1.000  F
  F6       1.0000 0.38150  0.10690  0.99800  Biso   1.000  F
  F7       1.0000 0.11850  0.60690  0.50200  Biso   1.000  F
  F8       1.0000 0.61850  0.10690  0.50200  Biso   1.000  F
  F9       1.0000 0.04770  0.54520  0.89930  Biso   1.000  F
  F10      1.0000 0.54770  0.04520  0.89930  Biso   1.000  F
  F11      1.0000 0.95230  0.54520  0.60070  Biso   1.000  F
  F12      1.0000 0.45230  0.04520  0.60070  Biso   1.000  F
  F13      1.0000 0.95230  0.45480  0.10070  Biso   1.000  F
  F14      1.0000 0.45230  0.95480  0.10070  Biso   1.000  F
  F15      1.0000 0.04770  0.45480  0.39930  Biso   1.000  F
  F16      1.0000 0.54770  0.95480  0.39930  Biso   1.000  F
  F17      1.0000 0.12910  0.58110  0.05790  Biso   1.000  F
  F18      1.0000 0.62910  0.08110  0.05790  Biso   1.000  F
  F19      1.0000 0.87090  0.58110  0.44210  Biso   1.000  F
  F20      1.0000 0.37090  0.08110  0.44210  Biso   1.000  F
  F21      1.0000 0.87090  0.41890  0.94210  Biso   1.000  F
  F22      1.0000 0.37090  0.91890  0.94210  Biso   1.000  F
  F23      1.0000 0.12910  0.41890  0.55790  Biso   1.000  F
  F24      1.0000 0.62910  0.91890  0.55790  Biso   1.000  F
  N1       1.0000 0.40700  0.33460  0.03470  Biso   1.000  N
  N2       1.0000 0.90700  0.83460  0.03470  Biso   1.000  N
  N3       1.0000 0.59300  0.33460  0.46530  Biso   1.000  N
  N4       1.0000 0.09300  0.83460  0.46530  Biso   1.000  N
  N5       1.0000 0.59300  0.66540  0.96530  Biso   1.000  N
  N6       1.0000 0.09300  0.16540  0.96530  Biso   1.000  N
  N7       1.0000 0.40700  0.66540  0.53470  Biso   1.000  N
  N8       1.0000 0.90700  0.16540  0.53470  Biso   1.000  N
  N9       1.0000 0.23940  0.22890  0.12660  Biso   1.000  N
  N10      1.0000 0.73940  0.72890  0.12660  Biso   1.000  N
  N11      1.0000 0.76060  0.22890  0.37340  Biso   1.000  N
  N12      1.0000 0.26060  0.72890  0.37340  Biso   1.000  N
  N13      1.0000 0.76060  0.77110  0.87340  Biso   1.000  N
  N14      1.0000 0.26060  0.27110  0.87340  Biso   1.000  N
  N15      1.0000 0.23940  0.77110  0.62660  Biso   1.000  N
  N16      1.0000 0.73940  0.27110  0.62660  Biso   1.000  N
  C1       1.0000 0.40420  0.41530  0.08230  Biso   1.000  C
  C2       1.0000 0.90420  0.91530  0.08230  Biso   1.000  C
  C3       1.0000 0.59580  0.41530  0.41770  Biso   1.000  C
  C4       1.0000 0.09580  0.91530  0.41770  Biso   1.000  C
  C5       1.0000 0.59580  0.58470  0.91770  Biso   1.000  C
  C6       1.0000 0.09580  0.08470  0.91770  Biso   1.000  C
  C7       1.0000 0.40420  0.58470  0.58230  Biso   1.000  C
  C8       1.0000 0.90420  0.08470  0.58230  Biso   1.000  C
  C9       1.0000 0.51280  0.46890  0.11340  Biso   1.000  C
  C10      1.0000 0.01280  0.96890  0.11340  Biso   1.000  C
  C11      1.0000 0.48720  0.46890  0.38660  Biso   1.000  C
  C12      1.0000 0.98720  0.96890  0.38660  Biso   1.000  C
  C13      1.0000 0.48720  0.53110  0.88660  Biso   1.000  C
  C14      1.0000 0.98720  0.03110  0.88660  Biso   1.000  C
  C15      1.0000 0.51280  0.53110  0.61340  Biso   1.000  C
  C16      1.0000 0.01280  0.03110  0.61340  Biso   1.000  C
  C17      1.0000 0.63100  0.43940  0.09200  Biso   1.000  C
  C18      1.0000 0.13100  0.93940  0.09200  Biso   1.000  C
  C19      1.0000 0.36900  0.43940  0.40800  Biso   1.000  C
  C20      1.0000 0.86900  0.93940  0.40800  Biso   1.000  C
  C21      1.0000 0.36900  0.56060  0.90800  Biso   1.000  C
  C22      1.0000 0.86900  0.06060  0.90800  Biso   1.000  C
  C23      1.0000 0.63100  0.56060  0.59200  Biso   1.000  C
  C24      1.0000 0.13100  0.06060  0.59200  Biso   1.000  C
  C25      1.0000 0.63700  0.35730  0.03990  Biso   1.000  C
  C26      1.0000 0.13700  0.85730  0.03990  Biso   1.000  C
  C27      1.0000 0.36300  0.35730  0.46010  Biso   1.000  C
  C28      1.0000 0.86300  0.85730  0.46010  Biso   1.000  C
  C29      1.0000 0.36300  0.64270  0.96010  Biso   1.000  C
  C30      1.0000 0.86300  0.14270  0.96010  Biso   1.000  C
  C31      1.0000 0.63700  0.64270  0.53990  Biso   1.000  C
  C32      1.0000 0.13700  0.14270  0.53990  Biso   1.000  C
  C33      1.0000 0.52460  0.30710  0.01110  Biso   1.000  C
  C34      1.0000 0.02460  0.80710  0.01110  Biso   1.000  C
  C35      1.0000 0.47540  0.30710  0.48890  Biso   1.000  C
  C36      1.0000 0.97540  0.80710  0.48890  Biso   1.000  C
  C37      1.0000 0.47540  0.69290  0.98890  Biso   1.000  C
  C38      1.0000 0.97540  0.19290  0.98890  Biso   1.000  C
  C39      1.0000 0.52460  0.69290  0.51110  Biso   1.000  C
  C40      1.0000 0.02460  0.19290  0.51110  Biso   1.000  C
  C41      1.0000 0.30890  0.15700  0.16700  Biso   1.000  C
  C42      1.0000 0.80890  0.65700  0.16700  Biso   1.000  C
  C43      1.0000 0.69110  0.15700  0.33300  Biso   1.000  C
  C44      1.0000 0.19110  0.65700  0.33300  Biso   1.000  C
  C45      1.0000 0.69110  0.84300  0.83300  Biso   1.000  C
  C46      1.0000 0.19110  0.34300  0.83300  Biso   1.000  C
  C47      1.0000 0.30890  0.84300  0.66700  Biso   1.000  C
  C48      1.0000 0.80890  0.34300  0.66700  Biso   1.000  C
  C49      1.0000 0.31150  0.14200  0.25210  Biso   1.000  C
  C50      1.0000 0.81150  0.64200  0.25210  Biso   1.000  C
  C51      1.0000 0.68850  0.14200  0.24790  Biso   1.000  C
  C52      1.0000 0.18850  0.64200  0.24790  Biso   1.000  C
  C53      1.0000 0.68850  0.85800  0.74790  Biso   1.000  C
  C54      1.0000 0.18850  0.35800  0.74790  Biso   1.000  C
  C55      1.0000 0.31150  0.85800  0.75210  Biso   1.000  C
  C56      1.0000 0.81150  0.35800  0.75210  Biso   1.000  C
  C57      1.0000 0.23850  0.20260  0.29690  Biso   1.000  C
  C58      1.0000 0.73850  0.70260  0.29690  Biso   1.000  C
  C59      1.0000 0.76150  0.20260  0.20310  Biso   1.000  C
  C60      1.0000 0.26150  0.70260  0.20310  Biso   1.000  C
  C61      1.0000 0.76150  0.79740  0.70310  Biso   1.000  C
  C62      1.0000 0.26150  0.29740  0.70310  Biso   1.000  C
  C63      1.0000 0.23850  0.79740  0.79690  Biso   1.000  C
  C64      1.0000 0.73850  0.29740  0.79690  Biso   1.000  C
  C65      1.0000 0.16790  0.27770  0.25570  Biso   1.000  C
  C66      1.0000 0.66790  0.77770  0.25570  Biso   1.000  C
  C67      1.0000 0.83210  0.27770  0.24430  Biso   1.000  C
  C68      1.0000 0.33210  0.77770  0.24430  Biso   1.000  C
  C69      1.0000 0.83210  0.72230  0.74430  Biso   1.000  C
  C70      1.0000 0.33210  0.22230  0.74430  Biso   1.000  C
  C71      1.0000 0.16790  0.72230  0.75570  Biso   1.000  C
  C72      1.0000 0.66790  0.22230  0.75570  Biso   1.000  C
  C73      1.0000 0.16880  0.28850  0.17060  Biso   1.000  C
  C74      1.0000 0.66880  0.78850  0.17060  Biso   1.000  C
  C75      1.0000 0.83120  0.28850  0.32940  Biso   1.000  C
  C76      1.0000 0.33120  0.78850  0.32940  Biso   1.000  C
  C77      1.0000 0.83120  0.71150  0.82940  Biso   1.000  C
  C78      1.0000 0.33120  0.21150  0.82940  Biso   1.000  C
  C79      1.0000 0.16880  0.71150  0.67060  Biso   1.000  C
  C80      1.0000 0.66880  0.21150  0.67060  Biso   1.000  C
  H1       1.0000 0.32300  0.43510  0.09570  Biso   1.000  H
  H2       1.0000 0.82300  0.93510  0.09570  Biso   1.000  H
  H3       1.0000 0.67700  0.43510  0.40430  Biso   1.000  H
  H4       1.0000 0.17700  0.93510  0.40430  Biso   1.000  H
  H5       1.0000 0.67700  0.56490  0.90430  Biso   1.000  H
  H6       1.0000 0.17700  0.06490  0.90430  Biso   1.000  H
  H7       1.0000 0.32300  0.56490  0.59570  Biso   1.000  H
  H8       1.0000 0.82300  0.06490  0.59570  Biso   1.000  H
  H9       1.0000 0.50630  0.52500  0.14880  Biso   1.000  H
  H10      1.0000 0.00630  0.02500  0.14880  Biso   1.000  H
  H11      1.0000 0.49370  0.52500  0.35120  Biso   1.000  H
  H12      1.0000 0.99370  0.02500  0.35120  Biso   1.000  H
  H13      1.0000 0.49370  0.47500  0.85120  Biso   1.000  H
  H14      1.0000 0.99370  0.97500  0.85120  Biso   1.000  H
  H15      1.0000 0.50630  0.47500  0.64880  Biso   1.000  H
  H16      1.0000 0.00630  0.97500  0.64880  Biso   1.000  H
  H17      1.0000 0.70720  0.47490  0.11270  Biso   1.000  H
  H18      1.0000 0.20720  0.97490  0.11270  Biso   1.000  H
  H19      1.0000 0.29280  0.47490  0.38730  Biso   1.000  H
  H20      1.0000 0.79280  0.97490  0.38730  Biso   1.000  H
  H21      1.0000 0.29280  0.52510  0.88730  Biso   1.000  H
  H22      1.0000 0.79280  0.02510  0.88730  Biso   1.000  H
  H23      1.0000 0.70720  0.52510  0.61270  Biso   1.000  H
  H24      1.0000 0.20720  0.02510  0.61270  Biso   1.000  H
  H25      1.0000 0.71730  0.33590  0.02430  Biso   1.000  H
  H26      1.0000 0.21730  0.83590  0.02430  Biso   1.000  H
  H27      1.0000 0.28270  0.33590  0.47570  Biso   1.000  H
  H28      1.0000 0.78270  0.83590  0.47570  Biso   1.000  H
  H29      1.0000 0.28270  0.66410  0.97570  Biso   1.000  H
  H30      1.0000 0.78270  0.16410  0.97570  Biso   1.000  H
  H31      1.0000 0.71730  0.66410  0.52430  Biso   1.000  H
  H32      1.0000 0.21730  0.16410  0.52430  Biso   1.000  H
  H33      1.0000 0.52830  0.25220  0.97410  Biso   1.000  H
  H34      1.0000 0.02830  0.75220  0.97410  Biso   1.000  H
  H35      1.0000 0.47170  0.25220  0.52590  Biso   1.000  H
  H36      1.0000 0.97170  0.75220  0.52590  Biso   1.000  H
  H37      1.0000 0.47170  0.74780  0.02590  Biso   1.000  H
  H38      1.0000 0.97170  0.24780  0.02590  Biso   1.000  H
  H39      1.0000 0.52830  0.74780  0.47410  Biso   1.000  H
  H40      1.0000 0.02830  0.24780  0.47410  Biso   1.000  H
  H41      1.0000 0.35860  0.11440  0.13640  Biso   1.000  H
  H42      1.0000 0.85860  0.61440  0.13640  Biso   1.000  H
  H43      1.0000 0.64140  0.11440  0.36360  Biso   1.000  H
  H44      1.0000 0.14140  0.61440  0.36360  Biso   1.000  H
  H45      1.0000 0.64140  0.88560  0.86360  Biso   1.000  H
  H46      1.0000 0.14140  0.38560  0.86360  Biso   1.000  H
  H47      1.0000 0.35860  0.88560  0.63640  Biso   1.000  H
  H48      1.0000 0.85860  0.38560  0.63640  Biso   1.000  H
  H49      1.0000 0.36300  0.09040  0.27960  Biso   1.000  H
  H50      1.0000 0.86300  0.59040  0.27960  Biso   1.000  H
  H51      1.0000 0.63700  0.09040  0.22040  Biso   1.000  H
  H52      1.0000 0.13700  0.59040  0.22040  Biso   1.000  H
  H53      1.0000 0.63700  0.90960  0.72040  Biso   1.000  H
  H54      1.0000 0.13700  0.40960  0.72040  Biso   1.000  H
  H55      1.0000 0.36300  0.90960  0.77960  Biso   1.000  H
  H56      1.0000 0.86300  0.40960  0.77960  Biso   1.000  H
  H57      1.0000 0.23720  0.19230  0.35530  Biso   1.000  H
  H58      1.0000 0.73720  0.69230  0.35530  Biso   1.000  H
  H59      1.0000 0.76280  0.19230  0.14470  Biso   1.000  H
  H60      1.0000 0.26280  0.69230  0.14470  Biso   1.000  H
  H61      1.0000 0.76280  0.80770  0.64470  Biso   1.000  H
  H62      1.0000 0.26280  0.30770  0.64470  Biso   1.000  H
  H63      1.0000 0.23720  0.80770  0.85530  Biso   1.000  H
  H64      1.0000 0.73720  0.30770  0.85530  Biso   1.000  H
  H65      1.0000 0.11890  0.32180  0.28550  Biso   1.000  H
  H66      1.0000 0.61890  0.82180  0.28550  Biso   1.000  H
  H67      1.0000 0.88110  0.32180  0.21450  Biso   1.000  H
  H68      1.0000 0.38110  0.82180  0.21450  Biso   1.000  H
  H69      1.0000 0.88110  0.67820  0.71450  Biso   1.000  H
  H70      1.0000 0.38110  0.17820  0.71450  Biso   1.000  H
  H71      1.0000 0.11890  0.67820  0.78550  Biso   1.000  H
  H72      1.0000 0.61890  0.17820  0.78550  Biso   1.000  H
  H73      1.0000 0.11790  0.33970  0.14200  Biso   1.000  H
  H74      1.0000 0.61790  0.83970  0.14200  Biso   1.000  H
  H75      1.0000 0.88210  0.33970  0.35800  Biso   1.000  H
  H76      1.0000 0.38210  0.83970  0.35800  Biso   1.000  H
  H77      1.0000 0.88210  0.66030  0.85800  Biso   1.000  H
  H78      1.0000 0.38210  0.16030  0.85800  Biso   1.000  H
  H79      1.0000 0.11790  0.66030  0.64200  Biso   1.000  H
  H80      1.0000 0.61790  0.16030  0.64200  Biso   1.000  H
