data_image0
_cell_length_a       11.5
_cell_length_b       7.97
_cell_length_c       16.521
_cell_angle_alpha    90
_cell_angle_beta     103.06
_cell_angle_gamma    90

_symmetry_space_group_name_H-M    "P 1"
_symmetry_int_tables_number       1

loop_
  _symmetry_equiv_pos_as_xyz
  'x, y, z'

loop_
  _atom_site_label
  _atom_site_occupancy
  _atom_site_fract_x
  _atom_site_fract_y
  _atom_site_fract_z
  _atom_site_thermal_displace_type
  _atom_site_B_iso_or_equiv
  _atom_site_type_symbol
  W1       1.0000 0.49702  0.10511  0.74633  Biso   1.000  W
  W2       1.0000 0.00298  0.60511  0.75367  Biso   1.000  W
  W3       1.0000 0.50298  0.89489  0.25367  Biso   1.000  W
  W4       1.0000 0.99702  0.39489  0.24633  Biso   1.000  W
  Cu1      1.0000 0.49880  0.60230  0.74419  Biso   1.000  Cu
  Cu2      1.0000 0.00120  0.10230  0.75581  Biso   1.000  Cu
  Cu3      1.0000 0.50120  0.39770  0.25581  Biso   1.000  Cu
  Cu4      1.0000 0.99880  0.89770  0.24419  Biso   1.000  Cu
  F1       1.0000 0.55580  0.31980  0.73830  Biso   1.000  F
  F2       1.0000 0.94420  0.81980  0.76170  Biso   1.000  F
  F3       1.0000 0.44420  0.68020  0.26170  Biso   1.000  F
  F4       1.0000 0.05580  0.18020  0.23830  Biso   1.000  F
  F5       1.0000 0.44120  0.88490  0.75070  Biso   1.000  F
  F6       1.0000 0.05880  0.38490  0.74930  Biso   1.000  F
  F7       1.0000 0.55880  0.11510  0.24930  Biso   1.000  F
  F8       1.0000 0.94120  0.61510  0.25070  Biso   1.000  F
  F9       1.0000 0.43630  0.09950  0.63120  Biso   1.000  F
  F10      1.0000 0.06370  0.59950  0.86880  Biso   1.000  F
  F11      1.0000 0.56370  0.90050  0.36880  Biso   1.000  F
  F12      1.0000 0.93630  0.40050  0.13120  Biso   1.000  F
  F13      1.0000 0.56170  0.10290  0.86080  Biso   1.000  F
  F14      1.0000 0.93830  0.60290  0.63920  Biso   1.000  F
  F15      1.0000 0.43830  0.89710  0.13920  Biso   1.000  F
  F16      1.0000 0.06170  0.39710  0.36080  Biso   1.000  F
  F17      1.0000 0.35440  0.19330  0.76480  Biso   1.000  F
  F18      1.0000 0.14560  0.69330  0.73520  Biso   1.000  F
  F19      1.0000 0.64560  0.80670  0.23520  Biso   1.000  F
  F20      1.0000 0.85440  0.30670  0.26480  Biso   1.000  F
  F21      1.0000 0.64540  0.01360  0.73070  Biso   1.000  F
  F22      1.0000 0.85460  0.51360  0.76930  Biso   1.000  F
  F23      1.0000 0.35460  0.98640  0.26930  Biso   1.000  F
  F24      1.0000 0.14540  0.48640  0.23070  Biso   1.000  F
  O1       1.0000 0.34820  0.52870  0.77270  Biso   1.000  O
  O2       1.0000 0.15180  0.02870  0.72730  Biso   1.000  O
  O3       1.0000 0.65180  0.47130  0.22730  Biso   1.000  O
  O4       1.0000 0.84820  0.97130  0.27270  Biso   1.000  O
  O5       1.0000 0.65330  0.68360  0.72060  Biso   1.000  O
  O6       1.0000 0.84670  0.18360  0.77940  Biso   1.000  O
  O7       1.0000 0.34670  0.31640  0.27940  Biso   1.000  O
  O8       1.0000 0.15330  0.81640  0.22060  Biso   1.000  O
  N1       1.0000 0.57210  0.60300  0.86680  Biso   1.000  N
  N2       1.0000 0.92790  0.10300  0.63320  Biso   1.000  N
  N3       1.0000 0.42790  0.39700  0.13320  Biso   1.000  N
  N4       1.0000 0.07210  0.89700  0.36680  Biso   1.000  N
  N5       1.0000 0.42380  0.59800  0.62040  Biso   1.000  N
  N6       1.0000 0.07620  0.09800  0.87960  Biso   1.000  N
  N7       1.0000 0.57620  0.40200  0.37960  Biso   1.000  N
  N8       1.0000 0.92380  0.90200  0.12040  Biso   1.000  N
  C1       1.0000 0.52960  0.70300  0.91890  Biso   1.000  C
  C2       1.0000 0.97040  0.20300  0.58110  Biso   1.000  C
  C3       1.0000 0.47040  0.29700  0.08110  Biso   1.000  C
  C4       1.0000 0.02960  0.79700  0.41890  Biso   1.000  C
  C5       1.0000 0.57700  0.70600  0.00300  Biso   1.000  C
  C6       1.0000 0.92300  0.20600  0.49700  Biso   1.000  C
  C7       1.0000 0.42300  0.29400  0.99700  Biso   1.000  C
  C8       1.0000 0.07700  0.79400  0.50300  Biso   1.000  C
  C9       1.0000 0.67500  0.60200  0.03580  Biso   1.000  C
  C10      1.0000 0.82500  0.10200  0.46420  Biso   1.000  C
  C11      1.0000 0.32500  0.39800  0.96420  Biso   1.000  C
  C12      1.0000 0.17500  0.89800  0.53580  Biso   1.000  C
  C13      1.0000 0.71700  0.49900  0.98310  Biso   1.000  C
  C14      1.0000 0.78300  0.99900  0.51690  Biso   1.000  C
  C15      1.0000 0.28300  0.50100  0.01690  Biso   1.000  C
  C16      1.0000 0.21700  0.00100  0.48310  Biso   1.000  C
  C17      1.0000 0.66560  0.50300  0.90060  Biso   1.000  C
  C18      1.0000 0.83440  0.00300  0.59940  Biso   1.000  C
  C19      1.0000 0.33440  0.49700  0.09940  Biso   1.000  C
  C20      1.0000 0.16560  0.99700  0.40060  Biso   1.000  C
  C21      1.0000 0.45820  0.70500  0.56830  Biso   1.000  C
  C22      1.0000 0.04180  0.20500  0.93170  Biso   1.000  C
  C23      1.0000 0.54180  0.29500  0.43170  Biso   1.000  C
  C24      1.0000 0.95820  0.79500  0.06830  Biso   1.000  C
  C25      1.0000 0.41400  0.70100  0.48380  Biso   1.000  C
  C26      1.0000 0.08600  0.20100  0.01620  Biso   1.000  C
  C27      1.0000 0.58600  0.29900  0.51620  Biso   1.000  C
  C28      1.0000 0.91400  0.79900  0.98380  Biso   1.000  C
  C29      1.0000 0.32700  0.58000  0.45050  Biso   1.000  C
  C30      1.0000 0.17300  0.08000  0.04950  Biso   1.000  C
  C31      1.0000 0.67300  0.42000  0.54950  Biso   1.000  C
  C32      1.0000 0.82700  0.92000  0.95050  Biso   1.000  C
  C33      1.0000 0.29100  0.47400  0.50430  Biso   1.000  C
  C34      1.0000 0.20900  0.97400  0.99570  Biso   1.000  C
  C35      1.0000 0.70900  0.52600  0.49570  Biso   1.000  C
  C36      1.0000 0.79100  0.02600  0.00430  Biso   1.000  C
  C37      1.0000 0.33990  0.48200  0.58720  Biso   1.000  C
  C38      1.0000 0.16010  0.98200  0.91280  Biso   1.000  C
  C39      1.0000 0.66010  0.51800  0.41280  Biso   1.000  C
  C40      1.0000 0.83990  0.01800  0.08720  Biso   1.000  C
  H1       1.0000 0.46390  0.77580  0.89560  Biso   1.000  H
  H2       1.0000 0.03610  0.27580  0.60440  Biso   1.000  H
  H3       1.0000 0.53610  0.22420  0.10440  Biso   1.000  H
  H4       1.0000 0.96390  0.72420  0.39560  Biso   1.000  H
  H5       1.0000 0.54370  0.77840  0.03860  Biso   1.000  H
  H6       1.0000 0.95630  0.27840  0.46140  Biso   1.000  H
  H7       1.0000 0.45630  0.22160  0.96140  Biso   1.000  H
  H8       1.0000 0.04370  0.72160  0.53860  Biso   1.000  H
  H9       1.0000 0.71020  0.60530  0.09480  Biso   1.000  H
  H10      1.0000 0.78980  0.10530  0.40520  Biso   1.000  H
  H11      1.0000 0.28980  0.39470  0.90520  Biso   1.000  H
  H12      1.0000 0.21020  0.89470  0.59480  Biso   1.000  H
  H13      1.0000 0.78280  0.42250  0.00420  Biso   1.000  H
  H14      1.0000 0.71720  0.92250  0.49580  Biso   1.000  H
  H15      1.0000 0.21720  0.57750  0.99580  Biso   1.000  H
  H16      1.0000 0.28280  0.07750  0.50420  Biso   1.000  H
  H17      1.0000 0.69800  0.43310  0.86340  Biso   1.000  H
  H18      1.0000 0.80200  0.93310  0.63660  Biso   1.000  H
  H19      1.0000 0.30200  0.56690  0.13660  Biso   1.000  H
  H20      1.0000 0.19800  0.06690  0.36340  Biso   1.000  H
  H21      1.0000 0.51620  0.78980  0.59180  Biso   1.000  H
  H22      1.0000 0.98380  0.28980  0.90820  Biso   1.000  H
  H23      1.0000 0.48380  0.21020  0.40820  Biso   1.000  H
  H24      1.0000 0.01620  0.71020  0.09180  Biso   1.000  H
  H25      1.0000 0.44030  0.78110  0.44810  Biso   1.000  H
  H26      1.0000 0.05970  0.28110  0.05190  Biso   1.000  H
  H27      1.0000 0.55970  0.21890  0.55190  Biso   1.000  H
  H28      1.0000 0.94030  0.71890  0.94810  Biso   1.000  H
  H29      1.0000 0.29590  0.57350  0.39120  Biso   1.000  H
  H30      1.0000 0.20410  0.07350  0.10880  Biso   1.000  H
  H31      1.0000 0.70410  0.42650  0.60880  Biso   1.000  H
  H32      1.0000 0.79590  0.92650  0.89120  Biso   1.000  H
  H33      1.0000 0.23130  0.38950  0.48270  Biso   1.000  H
  H34      1.0000 0.26870  0.88950  0.01730  Biso   1.000  H
  H35      1.0000 0.76870  0.61050  0.51730  Biso   1.000  H
  H36      1.0000 0.73130  0.11050  0.98270  Biso   1.000  H
  H37      1.0000 0.31540  0.40240  0.62430  Biso   1.000  H
  H38      1.0000 0.18460  0.90240  0.87570  Biso   1.000  H
  H39      1.0000 0.68460  0.59760  0.37570  Biso   1.000  H
  H40      1.0000 0.81540  0.09760  0.12430  Biso   1.000  H
