data_image0
_cell_length_a       8.4512
_cell_length_b       22.888
_cell_length_c       7.1305
_cell_angle_alpha    90
_cell_angle_beta     110.54
_cell_angle_gamma    90

_symmetry_space_group_name_H-M    "P 1"
_symmetry_int_tables_number       1

loop_
  _symmetry_equiv_pos_as_xyz
  'x, y, z'

loop_
  _atom_site_label
  _atom_site_occupancy
  _atom_site_fract_x
  _atom_site_fract_y
  _atom_site_fract_z
  _atom_site_thermal_displace_type
  _atom_site_B_iso_or_equiv
  _atom_site_type_symbol
  Cu1      1.0000 0.45110  0.28958  0.41754  Biso   1.000  Cu
  Cu2      1.0000 0.54890  0.78958  0.08246  Biso   1.000  Cu
  Cu3      1.0000 0.54890  0.71042  0.58246  Biso   1.000  Cu
  Cu4      1.0000 0.45110  0.21042  0.91754  Biso   1.000  Cu
  Cl1      1.0000 0.28839  0.26875  0.65891  Biso   1.000  Cl
  Cl2      1.0000 0.71161  0.76875  0.84109  Biso   1.000  Cl
  Cl3      1.0000 0.71161  0.73125  0.34109  Biso   1.000  Cl
  Cl4      1.0000 0.28839  0.23125  0.15891  Biso   1.000  Cl
  O1       1.0000 0.73830  0.51370  0.52170  Biso   1.000  O
  O2       1.0000 0.26170  0.01370  0.97830  Biso   1.000  O
  O3       1.0000 0.26170  0.48630  0.47830  Biso   1.000  O
  O4       1.0000 0.73830  0.98630  0.02170  Biso   1.000  O
  N1       1.0000 0.66020  0.33622  0.57810  Biso   1.000  N
  N2       1.0000 0.33980  0.83622  0.92190  Biso   1.000  N
  N3       1.0000 0.33980  0.66378  0.42190  Biso   1.000  N
  N4       1.0000 0.66020  0.16378  0.07810  Biso   1.000  N
  H1       1.0000 0.72600  0.54970  0.54300  Biso   1.000  H
  H2       1.0000 0.27400  0.04970  0.95700  Biso   1.000  H
  H3       1.0000 0.27400  0.45030  0.45700  Biso   1.000  H
  H4       1.0000 0.72600  0.95030  0.04300  Biso   1.000  H
  O5       1.0000 0.75370  0.01908  0.65770  Biso   1.000  O
  O6       1.0000 0.24630  0.51908  0.84230  Biso   1.000  O
  O7       1.0000 0.24630  0.98092  0.34230  Biso   1.000  O
  O8       1.0000 0.75370  0.48092  0.15770  Biso   1.000  O
  N5       1.0000 0.61170  0.22407  0.54040  Biso   1.000  N
  N6       1.0000 0.38830  0.72407  0.95960  Biso   1.000  N
  N7       1.0000 0.38830  0.77593  0.45960  Biso   1.000  N
  N8       1.0000 0.61170  0.27593  0.04040  Biso   1.000  N
  H5       1.0000 0.76300  0.00500  0.77300  Biso   1.000  H
  H6       1.0000 0.23700  0.50500  0.72700  Biso   1.000  H
  H7       1.0000 0.23700  0.99500  0.22700  Biso   1.000  H
  H8       1.0000 0.76300  0.49500  0.27300  Biso   1.000  H
  Cl5      1.0000 0.29615  0.36922  0.27731  Biso   1.000  Cl
  Cl6      1.0000 0.70385  0.86922  0.22269  Biso   1.000  Cl
  Cl7      1.0000 0.70385  0.63078  0.72269  Biso   1.000  Cl
  Cl8      1.0000 0.29615  0.13078  0.77731  Biso   1.000  Cl
  C1       1.0000 0.79830  0.30338  0.67840  Biso   1.000  C
  C2       1.0000 0.20170  0.80338  0.82160  Biso   1.000  C
  C3       1.0000 0.20170  0.69662  0.32160  Biso   1.000  C
  C4       1.0000 0.79830  0.19662  0.17840  Biso   1.000  C
  C5       1.0000 0.76980  0.23963  0.65840  Biso   1.000  C
  C6       1.0000 0.23020  0.73963  0.84160  Biso   1.000  C
  C7       1.0000 0.23020  0.76037  0.34160  Biso   1.000  C
  C8       1.0000 0.76980  0.26037  0.15840  Biso   1.000  C
  C9       1.0000 0.95140  0.32865  0.79050  Biso   1.000  C
  C10      1.0000 0.04860  0.82865  0.70950  Biso   1.000  C
  C11      1.0000 0.04860  0.67135  0.20950  Biso   1.000  C
  C12      1.0000 0.95140  0.17135  0.29050  Biso   1.000  C
  H9       1.0000 0.05200  0.30500  0.84900  Biso   1.000  H
  H10      1.0000 0.94800  0.80500  0.65100  Biso   1.000  H
  H11      1.0000 0.94800  0.69500  0.15100  Biso   1.000  H
  H12      1.0000 0.05200  0.19500  0.34900  Biso   1.000  H
  C13      1.0000 0.89170  0.19766  0.74910  Biso   1.000  C
  C14      1.0000 0.10830  0.69766  0.75090  Biso   1.000  C
  C15      1.0000 0.10830  0.80234  0.25090  Biso   1.000  C
  C16      1.0000 0.89170  0.30234  0.24910  Biso   1.000  C
  H13      1.0000 0.99900  0.21020  0.83700  Biso   1.000  H
  H14      1.0000 0.00100  0.71020  0.66300  Biso   1.000  H
  H15      1.0000 0.00100  0.78980  0.16300  Biso   1.000  H
  H16      1.0000 0.99900  0.28980  0.33700  Biso   1.000  H
  C17      1.0000 0.96470  0.38896  0.79860  Biso   1.000  C
  C18      1.0000 0.03530  0.88896  0.70140  Biso   1.000  C
  C19      1.0000 0.03530  0.61104  0.20140  Biso   1.000  C
  C20      1.0000 0.96470  0.11104  0.29860  Biso   1.000  C
  H17      1.0000 0.07200  0.40500  0.85600  Biso   1.000  H
  H18      1.0000 0.92800  0.90500  0.64400  Biso   1.000  H
  H19      1.0000 0.92800  0.59500  0.14400  Biso   1.000  H
  H20      1.0000 0.07200  0.09500  0.35600  Biso   1.000  H
  C21      1.0000 0.84800  0.13902  0.72400  Biso   1.000  C
  C22      1.0000 0.15200  0.63902  0.77600  Biso   1.000  C
  C23      1.0000 0.15200  0.86098  0.27600  Biso   1.000  C
  C24      1.0000 0.84800  0.36098  0.22400  Biso   1.000  C
  H21      1.0000 0.93100  0.11200  0.79500  Biso   1.000  H
  H22      1.0000 0.06900  0.61200  0.70500  Biso   1.000  H
  H23      1.0000 0.06900  0.88800  0.20500  Biso   1.000  H
  H24      1.0000 0.93100  0.38800  0.29500  Biso   1.000  H
  C25      1.0000 0.82370  0.42328  0.69750  Biso   1.000  C
  C26      1.0000 0.17630  0.92328  0.80250  Biso   1.000  C
  C27      1.0000 0.17630  0.57672  0.30250  Biso   1.000  C
  C28      1.0000 0.82370  0.07672  0.19750  Biso   1.000  C
  C29      1.0000 0.68530  0.12310  0.60890  Biso   1.000  C
  C30      1.0000 0.31470  0.62310  0.89110  Biso   1.000  C
  C31      1.0000 0.31470  0.87690  0.39110  Biso   1.000  C
  C32      1.0000 0.68530  0.37690  0.10890  Biso   1.000  C
  C33      1.0000 0.67450  0.39470  0.58910  Biso   1.000  C
  C34      1.0000 0.32550  0.89470  0.91090  Biso   1.000  C
  C35      1.0000 0.32550  0.60530  0.41090  Biso   1.000  C
  C36      1.0000 0.67450  0.10530  0.08910  Biso   1.000  C
  H25      1.0000 0.57500  0.41510  0.51500  Biso   1.000  H
  H26      1.0000 0.42500  0.91510  0.98500  Biso   1.000  H
  H27      1.0000 0.42500  0.58490  0.48500  Biso   1.000  H
  H28      1.0000 0.57500  0.08490  0.01500  Biso   1.000  H
  C37      1.0000 0.57140  0.16696  0.51870  Biso   1.000  C
  C38      1.0000 0.42860  0.66696  0.98130  Biso   1.000  C
  C39      1.0000 0.42860  0.83304  0.48130  Biso   1.000  C
  C40      1.0000 0.57140  0.33304  0.01870  Biso   1.000  C
  H29      1.0000 0.45400  0.15650  0.44200  Biso   1.000  H
  H30      1.0000 0.54600  0.65650  0.05800  Biso   1.000  H
  H31      1.0000 0.54600  0.84350  0.55800  Biso   1.000  H
  H32      1.0000 0.45400  0.34350  0.94200  Biso   1.000  H
  C41      1.0000 0.62330  0.06023  0.57760  Biso   1.000  C
  C42      1.0000 0.37670  0.56023  0.92240  Biso   1.000  C
  C43      1.0000 0.37670  0.93977  0.42240  Biso   1.000  C
  C44      1.0000 0.62330  0.43977  0.07760  Biso   1.000  C
  H33      1.0000 0.53720  0.05470  0.64090  Biso   1.000  H
  H34      1.0000 0.46280  0.55470  0.85910  Biso   1.000  H
  H35      1.0000 0.46280  0.94530  0.35910  Biso   1.000  H
  H36      1.0000 0.53720  0.44530  0.14090  Biso   1.000  H
  H37      1.0000 0.56830  0.05290  0.43220  Biso   1.000  H
  H38      1.0000 0.43170  0.55290  0.06780  Biso   1.000  H
  H39      1.0000 0.43170  0.94710  0.56780  Biso   1.000  H
  H40      1.0000 0.56830  0.44710  0.93220  Biso   1.000  H
  C45      1.0000 0.83170  0.48884  0.71100  Biso   1.000  C
  C46      1.0000 0.16830  0.98884  0.78900  Biso   1.000  C
  C47      1.0000 0.16830  0.51116  0.28900  Biso   1.000  C
  C48      1.0000 0.83170  0.01116  0.21100  Biso   1.000  C
  H41      1.0000 0.78440  0.50230  0.81240  Biso   1.000  H
  H42      1.0000 0.21560  0.00230  0.68760  Biso   1.000  H
  H43      1.0000 0.21560  0.49770  0.18760  Biso   1.000  H
  H44      1.0000 0.78440  0.99770  0.31240  Biso   1.000  H
  H45      1.0000 0.95090  0.50180  0.75340  Biso   1.000  H
  H46      1.0000 0.04910  0.00180  0.74660  Biso   1.000  H
  H47      1.0000 0.04910  0.49820  0.24660  Biso   1.000  H
  H48      1.0000 0.95090  0.99820  0.25340  Biso   1.000  H
