data_image0
_cell_length_a       8.7895
_cell_length_b       19.1727
_cell_length_c       7.1261
_cell_angle_alpha    90
_cell_angle_beta     108.832
_cell_angle_gamma    90

_symmetry_space_group_name_H-M    "P 1"
_symmetry_int_tables_number       1

loop_
  _symmetry_equiv_pos_as_xyz
  'x, y, z'

loop_
  _atom_site_label
  _atom_site_occupancy
  _atom_site_fract_x
  _atom_site_fract_y
  _atom_site_fract_z
  _atom_site_thermal_displace_type
  _atom_site_B_iso_or_equiv
  _atom_site_type_symbol
  Cu1      1.0000 0.32917  0.30044  0.72881  Biso   1.000  Cu
  Cu2      1.0000 0.67083  0.80044  0.77119  Biso   1.000  Cu
  Cu3      1.0000 0.67083  0.69956  0.27119  Biso   1.000  Cu
  Cu4      1.0000 0.32917  0.19956  0.22881  Biso   1.000  Cu
  Cl1      1.0000 0.18629  0.40195  0.64564  Biso   1.000  Cl
  Cl2      1.0000 0.81371  0.90195  0.85436  Biso   1.000  Cl
  Cl3      1.0000 0.81371  0.59805  0.35436  Biso   1.000  Cl
  Cl4      1.0000 0.18629  0.09805  0.14564  Biso   1.000  Cl
  N1       1.0000 0.53480  0.35117  0.87260  Biso   1.000  N
  N2       1.0000 0.46520  0.85117  0.62740  Biso   1.000  N
  N3       1.0000 0.46520  0.64883  0.12740  Biso   1.000  N
  N4       1.0000 0.53480  0.14883  0.37260  Biso   1.000  N
  C1       1.0000 0.66450  0.30960  0.95700  Biso   1.000  C
  C2       1.0000 0.33550  0.80960  0.54300  Biso   1.000  C
  C3       1.0000 0.33550  0.69040  0.04300  Biso   1.000  C
  C4       1.0000 0.66450  0.19040  0.45700  Biso   1.000  C
  Cl5      1.0000 0.16126  0.25816  0.95966  Biso   1.000  Cl
  Cl6      1.0000 0.83874  0.75816  0.54034  Biso   1.000  Cl
  Cl7      1.0000 0.83874  0.74184  0.04034  Biso   1.000  Cl
  Cl8      1.0000 0.16126  0.24184  0.45966  Biso   1.000  Cl
  N5       1.0000 0.47380  0.21949  0.82600  Biso   1.000  N
  N6       1.0000 0.52620  0.71949  0.67400  Biso   1.000  N
  N7       1.0000 0.52620  0.78051  0.17400  Biso   1.000  N
  N8       1.0000 0.47380  0.28051  0.32600  Biso   1.000  N
  C5       1.0000 0.81570  0.33576  0.05420  Biso   1.000  C
  C6       1.0000 0.18430  0.83576  0.44580  Biso   1.000  C
  C7       1.0000 0.18430  0.66424  0.94580  Biso   1.000  C
  C8       1.0000 0.81570  0.16424  0.55420  Biso   1.000  C
  H1       1.0000 0.89200  0.30800  0.11900  Biso   1.000  H
  H2       1.0000 0.10800  0.80800  0.38100  Biso   1.000  H
  H3       1.0000 0.10800  0.69200  0.88100  Biso   1.000  H
  H4       1.0000 0.89200  0.19200  0.61900  Biso   1.000  H
  N9       1.0000 0.98890  0.43549  0.15620  Biso   1.000  N
  N10      1.0000 0.01110  0.93549  0.34380  Biso   1.000  N
  N11      1.0000 0.01110  0.56451  0.84380  Biso   1.000  N
  N12      1.0000 0.98890  0.06451  0.65620  Biso   1.000  N
  C9       1.0000 0.84030  0.40820  0.06520  Biso   1.000  C
  C10      1.0000 0.15970  0.90820  0.43480  Biso   1.000  C
  C11      1.0000 0.15970  0.59180  0.93480  Biso   1.000  C
  C12      1.0000 0.84030  0.09180  0.56520  Biso   1.000  C
  N13      1.0000 0.80710  0.06137  0.04180  Biso   1.000  N
  N14      1.0000 0.19290  0.56137  0.45820  Biso   1.000  N
  N15      1.0000 0.19290  0.93863  0.95820  Biso   1.000  N
  N16      1.0000 0.80710  0.43863  0.54180  Biso   1.000  N
  C13      1.0000 0.70670  0.45062  0.97640  Biso   1.000  C
  C14      1.0000 0.29330  0.95062  0.52360  Biso   1.000  C
  C15      1.0000 0.29330  0.54938  0.02360  Biso   1.000  C
  C16      1.0000 0.70670  0.04938  0.47640  Biso   1.000  C
  H5       1.0000 0.71700  0.49900  0.98800  Biso   1.000  H
  H6       1.0000 0.28300  0.99900  0.51200  Biso   1.000  H
  H7       1.0000 0.28300  0.50100  0.01200  Biso   1.000  H
  H8       1.0000 0.71700  0.00100  0.48800  Biso   1.000  H
  C17      1.0000 0.56000  0.42038  0.88510  Biso   1.000  C
  C18      1.0000 0.44000  0.92038  0.61490  Biso   1.000  C
  C19      1.0000 0.44000  0.57962  0.11490  Biso   1.000  C
  C20      1.0000 0.56000  0.07962  0.38510  Biso   1.000  C
  H9       1.0000 0.46700  0.45000  0.81900  Biso   1.000  H
  H10      1.0000 0.53300  0.95000  0.68100  Biso   1.000  H
  H11      1.0000 0.53300  0.55000  0.18100  Biso   1.000  H
  H12      1.0000 0.46700  0.05000  0.31900  Biso   1.000  H
  C21      1.0000 0.62850  0.23414  0.93300  Biso   1.000  C
  C22      1.0000 0.37150  0.73414  0.56700  Biso   1.000  C
  C23      1.0000 0.37150  0.76586  0.06700  Biso   1.000  C
  C24      1.0000 0.62850  0.26586  0.43300  Biso   1.000  C
  C25      1.0000 0.74170  0.18274  0.00780  Biso   1.000  C
  C26      1.0000 0.25830  0.68274  0.49220  Biso   1.000  C
  C27      1.0000 0.25830  0.81726  0.99220  Biso   1.000  C
  C28      1.0000 0.74170  0.31726  0.50780  Biso   1.000  C
  H13      1.0000 0.84910  0.19490  0.08150  Biso   1.000  H
  H14      1.0000 0.15090  0.69490  0.41850  Biso   1.000  H
  H15      1.0000 0.15090  0.80510  0.91850  Biso   1.000  H
  H16      1.0000 0.84910  0.30510  0.58150  Biso   1.000  H
  C29      1.0000 0.69760  0.11258  0.97470  Biso   1.000  C
  C30      1.0000 0.30240  0.61258  0.52530  Biso   1.000  C
  C31      1.0000 0.30240  0.88742  0.02530  Biso   1.000  C
  C32      1.0000 0.69760  0.38742  0.47470  Biso   1.000  C
  C33      1.0000 0.53480  0.09774  0.87160  Biso   1.000  C
  C34      1.0000 0.46520  0.59774  0.62840  Biso   1.000  C
  C35      1.0000 0.46520  0.90226  0.12840  Biso   1.000  C
  C36      1.0000 0.53480  0.40226  0.37160  Biso   1.000  C
  H17      1.0000 0.49700  0.05300  0.85100  Biso   1.000  H
  H18      1.0000 0.50300  0.55300  0.64900  Biso   1.000  H
  H19      1.0000 0.50300  0.94700  0.14900  Biso   1.000  H
  H20      1.0000 0.49700  0.44700  0.35100  Biso   1.000  H
  C37      1.0000 0.43090  0.15218  0.80010  Biso   1.000  C
  C38      1.0000 0.56910  0.65218  0.69990  Biso   1.000  C
  C39      1.0000 0.56910  0.84782  0.19990  Biso   1.000  C
  C40      1.0000 0.43090  0.34782  0.30010  Biso   1.000  C
  H21      1.0000 0.32400  0.14100  0.71700  Biso   1.000  H
  H22      1.0000 0.67600  0.64100  0.78300  Biso   1.000  H
  H23      1.0000 0.67600  0.85900  0.28300  Biso   1.000  H
  H24      1.0000 0.32400  0.35900  0.21700  Biso   1.000  H
  H25      1.0000 0.99700  0.47900  0.19000  Biso   1.000  H
  H26      1.0000 0.00300  0.97900  0.31000  Biso   1.000  H
  H27      1.0000 0.00300  0.52100  0.81000  Biso   1.000  H
  H28      1.0000 0.99700  0.02100  0.69000  Biso   1.000  H
  H29      1.0000 0.92400  0.07200  0.06800  Biso   1.000  H
  H30      1.0000 0.07600  0.57200  0.43200  Biso   1.000  H
  H31      1.0000 0.07600  0.92800  0.93200  Biso   1.000  H
  H32      1.0000 0.92400  0.42800  0.56800  Biso   1.000  H
  H33      1.0000 0.05800  0.41200  0.24300  Biso   1.000  H
  H34      1.0000 0.94200  0.91200  0.25700  Biso   1.000  H
  H35      1.0000 0.94200  0.58800  0.75700  Biso   1.000  H
  H36      1.0000 0.05800  0.08800  0.74300  Biso   1.000  H
  H37      1.0000 0.78600  0.02200  0.99900  Biso   1.000  H
  H38      1.0000 0.21400  0.52200  0.50100  Biso   1.000  H
  H39      1.0000 0.21400  0.97800  0.00100  Biso   1.000  H
  H40      1.0000 0.78600  0.47800  0.49900  Biso   1.000  H
