data_image0
_cell_length_a       10.855
_cell_length_b       15.576
_cell_length_c       13.577
_cell_angle_alpha    90
_cell_angle_beta     96.017
_cell_angle_gamma    90

_symmetry_space_group_name_H-M    "P 1"
_symmetry_int_tables_number       1

loop_
  _symmetry_equiv_pos_as_xyz
  'x, y, z'

loop_
  _atom_site_label
  _atom_site_occupancy
  _atom_site_fract_x
  _atom_site_fract_y
  _atom_site_fract_z
  _atom_site_thermal_displace_type
  _atom_site_B_iso_or_equiv
  _atom_site_type_symbol
  Cu1      1.0000 0.85641  0.99660  0.26504  Biso   1.000  Cu
  Cu2      1.0000 0.64359  0.49660  0.23496  Biso   1.000  Cu
  Cu3      1.0000 0.14359  0.00340  0.73496  Biso   1.000  Cu
  Cu4      1.0000 0.35641  0.50340  0.76504  Biso   1.000  Cu
  Ca1      1.0000 0.50000  0.00000  0.50000  Biso   1.000  Ca
  Ca2      1.0000 0.00000  0.50000  0.00000  Biso   1.000  Ca
  S1       1.0000 0.17507  0.16236  0.88408  Biso   1.000  S
  S2       1.0000 0.32493  0.66236  0.61592  Biso   1.000  S
  S3       1.0000 0.82493  0.83764  0.11592  Biso   1.000  S
  S4       1.0000 0.67507  0.33764  0.38408  Biso   1.000  S
  O1       1.0000 0.14080  0.95760  0.28500  Biso   1.000  O
  O2       1.0000 0.35920  0.45760  0.21500  Biso   1.000  O
  O3       1.0000 0.85920  0.04240  0.71500  Biso   1.000  O
  O4       1.0000 0.64080  0.54240  0.78500  Biso   1.000  O
  O5       1.0000 0.98760  0.00900  0.17970  Biso   1.000  O
  O6       1.0000 0.51240  0.50900  0.32030  Biso   1.000  O
  O7       1.0000 0.01240  0.99100  0.82030  Biso   1.000  O
  O8       1.0000 0.48760  0.49100  0.67970  Biso   1.000  O
  O9       1.0000 0.04360  0.16900  0.88530  Biso   1.000  O
  O10      1.0000 0.45640  0.66900  0.61470  Biso   1.000  O
  O11      1.0000 0.95640  0.83100  0.11470  Biso   1.000  O
  O12      1.0000 0.54360  0.33100  0.38530  Biso   1.000  O
  O13      1.0000 0.24520  0.24150  0.89600  Biso   1.000  O
  O14      1.0000 0.25480  0.74150  0.60400  Biso   1.000  O
  O15      1.0000 0.75480  0.75850  0.10400  Biso   1.000  O
  O16      1.0000 0.74520  0.25850  0.39600  Biso   1.000  O
  O17      1.0000 0.27720  0.01700  0.64860  Biso   1.000  O
  O18      1.0000 0.22280  0.51700  0.85140  Biso   1.000  O
  O19      1.0000 0.72280  0.98300  0.35140  Biso   1.000  O
  O20      1.0000 0.77720  0.48300  0.14860  Biso   1.000  O
  O21      1.0000 0.44830  0.08710  0.62950  Biso   1.000  O
  O22      1.0000 0.05170  0.58710  0.87050  Biso   1.000  O
  O23      1.0000 0.55170  0.91290  0.37050  Biso   1.000  O
  O24      1.0000 0.94830  0.41290  0.12950  Biso   1.000  O
  O25      1.0000 0.33150  0.05260  0.39980  Biso   1.000  O
  O26      1.0000 0.16850  0.55260  0.10020  Biso   1.000  O
  O27      1.0000 0.66850  0.94740  0.60020  Biso   1.000  O
  O28      1.0000 0.83150  0.44740  0.89980  Biso   1.000  O
  H1       1.0000 0.27740  0.01880  0.37460  Biso   1.000  H
  H2       1.0000 0.22260  0.51880  0.12540  Biso   1.000  H
  H3       1.0000 0.72260  0.98120  0.62540  Biso   1.000  H
  H4       1.0000 0.77740  0.48120  0.87460  Biso   1.000  H
  H5       1.0000 0.33520  0.09620  0.36470  Biso   1.000  H
  H6       1.0000 0.16480  0.59620  0.13530  Biso   1.000  H
  H7       1.0000 0.66480  0.90380  0.63530  Biso   1.000  H
  H8       1.0000 0.83520  0.40380  0.86470  Biso   1.000  H
  O29      1.0000 0.61860  0.11640  0.46990  Biso   1.000  O
  O30      1.0000 0.88140  0.61640  0.03010  Biso   1.000  O
  O31      1.0000 0.38140  0.88360  0.53010  Biso   1.000  O
  O32      1.0000 0.11860  0.38360  0.96990  Biso   1.000  O
  H9       1.0000 0.67930  0.10460  0.43930  Biso   1.000  H
  H10      1.0000 0.82070  0.60460  0.06070  Biso   1.000  H
  H11      1.0000 0.32070  0.89540  0.56070  Biso   1.000  H
  H12      1.0000 0.17930  0.39540  0.93930  Biso   1.000  H
  H13      1.0000 0.64130  0.13780  0.52500  Biso   1.000  H
  H14      1.0000 0.85870  0.63780  0.97500  Biso   1.000  H
  H15      1.0000 0.35870  0.86220  0.47500  Biso   1.000  H
  H16      1.0000 0.14130  0.36220  0.02500  Biso   1.000  H
  O33      1.0000 0.13850  0.70700  0.18500  Biso   1.000  O
  O34      1.0000 0.36150  0.20700  0.31500  Biso   1.000  O
  O35      1.0000 0.86150  0.29300  0.81500  Biso   1.000  O
  O36      1.0000 0.63850  0.79300  0.68500  Biso   1.000  O
  H17      1.0000 0.08340  0.74330  0.16390  Biso   1.000  H
  H18      1.0000 0.41660  0.24330  0.33610  Biso   1.000  H
  H19      1.0000 0.91660  0.25670  0.83610  Biso   1.000  H
  H20      1.0000 0.58340  0.75670  0.66390  Biso   1.000  H
  H21      1.0000 0.18760  0.73890  0.22170  Biso   1.000  H
  H22      1.0000 0.31240  0.23890  0.27830  Biso   1.000  H
  H23      1.0000 0.81240  0.26110  0.77830  Biso   1.000  H
  H24      1.0000 0.68760  0.76110  0.72170  Biso   1.000  H
  O37      1.0000 0.30260  0.81530  0.30880  Biso   1.000  O
  O38      1.0000 0.19740  0.31530  0.19120  Biso   1.000  O
  O39      1.0000 0.69740  0.18470  0.69120  Biso   1.000  O
  O40      1.0000 0.80260  0.68470  0.80880  Biso   1.000  O
  H25      1.0000 0.22390  0.82020  0.32040  Biso   1.000  H
  H26      1.0000 0.27610  0.32020  0.17960  Biso   1.000  H
  H27      1.0000 0.77610  0.17980  0.67960  Biso   1.000  H
  H28      1.0000 0.72390  0.67980  0.82040  Biso   1.000  H
  H29      1.0000 0.37030  0.84140  0.32590  Biso   1.000  H
  H30      1.0000 0.12970  0.34140  0.17410  Biso   1.000  H
  H31      1.0000 0.62970  0.15860  0.67410  Biso   1.000  H
  H32      1.0000 0.87030  0.65860  0.82590  Biso   1.000  H
  N1       1.0000 0.74530  0.10150  0.16950  Biso   1.000  N
  N2       1.0000 0.75470  0.60150  0.33050  Biso   1.000  N
  N3       1.0000 0.25470  0.89850  0.83050  Biso   1.000  N
  N4       1.0000 0.24530  0.39850  0.66950  Biso   1.000  N
  N5       1.0000 0.43270  0.41310  0.85890  Biso   1.000  N
  N6       1.0000 0.06730  0.91310  0.64110  Biso   1.000  N
  N7       1.0000 0.56730  0.58690  0.14110  Biso   1.000  N
  N8       1.0000 0.93270  0.08690  0.35890  Biso   1.000  N
  N9       1.0000 0.20720  0.11460  0.78880  Biso   1.000  N
  N10      1.0000 0.29280  0.61460  0.71120  Biso   1.000  N
  N11      1.0000 0.79280  0.88540  0.21120  Biso   1.000  N
  N12      1.0000 0.70720  0.38540  0.28880  Biso   1.000  N
  C1       1.0000 0.09880  0.99190  0.20610  Biso   1.000  C
  C2       1.0000 0.40120  0.49190  0.29390  Biso   1.000  C
  C3       1.0000 0.90120  0.00810  0.79390  Biso   1.000  C
  C4       1.0000 0.59880  0.50810  0.70610  Biso   1.000  C
  C5       1.0000 0.18740  0.01920  0.13270  Biso   1.000  C
  C6       1.0000 0.31260  0.51920  0.36730  Biso   1.000  C
  C7       1.0000 0.81260  0.98080  0.86730  Biso   1.000  C
  C8       1.0000 0.68740  0.48080  0.63270  Biso   1.000  C
  C9       1.0000 0.31290  0.00140  0.15150  Biso   1.000  C
  C10      1.0000 0.18710  0.50140  0.34850  Biso   1.000  C
  C11      1.0000 0.68710  0.99860  0.84850  Biso   1.000  C
  C12      1.0000 0.81290  0.49860  0.65150  Biso   1.000  C
  H33      1.0000 0.34210  0.96830  0.20600  Biso   1.000  H
  H34      1.0000 0.15790  0.46830  0.29400  Biso   1.000  H
  H35      1.0000 0.65790  0.03170  0.79400  Biso   1.000  H
  H36      1.0000 0.84210  0.53170  0.70600  Biso   1.000  H
  C13      1.0000 0.39370  0.03300  0.08930  Biso   1.000  C
  C14      1.0000 0.10630  0.53300  0.41070  Biso   1.000  C
  C15      1.0000 0.60630  0.96700  0.91070  Biso   1.000  C
  C16      1.0000 0.89370  0.46700  0.58930  Biso   1.000  C
  H37      1.0000 0.47770  0.02060  0.10150  Biso   1.000  H
  H38      1.0000 0.02230  0.52060  0.39850  Biso   1.000  H
  H39      1.0000 0.52230  0.97940  0.89850  Biso   1.000  H
  H40      1.0000 0.97770  0.47940  0.60150  Biso   1.000  H
  C17      1.0000 0.35230  0.08220  0.01030  Biso   1.000  C
  C18      1.0000 0.14770  0.58220  0.48970  Biso   1.000  C
  C19      1.0000 0.64770  0.91780  0.98970  Biso   1.000  C
  C20      1.0000 0.85230  0.41780  0.51030  Biso   1.000  C
  H41      1.0000 0.40850  0.10520  0.97030  Biso   1.000  H
  H42      1.0000 0.09150  0.60520  0.52970  Biso   1.000  H
  H43      1.0000 0.59150  0.89480  0.02970  Biso   1.000  H
  H44      1.0000 0.90850  0.39480  0.47030  Biso   1.000  H
  C21      1.0000 0.22850  0.09810  0.98890  Biso   1.000  C
  C22      1.0000 0.27150  0.59810  0.51110  Biso   1.000  C
  C23      1.0000 0.77150  0.90190  0.01110  Biso   1.000  C
  C24      1.0000 0.72850  0.40190  0.48890  Biso   1.000  C
  C25      1.0000 0.14480  0.06630  0.05080  Biso   1.000  C
  C26      1.0000 0.35520  0.56630  0.44920  Biso   1.000  C
  C27      1.0000 0.85520  0.93370  0.94920  Biso   1.000  C
  C28      1.0000 0.64480  0.43370  0.55080  Biso   1.000  C
  H45      1.0000 0.06050  0.07700  0.03680  Biso   1.000  H
  H46      1.0000 0.43950  0.57700  0.46320  Biso   1.000  H
  H47      1.0000 0.93950  0.92300  0.96320  Biso   1.000  H
  H48      1.0000 0.56050  0.42300  0.53680  Biso   1.000  H
  C29      1.0000 0.32380  0.13770  0.75060  Biso   1.000  C
  C30      1.0000 0.17620  0.63770  0.74940  Biso   1.000  C
  C31      1.0000 0.67620  0.86230  0.24940  Biso   1.000  C
  C32      1.0000 0.82380  0.36230  0.25060  Biso   1.000  C
  H49      1.0000 0.39060  0.13570  0.80400  Biso   1.000  H
  H50      1.0000 0.10940  0.63570  0.69600  Biso   1.000  H
  H51      1.0000 0.60940  0.86430  0.19600  Biso   1.000  H
  H52      1.0000 0.89060  0.36430  0.30400  Biso   1.000  H
  H53      1.0000 0.31830  0.19580  0.72490  Biso   1.000  H
  H54      1.0000 0.18170  0.69580  0.77510  Biso   1.000  H
  H55      1.0000 0.68170  0.80420  0.27510  Biso   1.000  H
  H56      1.0000 0.81830  0.30420  0.22490  Biso   1.000  H
  C33      1.0000 0.35100  0.07790  0.67110  Biso   1.000  C
  C34      1.0000 0.14900  0.57790  0.82890  Biso   1.000  C
  C35      1.0000 0.64900  0.92210  0.32890  Biso   1.000  C
  C36      1.0000 0.85100  0.42210  0.17110  Biso   1.000  C
  C37      1.0000 0.42880  0.41570  0.95740  Biso   1.000  C
  C38      1.0000 0.07120  0.91570  0.54260  Biso   1.000  C
  C39      1.0000 0.57120  0.58430  0.04260  Biso   1.000  C
  C40      1.0000 0.92880  0.08430  0.45740  Biso   1.000  C
  H57      1.0000 0.38270  0.45910  0.98310  Biso   1.000  H
  H58      1.0000 0.11730  0.95910  0.51690  Biso   1.000  H
  H59      1.0000 0.61730  0.54090  0.01690  Biso   1.000  H
  H60      1.0000 0.88270  0.04090  0.48310  Biso   1.000  H
  C41      1.0000 0.48890  0.35810  0.02260  Biso   1.000  C
  C42      1.0000 0.01110  0.85810  0.47740  Biso   1.000  C
  C43      1.0000 0.51110  0.64190  0.97740  Biso   1.000  C
  C44      1.0000 0.98890  0.14190  0.52260  Biso   1.000  C
  H61      1.0000 0.48400  0.36310  0.09030  Biso   1.000  H
  H62      1.0000 0.01600  0.86310  0.40970  Biso   1.000  H
  H63      1.0000 0.51600  0.63690  0.90970  Biso   1.000  H
  H64      1.0000 0.98400  0.13690  0.59030  Biso   1.000  H
  C45      1.0000 0.55650  0.29280  0.98590  Biso   1.000  C
  C46      1.0000 0.94350  0.79280  0.51410  Biso   1.000  C
  C47      1.0000 0.44350  0.70720  0.01410  Biso   1.000  C
  C48      1.0000 0.05650  0.20720  0.48590  Biso   1.000  C
  C49      1.0000 0.55860  0.28670  0.88350  Biso   1.000  C
  C50      1.0000 0.94140  0.78670  0.61650  Biso   1.000  C
  C51      1.0000 0.44140  0.71330  0.11650  Biso   1.000  C
  C52      1.0000 0.05860  0.21330  0.38350  Biso   1.000  C
  H65      1.0000 0.59990  0.24200  0.85570  Biso   1.000  H
  H66      1.0000 0.90010  0.74200  0.64430  Biso   1.000  H
  H67      1.0000 0.40010  0.75800  0.14430  Biso   1.000  H
  H68      1.0000 0.09990  0.25800  0.35570  Biso   1.000  H
  C53      1.0000 0.49740  0.34910  0.82460  Biso   1.000  C
  C54      1.0000 0.00260  0.84910  0.67540  Biso   1.000  C
  C55      1.0000 0.50260  0.65090  0.17540  Biso   1.000  C
  C56      1.0000 0.99740  0.15090  0.32460  Biso   1.000  C
  H69      1.0000 0.50170  0.34610  0.75660  Biso   1.000  H
  H70      1.0000 0.99830  0.84610  0.74340  Biso   1.000  H
  H71      1.0000 0.49830  0.65390  0.24340  Biso   1.000  H
  H72      1.0000 0.00170  0.15390  0.25660  Biso   1.000  H
  C57      1.0000 0.62520  0.22880  0.05110  Biso   1.000  C
  C58      1.0000 0.87480  0.72880  0.44890  Biso   1.000  C
  C59      1.0000 0.37480  0.77120  0.94890  Biso   1.000  C
  C60      1.0000 0.12520  0.27120  0.55110  Biso   1.000  C
  C61      1.0000 0.58520  0.20530  0.14210  Biso   1.000  C
  C62      1.0000 0.91480  0.70530  0.35790  Biso   1.000  C
  C63      1.0000 0.41480  0.79470  0.85790  Biso   1.000  C
  C64      1.0000 0.08520  0.29470  0.64210  Biso   1.000  C
  H73      1.0000 0.51610  0.23130  0.16430  Biso   1.000  H
  H74      1.0000 0.98390  0.73130  0.33570  Biso   1.000  H
  H75      1.0000 0.48390  0.76870  0.83570  Biso   1.000  H
  H76      1.0000 0.01610  0.26870  0.66430  Biso   1.000  H
  C65      1.0000 0.64820  0.14460  0.19670  Biso   1.000  C
  C66      1.0000 0.85180  0.64460  0.30330  Biso   1.000  C
  C67      1.0000 0.35180  0.85540  0.80330  Biso   1.000  C
  C68      1.0000 0.14820  0.35540  0.69670  Biso   1.000  C
  H77      1.0000 0.62210  0.13170  0.25810  Biso   1.000  H
  H78      1.0000 0.87790  0.63170  0.24190  Biso   1.000  H
  H79      1.0000 0.37790  0.86830  0.74190  Biso   1.000  H
  H80      1.0000 0.12210  0.36830  0.75810  Biso   1.000  H
  C69      1.0000 0.78260  0.12410  0.08450  Biso   1.000  C
  C70      1.0000 0.71740  0.62410  0.41550  Biso   1.000  C
  C71      1.0000 0.21740  0.87590  0.91550  Biso   1.000  C
  C72      1.0000 0.28260  0.37590  0.58450  Biso   1.000  C
  H81      1.0000 0.85220  0.09670  0.06500  Biso   1.000  H
  H82      1.0000 0.64780  0.59670  0.43500  Biso   1.000  H
  H83      1.0000 0.14780  0.90330  0.93500  Biso   1.000  H
  H84      1.0000 0.35220  0.40330  0.56500  Biso   1.000  H
  C73      1.0000 0.72700  0.18490  0.02240  Biso   1.000  C
  C74      1.0000 0.77300  0.68490  0.47760  Biso   1.000  C
  C75      1.0000 0.27300  0.81510  0.97760  Biso   1.000  C
  C76      1.0000 0.22700  0.31510  0.52240  Biso   1.000  C
  H85      1.0000 0.75670  0.19660  0.96210  Biso   1.000  H
  H86      1.0000 0.74330  0.69660  0.53790  Biso   1.000  H
  H87      1.0000 0.24330  0.80340  0.03790  Biso   1.000  H
  H88      1.0000 0.25670  0.30340  0.46210  Biso   1.000  H
