data_image0
_cell_length_a       6.422
_cell_length_b       17.547
_cell_length_c       15.14
_cell_angle_alpha    90
_cell_angle_beta     100.063
_cell_angle_gamma    90

_symmetry_space_group_name_H-M    "P 1"
_symmetry_int_tables_number       1

loop_
  _symmetry_equiv_pos_as_xyz
  'x, y, z'

loop_
  _atom_site_label
  _atom_site_occupancy
  _atom_site_fract_x
  _atom_site_fract_y
  _atom_site_fract_z
  _atom_site_thermal_displace_type
  _atom_site_B_iso_or_equiv
  _atom_site_type_symbol
  Cu1      1.0000 0.25393  0.64000  0.70362  Biso   1.000  Cu
  Cu2      1.0000 0.74607  0.14000  0.79638  Biso   1.000  Cu
  Cu3      1.0000 0.74607  0.36000  0.29638  Biso   1.000  Cu
  Cu4      1.0000 0.25393  0.86000  0.20362  Biso   1.000  Cu
  N1       1.0000 0.19760  0.36494  0.69350  Biso   1.000  N
  N2       1.0000 0.80240  0.86494  0.80650  Biso   1.000  N
  N3       1.0000 0.80240  0.63506  0.30650  Biso   1.000  N
  N4       1.0000 0.19760  0.13506  0.19350  Biso   1.000  N
  C1       1.0000 0.08310  0.40900  0.73600  Biso   1.000  C
  C2       1.0000 0.91690  0.90900  0.76400  Biso   1.000  C
  C3       1.0000 0.91690  0.59100  0.26400  Biso   1.000  C
  C4       1.0000 0.08310  0.09100  0.23600  Biso   1.000  C
  C5       1.0000 0.10990  0.48960  0.74040  Biso   1.000  C
  C6       1.0000 0.89010  0.98960  0.75960  Biso   1.000  C
  C7       1.0000 0.89010  0.51040  0.25960  Biso   1.000  C
  C8       1.0000 0.10990  0.01040  0.24040  Biso   1.000  C
  H1       1.0000 0.01840  0.51910  0.76980  Biso   1.000  H
  H2       1.0000 0.98160  0.01910  0.73020  Biso   1.000  H
  H3       1.0000 0.98160  0.48090  0.23020  Biso   1.000  H
  H4       1.0000 0.01840  0.98090  0.26980  Biso   1.000  H
  N5       1.0000 0.25630  0.52429  0.70520  Biso   1.000  N
  N6       1.0000 0.74370  0.02429  0.79480  Biso   1.000  N
  N7       1.0000 0.74370  0.47571  0.29480  Biso   1.000  N
  N8       1.0000 0.25630  0.97571  0.20520  Biso   1.000  N
  C9       1.0000 0.38650  0.47940  0.66330  Biso   1.000  C
  C10      1.0000 0.61350  0.97940  0.83670  Biso   1.000  C
  C11      1.0000 0.61350  0.52060  0.33670  Biso   1.000  C
  C12      1.0000 0.38650  0.02060  0.16330  Biso   1.000  C
  C13      1.0000 0.55460  0.51220  0.62750  Biso   1.000  C
  C14      1.0000 0.44540  0.01220  0.87250  Biso   1.000  C
  C15      1.0000 0.44540  0.48780  0.37250  Biso   1.000  C
  C16      1.0000 0.55460  0.98780  0.12750  Biso   1.000  C
  H5       1.0000 0.58220  0.56530  0.63340  Biso   1.000  H
  H6       1.0000 0.41780  0.06530  0.86660  Biso   1.000  H
  H7       1.0000 0.41780  0.43470  0.36660  Biso   1.000  H
  H8       1.0000 0.58220  0.93470  0.13340  Biso   1.000  H
  C17      1.0000 0.67730  0.46660  0.58400  Biso   1.000  C
  C18      1.0000 0.32270  0.96660  0.91600  Biso   1.000  C
  C19      1.0000 0.32270  0.53340  0.41600  Biso   1.000  C
  C20      1.0000 0.67730  0.03340  0.08400  Biso   1.000  C
  H9       1.0000 0.78950  0.48880  0.55950  Biso   1.000  H
  H10      1.0000 0.21050  0.98880  0.94050  Biso   1.000  H
  H11      1.0000 0.21050  0.51120  0.44050  Biso   1.000  H
  H12      1.0000 0.78950  0.01120  0.05950  Biso   1.000  H
  C21      1.0000 0.64100  0.38710  0.57480  Biso   1.000  C
  C22      1.0000 0.35900  0.88710  0.92520  Biso   1.000  C
  C23      1.0000 0.35900  0.61290  0.42520  Biso   1.000  C
  C24      1.0000 0.64100  0.11290  0.07480  Biso   1.000  C
  H13      1.0000 0.72730  0.35660  0.54390  Biso   1.000  H
  H14      1.0000 0.27270  0.85660  0.95610  Biso   1.000  H
  H15      1.0000 0.27270  0.64340  0.45610  Biso   1.000  H
  H16      1.0000 0.72730  0.14340  0.04390  Biso   1.000  H
  C25      1.0000 0.48200  0.35450  0.61050  Biso   1.000  C
  C26      1.0000 0.51800  0.85450  0.88950  Biso   1.000  C
  C27      1.0000 0.51800  0.64550  0.38950  Biso   1.000  C
  C28      1.0000 0.48200  0.14550  0.11050  Biso   1.000  C
  H17      1.0000 0.45810  0.30120  0.60480  Biso   1.000  H
  H18      1.0000 0.54190  0.80120  0.89520  Biso   1.000  H
  H19      1.0000 0.54190  0.69880  0.39520  Biso   1.000  H
  H20      1.0000 0.45810  0.19880  0.10480  Biso   1.000  H
  C29      1.0000 0.35240  0.39950  0.65600  Biso   1.000  C
  C30      1.0000 0.64760  0.89950  0.84400  Biso   1.000  C
  C31      1.0000 0.64760  0.60050  0.34400  Biso   1.000  C
  C32      1.0000 0.35240  0.10050  0.15600  Biso   1.000  C
  N9       1.0000 0.80240  0.41555  0.82300  Biso   1.000  N
  N10      1.0000 0.19760  0.91555  0.67700  Biso   1.000  N
  N11      1.0000 0.19760  0.58445  0.17700  Biso   1.000  N
  N12      1.0000 0.80240  0.08445  0.32300  Biso   1.000  N
  C33      1.0000 0.92010  0.37230  0.77970  Biso   1.000  C
  C34      1.0000 0.07990  0.87230  0.72030  Biso   1.000  C
  C35      1.0000 0.07990  0.62770  0.22030  Biso   1.000  C
  C36      1.0000 0.92010  0.12770  0.27970  Biso   1.000  C
  C37      1.0000 0.89500  0.29220  0.77310  Biso   1.000  C
  C38      1.0000 0.10500  0.79220  0.72690  Biso   1.000  C
  C39      1.0000 0.10500  0.70780  0.22690  Biso   1.000  C
  C40      1.0000 0.89500  0.20780  0.27310  Biso   1.000  C
  H21      1.0000 0.98730  0.26380  0.74300  Biso   1.000  H
  H22      1.0000 0.01270  0.76380  0.75700  Biso   1.000  H
  H23      1.0000 0.01270  0.73620  0.25700  Biso   1.000  H
  H24      1.0000 0.98730  0.23620  0.24300  Biso   1.000  H
  N13      1.0000 0.74900  0.25579  0.80710  Biso   1.000  N
  N14      1.0000 0.25100  0.75579  0.69290  Biso   1.000  N
  N15      1.0000 0.25100  0.74421  0.19290  Biso   1.000  N
  N16      1.0000 0.74900  0.24421  0.30710  Biso   1.000  N
  C41      1.0000 0.62080  0.29840  0.85230  Biso   1.000  C
  C42      1.0000 0.37920  0.79840  0.64770  Biso   1.000  C
  C43      1.0000 0.37920  0.70160  0.14770  Biso   1.000  C
  C44      1.0000 0.62080  0.20160  0.35230  Biso   1.000  C
  C45      1.0000 0.46210  0.26390  0.89120  Biso   1.000  C
  C46      1.0000 0.53790  0.76390  0.60880  Biso   1.000  C
  C47      1.0000 0.53790  0.73610  0.10880  Biso   1.000  C
  C48      1.0000 0.46210  0.23610  0.39120  Biso   1.000  C
  H25      1.0000 0.44040  0.21040  0.88630  Biso   1.000  H
  H26      1.0000 0.55960  0.71040  0.61370  Biso   1.000  H
  H27      1.0000 0.55960  0.78960  0.11370  Biso   1.000  H
  H28      1.0000 0.44040  0.28960  0.38630  Biso   1.000  H
  C49      1.0000 0.33780  0.30770  0.93650  Biso   1.000  C
  C50      1.0000 0.66220  0.80770  0.56350  Biso   1.000  C
  C51      1.0000 0.66220  0.69230  0.06350  Biso   1.000  C
  C52      1.0000 0.33780  0.19230  0.43650  Biso   1.000  C
  H29      1.0000 0.23130  0.28390  0.96320  Biso   1.000  H
  H30      1.0000 0.76870  0.78390  0.53680  Biso   1.000  H
  H31      1.0000 0.76870  0.71610  0.03680  Biso   1.000  H
  H32      1.0000 0.23130  0.21610  0.46320  Biso   1.000  H
  C53      1.0000 0.36540  0.38690  0.94390  Biso   1.000  C
  C54      1.0000 0.63460  0.88690  0.55610  Biso   1.000  C
  C55      1.0000 0.63460  0.61310  0.05610  Biso   1.000  C
  C56      1.0000 0.36540  0.11310  0.44390  Biso   1.000  C
  H33      1.0000 0.27780  0.41600  0.97560  Biso   1.000  H
  H34      1.0000 0.72220  0.91600  0.52440  Biso   1.000  H
  H35      1.0000 0.72220  0.58400  0.02440  Biso   1.000  H
  H36      1.0000 0.27780  0.08400  0.47560  Biso   1.000  H
  C57      1.0000 0.51910  0.42270  0.90550  Biso   1.000  C
  C58      1.0000 0.48090  0.92270  0.59450  Biso   1.000  C
  C59      1.0000 0.48090  0.57730  0.09450  Biso   1.000  C
  C60      1.0000 0.51910  0.07730  0.40550  Biso   1.000  C
  H37      1.0000 0.53600  0.47640  0.90980  Biso   1.000  H
  H38      1.0000 0.46400  0.97640  0.59020  Biso   1.000  H
  H39      1.0000 0.46400  0.52360  0.09020  Biso   1.000  H
  H40      1.0000 0.53600  0.02360  0.40980  Biso   1.000  H
  C61      1.0000 0.65100  0.37870  0.85970  Biso   1.000  C
  C62      1.0000 0.34900  0.87870  0.64030  Biso   1.000  C
  C63      1.0000 0.34900  0.62130  0.14030  Biso   1.000  C
  C64      1.0000 0.65100  0.12130  0.35970  Biso   1.000  C
  Cl1      1.0000 0.55076  0.64385  0.81059  Biso   1.000  Cl
  Cl2      1.0000 0.44924  0.14385  0.68941  Biso   1.000  Cl
  Cl3      1.0000 0.44924  0.35615  0.18941  Biso   1.000  Cl
  Cl4      1.0000 0.55076  0.85615  0.31059  Biso   1.000  Cl
  Cl5      1.0000 0.99481  0.63644  0.58183  Biso   1.000  Cl
  Cl6      1.0000 0.00519  0.13644  0.91817  Biso   1.000  Cl
  Cl7      1.0000 0.00519  0.36356  0.41817  Biso   1.000  Cl
  Cl8      1.0000 0.99481  0.86356  0.08183  Biso   1.000  Cl
  O1       1.0000 0.03410  0.64412  0.81566  Biso   1.000  O
  O2       1.0000 0.96590  0.14412  0.68434  Biso   1.000  O
  O3       1.0000 0.96590  0.35588  0.18434  Biso   1.000  O
  O4       1.0000 0.03410  0.85588  0.31566  Biso   1.000  O
  H41      1.0000 0.90700  0.64000  0.80200  Biso   1.000  H
  H42      1.0000 0.09300  0.14000  0.69800  Biso   1.000  H
  H43      1.0000 0.09300  0.36000  0.19800  Biso   1.000  H
  H44      1.0000 0.90700  0.86000  0.30200  Biso   1.000  H
  C65      1.0000 0.09190  0.65910  0.90910  Biso   1.000  C
  C66      1.0000 0.90810  0.15910  0.59090  Biso   1.000  C
  C67      1.0000 0.90810  0.34090  0.09090  Biso   1.000  C
  C68      1.0000 0.09190  0.84090  0.40910  Biso   1.000  C
  H45      1.0000 0.96580  0.65660  0.93730  Biso   1.000  H
  H46      1.0000 0.03420  0.15660  0.56270  Biso   1.000  H
  H47      1.0000 0.03420  0.34340  0.06270  Biso   1.000  H
  H48      1.0000 0.96580  0.84340  0.43730  Biso   1.000  H
  H49      1.0000 0.15490  0.71000  0.91790  Biso   1.000  H
  H50      1.0000 0.84510  0.21000  0.58210  Biso   1.000  H
  H51      1.0000 0.84510  0.29000  0.08210  Biso   1.000  H
  H52      1.0000 0.15490  0.79000  0.41790  Biso   1.000  H
  H53      1.0000 0.19470  0.62090  0.93650  Biso   1.000  H
  H54      1.0000 0.80530  0.12090  0.56350  Biso   1.000  H
  H55      1.0000 0.80530  0.37910  0.06350  Biso   1.000  H
  H56      1.0000 0.19470  0.87910  0.43650  Biso   1.000  H
