data_image0
_cell_length_a       8.6116
_cell_length_b       20.0228
_cell_length_c       9.4742
_cell_angle_alpha    90
_cell_angle_beta     112.904
_cell_angle_gamma    90

_symmetry_space_group_name_H-M    "P 1"
_symmetry_int_tables_number       1

loop_
  _symmetry_equiv_pos_as_xyz
  'x, y, z'

loop_
  _atom_site_label
  _atom_site_occupancy
  _atom_site_fract_x
  _atom_site_fract_y
  _atom_site_fract_z
  _atom_site_thermal_displace_type
  _atom_site_B_iso_or_equiv
  _atom_site_type_symbol
  C1       1.0000 0.68910  0.09650  0.55360  Biso   1.000  C
  C2       1.0000 0.31090  0.59650  0.94640  Biso   1.000  C
  C3       1.0000 0.31090  0.90350  0.44640  Biso   1.000  C
  C4       1.0000 0.68910  0.40350  0.05360  Biso   1.000  C
  H1       1.0000 0.64200  0.07290  0.61720  Biso   1.000  H
  H2       1.0000 0.35800  0.57290  0.88280  Biso   1.000  H
  H3       1.0000 0.35800  0.92710  0.38280  Biso   1.000  H
  H4       1.0000 0.64200  0.42710  0.11720  Biso   1.000  H
  H5       1.0000 0.78110  0.12410  0.62000  Biso   1.000  H
  H6       1.0000 0.21890  0.62410  0.88000  Biso   1.000  H
  H7       1.0000 0.21890  0.87590  0.38000  Biso   1.000  H
  H8       1.0000 0.78110  0.37590  0.12000  Biso   1.000  H
  C5       1.0000 0.75610  0.04650  0.47190  Biso   1.000  C
  C6       1.0000 0.24390  0.54650  0.02810  Biso   1.000  C
  C7       1.0000 0.24390  0.95350  0.52810  Biso   1.000  C
  C8       1.0000 0.75610  0.45350  0.97190  Biso   1.000  C
  H9       1.0000 0.84780  0.02120  0.54600  Biso   1.000  H
  H10      1.0000 0.15220  0.52120  0.95400  Biso   1.000  H
  H11      1.0000 0.15220  0.97880  0.45400  Biso   1.000  H
  H12      1.0000 0.84780  0.47880  0.04600  Biso   1.000  H
  H13      1.0000 0.66760  0.01550  0.41420  Biso   1.000  H
  H14      1.0000 0.33240  0.51550  0.08580  Biso   1.000  H
  H15      1.0000 0.33240  0.98450  0.58580  Biso   1.000  H
  H16      1.0000 0.66760  0.48450  0.91420  Biso   1.000  H
  C9       1.0000 0.39470  0.10400  0.36610  Biso   1.000  C
  C10      1.0000 0.60530  0.60400  0.13390  Biso   1.000  C
  C11      1.0000 0.60530  0.89600  0.63390  Biso   1.000  C
  C12      1.0000 0.39470  0.39600  0.86610  Biso   1.000  C
  H17      1.0000 0.32690  0.10810  0.42690  Biso   1.000  H
  H18      1.0000 0.67310  0.60810  0.07310  Biso   1.000  H
  H19      1.0000 0.67310  0.89190  0.57310  Biso   1.000  H
  H20      1.0000 0.32690  0.39190  0.92690  Biso   1.000  H
  H21      1.0000 0.41580  0.05700  0.35660  Biso   1.000  H
  H22      1.0000 0.58420  0.55700  0.14340  Biso   1.000  H
  H23      1.0000 0.58420  0.94300  0.64340  Biso   1.000  H
  H24      1.0000 0.41580  0.44300  0.85660  Biso   1.000  H
  C13      1.0000 0.30140  0.13350  0.20980  Biso   1.000  C
  C14      1.0000 0.69860  0.63350  0.29020  Biso   1.000  C
  C15      1.0000 0.69860  0.86650  0.79020  Biso   1.000  C
  C16      1.0000 0.30140  0.36650  0.70980  Biso   1.000  C
  H25      1.0000 0.20240  0.10700  0.15340  Biso   1.000  H
  H26      1.0000 0.79760  0.60700  0.34660  Biso   1.000  H
  H27      1.0000 0.79760  0.89300  0.84660  Biso   1.000  H
  H28      1.0000 0.20240  0.39300  0.65340  Biso   1.000  H
  H29      1.0000 0.26530  0.17870  0.21890  Biso   1.000  H
  H30      1.0000 0.73470  0.67870  0.28110  Biso   1.000  H
  H31      1.0000 0.73470  0.82130  0.78110  Biso   1.000  H
  H32      1.0000 0.26530  0.32130  0.71890  Biso   1.000  H
  C17      1.0000 0.53570  0.20160  0.52160  Biso   1.000  C
  C18      1.0000 0.46430  0.70160  0.97840  Biso   1.000  C
  C19      1.0000 0.46430  0.79840  0.47840  Biso   1.000  C
  C20      1.0000 0.53570  0.29840  0.02160  Biso   1.000  C
  H33      1.0000 0.54720  0.19130  0.62530  Biso   1.000  H
  H34      1.0000 0.45280  0.69130  0.87470  Biso   1.000  H
  H35      1.0000 0.45280  0.80870  0.37470  Biso   1.000  H
  H36      1.0000 0.54720  0.30870  0.12530  Biso   1.000  H
  H37      1.0000 0.42470  0.22050  0.46670  Biso   1.000  H
  H38      1.0000 0.57530  0.72050  0.03330  Biso   1.000  H
  H39      1.0000 0.57530  0.77950  0.53330  Biso   1.000  H
  H40      1.0000 0.42470  0.27950  0.96670  Biso   1.000  H
  C21      1.0000 0.66870  0.25006  0.52440  Biso   1.000  C
  C22      1.0000 0.33130  0.75006  0.97560  Biso   1.000  C
  C23      1.0000 0.33130  0.74994  0.47560  Biso   1.000  C
  C24      1.0000 0.66870  0.24994  0.02440  Biso   1.000  C
  C25      1.0000 0.85050  0.29640  0.45100  Biso   1.000  C
  C26      1.0000 0.14950  0.79640  0.04900  Biso   1.000  C
  C27      1.0000 0.14950  0.70360  0.54900  Biso   1.000  C
  C28      1.0000 0.85050  0.20360  0.95100  Biso   1.000  C
  H41      1.0000 0.92000  0.30570  0.39900  Biso   1.000  H
  H42      1.0000 0.08000  0.80570  0.10100  Biso   1.000  H
  H43      1.0000 0.08000  0.69430  0.60100  Biso   1.000  H
  H44      1.0000 0.92000  0.19430  0.89900  Biso   1.000  H
  C29      1.0000 0.84110  0.33220  0.57000  Biso   1.000  C
  C30      1.0000 0.15890  0.83220  0.93000  Biso   1.000  C
  C31      1.0000 0.15890  0.66780  0.43000  Biso   1.000  C
  C32      1.0000 0.84110  0.16780  0.07000  Biso   1.000  C
  H45      1.0000 0.90270  0.37050  0.61230  Biso   1.000  H
  H46      1.0000 0.09730  0.87050  0.88770  Biso   1.000  H
  H47      1.0000 0.09730  0.62950  0.38770  Biso   1.000  H
  H48      1.0000 0.90270  0.12950  0.11230  Biso   1.000  H
  N1       1.0000 0.55730  0.13975  0.44320  Biso   1.000  N
  N2       1.0000 0.44270  0.63975  0.05680  Biso   1.000  N
  N3       1.0000 0.44270  0.86025  0.55680  Biso   1.000  N
  N4       1.0000 0.55730  0.36025  0.94320  Biso   1.000  N
  N5       1.0000 0.81670  0.08255  0.36730  Biso   1.000  N
  N6       1.0000 0.18330  0.58255  0.13270  Biso   1.000  N
  N7       1.0000 0.18330  0.91745  0.63270  Biso   1.000  N
  N8       1.0000 0.81670  0.41745  0.86730  Biso   1.000  N
  H49      1.0000 0.81360  0.05570  0.29010  Biso   1.000  H
  H50      1.0000 0.18640  0.55570  0.20990  Biso   1.000  H
  H51      1.0000 0.18640  0.94430  0.70990  Biso   1.000  H
  H52      1.0000 0.81360  0.44430  0.79010  Biso   1.000  H
  H53      1.0000 0.92350  0.09640  0.41800  Biso   1.000  H
  H54      1.0000 0.07650  0.59640  0.08200  Biso   1.000  H
  H55      1.0000 0.07650  0.90360  0.58200  Biso   1.000  H
  H56      1.0000 0.92350  0.40360  0.91800  Biso   1.000  H
  N9       1.0000 0.41720  0.13400  0.12910  Biso   1.000  N
  N10      1.0000 0.58280  0.63400  0.37090  Biso   1.000  N
  N11      1.0000 0.58280  0.86600  0.87090  Biso   1.000  N
  N12      1.0000 0.41720  0.36600  0.62910  Biso   1.000  N
  H57      1.0000 0.37630  0.16080  0.04640  Biso   1.000  H
  H58      1.0000 0.62370  0.66080  0.45360  Biso   1.000  H
  H59      1.0000 0.62370  0.83920  0.95360  Biso   1.000  H
  H60      1.0000 0.37630  0.33920  0.54640  Biso   1.000  H
  H61      1.0000 0.42750  0.09250  0.09750  Biso   1.000  H
  H62      1.0000 0.57250  0.59250  0.40250  Biso   1.000  H
  H63      1.0000 0.57250  0.90750  0.90250  Biso   1.000  H
  H64      1.0000 0.42750  0.40750  0.59750  Biso   1.000  H
  N13      1.0000 0.73890  0.24383  0.42160  Biso   1.000  N
  N14      1.0000 0.26110  0.74383  0.07840  Biso   1.000  N
  N15      1.0000 0.26110  0.75617  0.57840  Biso   1.000  N
  N16      1.0000 0.73890  0.25617  0.92160  Biso   1.000  N
  N17      1.0000 0.72510  0.30221  0.61730  Biso   1.000  N
  N18      1.0000 0.27490  0.80221  0.88270  Biso   1.000  N
  N19      1.0000 0.27490  0.69779  0.38270  Biso   1.000  N
  N20      1.0000 0.72510  0.19779  0.11730  Biso   1.000  N
  Cu1      1.0000 0.64883  0.16853  0.27755  Biso   1.000  Cu
  Cu2      1.0000 0.35117  0.66853  0.22245  Biso   1.000  Cu
  Cu3      1.0000 0.35117  0.83147  0.72245  Biso   1.000  Cu
  Cu4      1.0000 0.64883  0.33147  0.77755  Biso   1.000  Cu
  O1       1.0000 0.91710  0.00020  0.09540  Biso   1.000  O
  O2       1.0000 0.08290  0.50020  0.40460  Biso   1.000  O
  O3       1.0000 0.08290  0.99980  0.90460  Biso   1.000  O
  O4       1.0000 0.91710  0.49980  0.59540  Biso   1.000  O
  O5       1.0000 0.15530  0.16770  0.55410  Biso   1.000  O
  O6       1.0000 0.84470  0.66770  0.94590  Biso   1.000  O
  O7       1.0000 0.84470  0.83230  0.44590  Biso   1.000  O
  O8       1.0000 0.15530  0.33230  0.05410  Biso   1.000  O
  O9       1.0000 0.12430  0.09000  0.71690  Biso   1.000  O
  O10      1.0000 0.87570  0.59000  0.78310  Biso   1.000  O
  O11      1.0000 0.87570  0.91000  0.28310  Biso   1.000  O
  O12      1.0000 0.12430  0.41000  0.21690  Biso   1.000  O
  O13      1.0000 0.38600  0.13000  0.76680  Biso   1.000  O
  O14      1.0000 0.61400  0.63000  0.73320  Biso   1.000  O
  O15      1.0000 0.61400  0.87000  0.23320  Biso   1.000  O
  O16      1.0000 0.38600  0.37000  0.26680  Biso   1.000  O
  O17      1.0000 0.18720  0.19060  0.80260  Biso   1.000  O
  O18      1.0000 0.81280  0.69060  0.69740  Biso   1.000  O
  O19      1.0000 0.81280  0.80940  0.19740  Biso   1.000  O
  O20      1.0000 0.18720  0.30940  0.30260  Biso   1.000  O
  Cl1      1.0000 0.21624  0.14487  0.70838  Biso   1.000  Cl
  Cl2      1.0000 0.78376  0.64487  0.79162  Biso   1.000  Cl
  Cl3      1.0000 0.78376  0.85513  0.29162  Biso   1.000  Cl
  Cl4      1.0000 0.21624  0.35513  0.20838  Biso   1.000  Cl
  O21      1.0000 0.58760  0.02040  0.91780  Biso   1.000  O
  O22      1.0000 0.41240  0.52040  0.58220  Biso   1.000  O
  O23      1.0000 0.41240  0.97960  0.08220  Biso   1.000  O
  O24      1.0000 0.58760  0.47960  0.41780  Biso   1.000  O
