data_image0
_cell_length_a       27.12
_cell_length_b       8.463
_cell_length_c       26.409
_cell_angle_alpha    90
_cell_angle_beta     113.04
_cell_angle_gamma    90

_symmetry_space_group_name_H-M    "P 1"
_symmetry_int_tables_number       1

loop_
  _symmetry_equiv_pos_as_xyz
  'x, y, z'

loop_
  _atom_site_label
  _atom_site_occupancy
  _atom_site_fract_x
  _atom_site_fract_y
  _atom_site_fract_z
  _atom_site_thermal_displace_type
  _atom_site_B_iso_or_equiv
  _atom_site_type_symbol
  Cu1      1.0000 0.12773  0.46038  0.24909  Biso   1.000  Cu
  Cu2      1.0000 0.87227  0.46038  0.25091  Biso   1.000  Cu
  Cu3      1.0000 0.62773  0.96038  0.24909  Biso   1.000  Cu
  Cu4      1.0000 0.37227  0.96038  0.25091  Biso   1.000  Cu
  Cu5      1.0000 0.87227  0.53962  0.75091  Biso   1.000  Cu
  Cu6      1.0000 0.12773  0.53962  0.74909  Biso   1.000  Cu
  Cu7      1.0000 0.37227  0.03962  0.75091  Biso   1.000  Cu
  Cu8      1.0000 0.62773  0.03962  0.74909  Biso   1.000  Cu
  O1       1.0000 0.34726  0.15760  0.32140  Biso   1.000  O
  O2       1.0000 0.65274  0.15760  0.17860  Biso   1.000  O
  O3       1.0000 0.84726  0.65760  0.32140  Biso   1.000  O
  O4       1.0000 0.15274  0.65760  0.17860  Biso   1.000  O
  O5       1.0000 0.65274  0.84240  0.67860  Biso   1.000  O
  O6       1.0000 0.34726  0.84240  0.82140  Biso   1.000  O
  O7       1.0000 0.15274  0.34240  0.67860  Biso   1.000  O
  O8       1.0000 0.84726  0.34240  0.82140  Biso   1.000  O
  N1       1.0000 0.09440  0.32940  0.17975  Biso   1.000  N
  N2       1.0000 0.90560  0.32940  0.32025  Biso   1.000  N
  N3       1.0000 0.59440  0.82940  0.17975  Biso   1.000  N
  N4       1.0000 0.40560  0.82940  0.32025  Biso   1.000  N
  N5       1.0000 0.90560  0.67060  0.82025  Biso   1.000  N
  N6       1.0000 0.09440  0.67060  0.67975  Biso   1.000  N
  N7       1.0000 0.40560  0.17060  0.82025  Biso   1.000  N
  N8       1.0000 0.59440  0.17060  0.67975  Biso   1.000  N
  N9       1.0000 0.06415  0.60450  0.22402  Biso   1.000  N
  N10      1.0000 0.93585  0.60450  0.27598  Biso   1.000  N
  N11      1.0000 0.56415  0.10450  0.22402  Biso   1.000  N
  N12      1.0000 0.43585  0.10450  0.27598  Biso   1.000  N
  N13      1.0000 0.93585  0.39550  0.77598  Biso   1.000  N
  N14      1.0000 0.06415  0.39550  0.72402  Biso   1.000  N
  N15      1.0000 0.43585  0.89550  0.77598  Biso   1.000  N
  N16      1.0000 0.56415  0.89550  0.72402  Biso   1.000  N
  N17      1.0000 0.15734  0.58150  0.32122  Biso   1.000  N
  N18      1.0000 0.84266  0.58150  0.17878  Biso   1.000  N
  N19      1.0000 0.65734  0.08150  0.32122  Biso   1.000  N
  N20      1.0000 0.34266  0.08150  0.17878  Biso   1.000  N
  N21      1.0000 0.84266  0.41850  0.67878  Biso   1.000  N
  N22      1.0000 0.15734  0.41850  0.82122  Biso   1.000  N
  N23      1.0000 0.34266  0.91850  0.67878  Biso   1.000  N
  N24      1.0000 0.65734  0.91850  0.82122  Biso   1.000  N
  N25      1.0000 0.17997  0.28810  0.17757  Biso   1.000  N
  N26      1.0000 0.82003  0.28810  0.32243  Biso   1.000  N
  N27      1.0000 0.67997  0.78810  0.17757  Biso   1.000  N
  N28      1.0000 0.32003  0.78810  0.32243  Biso   1.000  N
  N29      1.0000 0.82003  0.71190  0.82243  Biso   1.000  N
  N30      1.0000 0.17997  0.71190  0.67757  Biso   1.000  N
  N31      1.0000 0.32003  0.21190  0.82243  Biso   1.000  N
  N32      1.0000 0.67997  0.21190  0.67757  Biso   1.000  N
  N33      1.0000 0.01068  0.38440  0.18442  Biso   1.000  N
  N34      1.0000 0.98932  0.38440  0.31558  Biso   1.000  N
  N35      1.0000 0.51068  0.88440  0.18442  Biso   1.000  N
  N36      1.0000 0.48932  0.88440  0.31558  Biso   1.000  N
  N37      1.0000 0.98932  0.61560  0.81558  Biso   1.000  N
  N38      1.0000 0.01068  0.61560  0.68442  Biso   1.000  N
  N39      1.0000 0.48932  0.11560  0.81558  Biso   1.000  N
  N40      1.0000 0.51068  0.11560  0.68442  Biso   1.000  N
  N41      1.0000 0.12015  0.81340  0.27000  Biso   1.000  N
  N42      1.0000 0.87985  0.81340  0.23000  Biso   1.000  N
  N43      1.0000 0.62015  0.31340  0.27000  Biso   1.000  N
  N44      1.0000 0.37985  0.31340  0.23000  Biso   1.000  N
  N45      1.0000 0.87985  0.18660  0.73000  Biso   1.000  N
  N46      1.0000 0.12015  0.18660  0.77000  Biso   1.000  N
  N47      1.0000 0.37985  0.68660  0.73000  Biso   1.000  N
  N48      1.0000 0.62015  0.68660  0.77000  Biso   1.000  N
  N49      1.0000 0.20181  0.35490  0.36909  Biso   1.000  N
  N50      1.0000 0.79819  0.35490  0.13091  Biso   1.000  N
  N51      1.0000 0.70181  0.85490  0.36909  Biso   1.000  N
  N52      1.0000 0.29819  0.85490  0.13091  Biso   1.000  N
  N53      1.0000 0.79819  0.64510  0.63091  Biso   1.000  N
  N54      1.0000 0.20181  0.64510  0.86909  Biso   1.000  N
  N55      1.0000 0.29819  0.14510  0.63091  Biso   1.000  N
  N56      1.0000 0.70181  0.14510  0.86909  Biso   1.000  N
  C1       1.0000 0.12461  0.25840  0.15669  Biso   1.000  C
  C2       1.0000 0.87539  0.25840  0.34331  Biso   1.000  C
  C3       1.0000 0.62461  0.75840  0.15669  Biso   1.000  C
  C4       1.0000 0.37539  0.75840  0.34331  Biso   1.000  C
  C5       1.0000 0.87539  0.74160  0.84331  Biso   1.000  C
  C6       1.0000 0.12461  0.74160  0.65669  Biso   1.000  C
  C7       1.0000 0.37539  0.24160  0.84331  Biso   1.000  C
  C8       1.0000 0.62461  0.24160  0.65669  Biso   1.000  C
  C9       1.0000 0.10162  0.15640  0.11176  Biso   1.000  C
  C10      1.0000 0.89838  0.15640  0.38824  Biso   1.000  C
  C11      1.0000 0.60162  0.65640  0.11176  Biso   1.000  C
  C12      1.0000 0.39838  0.65640  0.38824  Biso   1.000  C
  C13      1.0000 0.89838  0.84360  0.88824  Biso   1.000  C
  C14      1.0000 0.10162  0.84360  0.61176  Biso   1.000  C
  C15      1.0000 0.39838  0.34360  0.88824  Biso   1.000  C
  C16      1.0000 0.60162  0.34360  0.61176  Biso   1.000  C
  H1       1.0000 0.12330  0.10710  0.09560  Biso   1.000  H
  H2       1.0000 0.87670  0.10710  0.40440  Biso   1.000  H
  H3       1.0000 0.62330  0.60710  0.09560  Biso   1.000  H
  H4       1.0000 0.37670  0.60710  0.40440  Biso   1.000  H
  H5       1.0000 0.87670  0.89290  0.90440  Biso   1.000  H
  H6       1.0000 0.12330  0.89290  0.59560  Biso   1.000  H
  H7       1.0000 0.37670  0.39290  0.90440  Biso   1.000  H
  H8       1.0000 0.62330  0.39290  0.59560  Biso   1.000  H
  C17      1.0000 0.04798  0.12860  0.09152  Biso   1.000  C
  C18      1.0000 0.95202  0.12860  0.40848  Biso   1.000  C
  C19      1.0000 0.54798  0.62860  0.09152  Biso   1.000  C
  C20      1.0000 0.45202  0.62860  0.40848  Biso   1.000  C
  C21      1.0000 0.95202  0.87140  0.90848  Biso   1.000  C
  C22      1.0000 0.04798  0.87140  0.59152  Biso   1.000  C
  C23      1.0000 0.45202  0.37140  0.90848  Biso   1.000  C
  C24      1.0000 0.54798  0.37140  0.59152  Biso   1.000  C
  H9       1.0000 0.03230  0.05850  0.06130  Biso   1.000  H
  H10      1.0000 0.96770  0.05850  0.43870  Biso   1.000  H
  H11      1.0000 0.53230  0.55850  0.06130  Biso   1.000  H
  H12      1.0000 0.46770  0.55850  0.43870  Biso   1.000  H
  H13      1.0000 0.96770  0.94150  0.93870  Biso   1.000  H
  H14      1.0000 0.03230  0.94150  0.56130  Biso   1.000  H
  H15      1.0000 0.46770  0.44150  0.93870  Biso   1.000  H
  H16      1.0000 0.53230  0.44150  0.56130  Biso   1.000  H
  C25      1.0000 0.01608  0.20220  0.11475  Biso   1.000  C
  C26      1.0000 0.98392  0.20220  0.38525  Biso   1.000  C
  C27      1.0000 0.51608  0.70220  0.11475  Biso   1.000  C
  C28      1.0000 0.48392  0.70220  0.38525  Biso   1.000  C
  C29      1.0000 0.98392  0.79780  0.88525  Biso   1.000  C
  C30      1.0000 0.01608  0.79780  0.61475  Biso   1.000  C
  C31      1.0000 0.48392  0.29780  0.88525  Biso   1.000  C
  C32      1.0000 0.51608  0.29780  0.61475  Biso   1.000  C
  H17      1.0000 0.97850  0.18420  0.10080  Biso   1.000  H
  H18      1.0000 0.02150  0.18420  0.39920  Biso   1.000  H
  H19      1.0000 0.47850  0.68420  0.10080  Biso   1.000  H
  H20      1.0000 0.52150  0.68420  0.39920  Biso   1.000  H
  H21      1.0000 0.02150  0.81580  0.89920  Biso   1.000  H
  H22      1.0000 0.97850  0.81580  0.60080  Biso   1.000  H
  H23      1.0000 0.52150  0.31580  0.89920  Biso   1.000  H
  H24      1.0000 0.47850  0.31580  0.60080  Biso   1.000  H
  C33      1.0000 0.04080  0.30260  0.15893  Biso   1.000  C
  C34      1.0000 0.95920  0.30260  0.34107  Biso   1.000  C
  C35      1.0000 0.54080  0.80260  0.15893  Biso   1.000  C
  C36      1.0000 0.45920  0.80260  0.34107  Biso   1.000  C
  C37      1.0000 0.95920  0.69740  0.84107  Biso   1.000  C
  C38      1.0000 0.04080  0.69740  0.65893  Biso   1.000  C
  C39      1.0000 0.45920  0.19740  0.84107  Biso   1.000  C
  C40      1.0000 0.54080  0.19740  0.65893  Biso   1.000  C
  C41      1.0000 0.95608  0.32440  0.17180  Biso   1.000  C
  C42      1.0000 0.04392  0.32440  0.32820  Biso   1.000  C
  C43      1.0000 0.45608  0.82440  0.17180  Biso   1.000  C
  C44      1.0000 0.54392  0.82440  0.32820  Biso   1.000  C
  C45      1.0000 0.04392  0.67560  0.82820  Biso   1.000  C
  C46      1.0000 0.95608  0.67560  0.67180  Biso   1.000  C
  C47      1.0000 0.54392  0.17560  0.82820  Biso   1.000  C
  C48      1.0000 0.45608  0.17560  0.67180  Biso   1.000  C
  H25      1.0000 0.93420  0.33950  0.13260  Biso   1.000  H
  H26      1.0000 0.06580  0.33950  0.36740  Biso   1.000  H
  H27      1.0000 0.43420  0.83950  0.13260  Biso   1.000  H
  H28      1.0000 0.56580  0.83950  0.36740  Biso   1.000  H
  H29      1.0000 0.06580  0.66050  0.86740  Biso   1.000  H
  H30      1.0000 0.93420  0.66050  0.63260  Biso   1.000  H
  H31      1.0000 0.56580  0.16050  0.86740  Biso   1.000  H
  H32      1.0000 0.43420  0.16050  0.63260  Biso   1.000  H
  H33      1.0000 0.94000  0.38220  0.19370  Biso   1.000  H
  H34      1.0000 0.06000  0.38220  0.30630  Biso   1.000  H
  H35      1.0000 0.44000  0.88220  0.19370  Biso   1.000  H
  H36      1.0000 0.56000  0.88220  0.30630  Biso   1.000  H
  H37      1.0000 0.06000  0.61780  0.80630  Biso   1.000  H
  H38      1.0000 0.94000  0.61780  0.69370  Biso   1.000  H
  H39      1.0000 0.56000  0.11780  0.80630  Biso   1.000  H
  H40      1.0000 0.44000  0.11780  0.69370  Biso   1.000  H
  H41      1.0000 0.95780  0.21160  0.18080  Biso   1.000  H
  H42      1.0000 0.04220  0.21160  0.31920  Biso   1.000  H
  H43      1.0000 0.45780  0.71160  0.18080  Biso   1.000  H
  H44      1.0000 0.54220  0.71160  0.31920  Biso   1.000  H
  H45      1.0000 0.04220  0.78840  0.81920  Biso   1.000  H
  H46      1.0000 0.95780  0.78840  0.68080  Biso   1.000  H
  H47      1.0000 0.54220  0.28840  0.81920  Biso   1.000  H
  H48      1.0000 0.45780  0.28840  0.68080  Biso   1.000  H
  C49      1.0000 0.01573  0.55060  0.18803  Biso   1.000  C
  C50      1.0000 0.98427  0.55060  0.31197  Biso   1.000  C
  C51      1.0000 0.51573  0.05060  0.18803  Biso   1.000  C
  C52      1.0000 0.48427  0.05060  0.31197  Biso   1.000  C
  C53      1.0000 0.98427  0.44940  0.81197  Biso   1.000  C
  C54      1.0000 0.01573  0.44940  0.68803  Biso   1.000  C
  C55      1.0000 0.48427  0.94940  0.81197  Biso   1.000  C
  C56      1.0000 0.51573  0.94940  0.68803  Biso   1.000  C
  C57      1.0000 0.97529  0.64900  0.15770  Biso   1.000  C
  C58      1.0000 0.02471  0.64900  0.34230  Biso   1.000  C
  C59      1.0000 0.47529  0.14900  0.15770  Biso   1.000  C
  C60      1.0000 0.52471  0.14900  0.34230  Biso   1.000  C
  C61      1.0000 0.02471  0.35100  0.84230  Biso   1.000  C
  C62      1.0000 0.97529  0.35100  0.65770  Biso   1.000  C
  C63      1.0000 0.52471  0.85100  0.84230  Biso   1.000  C
  C64      1.0000 0.47529  0.85100  0.65770  Biso   1.000  C
  H49      1.0000 0.94150  0.60840  0.13400  Biso   1.000  H
  H50      1.0000 0.05850  0.60840  0.36600  Biso   1.000  H
  H51      1.0000 0.44150  0.10840  0.13400  Biso   1.000  H
  H52      1.0000 0.55850  0.10840  0.36600  Biso   1.000  H
  H53      1.0000 0.05850  0.39160  0.86600  Biso   1.000  H
  H54      1.0000 0.94150  0.39160  0.63400  Biso   1.000  H
  H55      1.0000 0.55850  0.89160  0.86600  Biso   1.000  H
  H56      1.0000 0.44150  0.89160  0.63400  Biso   1.000  H
  C65      1.0000 0.98500  0.81210  0.16250  Biso   1.000  C
  C66      1.0000 0.01500  0.81210  0.33750  Biso   1.000  C
  C67      1.0000 0.48500  0.31210  0.16250  Biso   1.000  C
  C68      1.0000 0.51500  0.31210  0.33750  Biso   1.000  C
  C69      1.0000 0.01500  0.18790  0.83750  Biso   1.000  C
  C70      1.0000 0.98500  0.18790  0.66250  Biso   1.000  C
  C71      1.0000 0.51500  0.68790  0.83750  Biso   1.000  C
  C72      1.0000 0.48500  0.68790  0.66250  Biso   1.000  C
  H57      1.0000 0.95810  0.88350  0.14050  Biso   1.000  H
  H58      1.0000 0.04190  0.88350  0.35950  Biso   1.000  H
  H59      1.0000 0.45810  0.38350  0.14050  Biso   1.000  H
  H60      1.0000 0.54190  0.38350  0.35950  Biso   1.000  H
  H61      1.0000 0.04190  0.11650  0.85950  Biso   1.000  H
  H62      1.0000 0.95810  0.11650  0.64050  Biso   1.000  H
  H63      1.0000 0.54190  0.61650  0.85950  Biso   1.000  H
  H64      1.0000 0.45810  0.61650  0.64050  Biso   1.000  H
  C73      1.0000 0.03310  0.86840  0.19900  Biso   1.000  C
  C74      1.0000 0.96690  0.86840  0.30100  Biso   1.000  C
  C75      1.0000 0.53310  0.36840  0.19900  Biso   1.000  C
  C76      1.0000 0.46690  0.36840  0.30100  Biso   1.000  C
  C77      1.0000 0.96690  0.13160  0.80100  Biso   1.000  C
  C78      1.0000 0.03310  0.13160  0.69900  Biso   1.000  C
  C79      1.0000 0.46690  0.63160  0.80100  Biso   1.000  C
  C80      1.0000 0.53310  0.63160  0.69900  Biso   1.000  C
  H65      1.0000 0.03990  0.97890  0.20230  Biso   1.000  H
  H66      1.0000 0.96010  0.97890  0.29770  Biso   1.000  H
  H67      1.0000 0.53990  0.47890  0.20230  Biso   1.000  H
  H68      1.0000 0.46010  0.47890  0.29770  Biso   1.000  H
  H69      1.0000 0.96010  0.02110  0.79770  Biso   1.000  H
  H70      1.0000 0.03990  0.02110  0.70230  Biso   1.000  H
  H71      1.0000 0.46010  0.52110  0.79770  Biso   1.000  H
  H72      1.0000 0.53990  0.52110  0.70230  Biso   1.000  H
  C81      1.0000 0.07177  0.76220  0.23100  Biso   1.000  C
  C82      1.0000 0.92823  0.76220  0.26900  Biso   1.000  C
  C83      1.0000 0.57177  0.26220  0.23100  Biso   1.000  C
  C84      1.0000 0.42823  0.26220  0.26900  Biso   1.000  C
  C85      1.0000 0.92823  0.23780  0.76900  Biso   1.000  C
  C86      1.0000 0.07177  0.23780  0.73100  Biso   1.000  C
  C87      1.0000 0.42823  0.73780  0.76900  Biso   1.000  C
  C88      1.0000 0.57177  0.73780  0.73100  Biso   1.000  C
  C89      1.0000 0.13530  0.98070  0.26870  Biso   1.000  C
  C90      1.0000 0.86470  0.98070  0.23130  Biso   1.000  C
  C91      1.0000 0.63530  0.48070  0.26870  Biso   1.000  C
  C92      1.0000 0.36470  0.48070  0.23130  Biso   1.000  C
  C93      1.0000 0.86470  0.01930  0.73130  Biso   1.000  C
  C94      1.0000 0.13530  0.01930  0.76870  Biso   1.000  C
  C95      1.0000 0.36470  0.51930  0.73130  Biso   1.000  C
  C96      1.0000 0.63530  0.51930  0.76870  Biso   1.000  C
  H73      1.0000 0.12610  0.01330  0.23040  Biso   1.000  H
  H74      1.0000 0.87390  0.01330  0.26960  Biso   1.000  H
  H75      1.0000 0.62610  0.51330  0.23040  Biso   1.000  H
  H76      1.0000 0.37390  0.51330  0.26960  Biso   1.000  H
  H77      1.0000 0.87390  0.98670  0.76960  Biso   1.000  H
  H78      1.0000 0.12610  0.98670  0.73040  Biso   1.000  H
  H79      1.0000 0.37390  0.48670  0.76960  Biso   1.000  H
  H80      1.0000 0.62610  0.48670  0.73040  Biso   1.000  H
  H81      1.0000 0.17390  0.99290  0.28950  Biso   1.000  H
  H82      1.0000 0.82610  0.99290  0.21050  Biso   1.000  H
  H83      1.0000 0.67390  0.49290  0.28950  Biso   1.000  H
  H84      1.0000 0.32610  0.49290  0.21050  Biso   1.000  H
  H85      1.0000 0.82610  0.00710  0.71050  Biso   1.000  H
  H86      1.0000 0.17390  0.00710  0.78950  Biso   1.000  H
  H87      1.0000 0.32610  0.50710  0.71050  Biso   1.000  H
  H88      1.0000 0.67390  0.50710  0.78950  Biso   1.000  H
  H89      1.0000 0.11590  0.04690  0.28520  Biso   1.000  H
  H90      1.0000 0.88410  0.04690  0.21480  Biso   1.000  H
  H91      1.0000 0.61590  0.54690  0.28520  Biso   1.000  H
  H92      1.0000 0.38410  0.54690  0.21480  Biso   1.000  H
  H93      1.0000 0.88410  0.95310  0.71480  Biso   1.000  H
  H94      1.0000 0.11590  0.95310  0.78520  Biso   1.000  H
  H95      1.0000 0.38410  0.45310  0.71480  Biso   1.000  H
  H96      1.0000 0.61590  0.45310  0.78520  Biso   1.000  H
  C97      1.0000 0.14421  0.73610  0.32130  Biso   1.000  C
  C98      1.0000 0.85579  0.73610  0.17870  Biso   1.000  C
  C99      1.0000 0.64421  0.23610  0.32130  Biso   1.000  C
  C100     1.0000 0.35579  0.23610  0.17870  Biso   1.000  C
  C101     1.0000 0.85579  0.26390  0.67870  Biso   1.000  C
  C102     1.0000 0.14421  0.26390  0.82130  Biso   1.000  C
  C103     1.0000 0.35579  0.76390  0.67870  Biso   1.000  C
  C104     1.0000 0.64421  0.76390  0.82130  Biso   1.000  C
  C105     1.0000 0.15490  0.81940  0.36970  Biso   1.000  C
  C106     1.0000 0.84510  0.81940  0.13030  Biso   1.000  C
  C107     1.0000 0.65490  0.31940  0.36970  Biso   1.000  C
  C108     1.0000 0.34510  0.31940  0.13030  Biso   1.000  C
  C109     1.0000 0.84510  0.18060  0.63030  Biso   1.000  C
  C110     1.0000 0.15490  0.18060  0.86970  Biso   1.000  C
  C111     1.0000 0.34510  0.68060  0.63030  Biso   1.000  C
  C112     1.0000 0.65490  0.68060  0.86970  Biso   1.000  C
  H97      1.0000 0.14650  0.92860  0.36900  Biso   1.000  H
  H98      1.0000 0.85350  0.92860  0.13100  Biso   1.000  H
  H99      1.0000 0.64650  0.42860  0.36900  Biso   1.000  H
  H100     1.0000 0.35350  0.42860  0.13100  Biso   1.000  H
  H101     1.0000 0.85350  0.07140  0.63100  Biso   1.000  H
  H102     1.0000 0.14650  0.07140  0.86900  Biso   1.000  H
  H103     1.0000 0.35350  0.57140  0.63100  Biso   1.000  H
  H104     1.0000 0.64650  0.57140  0.86900  Biso   1.000  H
  C113     1.0000 0.17830  0.73860  0.41940  Biso   1.000  C
  C114     1.0000 0.82170  0.73860  0.08060  Biso   1.000  C
  C115     1.0000 0.67830  0.23860  0.41940  Biso   1.000  C
  C116     1.0000 0.32170  0.23860  0.08060  Biso   1.000  C
  C117     1.0000 0.82170  0.26140  0.58060  Biso   1.000  C
  C118     1.0000 0.17830  0.26140  0.91940  Biso   1.000  C
  C119     1.0000 0.32170  0.76140  0.58060  Biso   1.000  C
  C120     1.0000 0.67830  0.76140  0.91940  Biso   1.000  C
  H105     1.0000 0.18470  0.79210  0.45300  Biso   1.000  H
  H106     1.0000 0.81530  0.79210  0.04700  Biso   1.000  H
  H107     1.0000 0.68470  0.29210  0.45300  Biso   1.000  H
  H108     1.0000 0.31530  0.29210  0.04700  Biso   1.000  H
  H109     1.0000 0.81530  0.20790  0.54700  Biso   1.000  H
  H110     1.0000 0.18470  0.20790  0.95300  Biso   1.000  H
  H111     1.0000 0.31530  0.70790  0.54700  Biso   1.000  H
  H112     1.0000 0.68470  0.70790  0.95300  Biso   1.000  H
  C121     1.0000 0.19220  0.58340  0.42020  Biso   1.000  C
  C122     1.0000 0.80780  0.58340  0.07980  Biso   1.000  C
  C123     1.0000 0.69220  0.08340  0.42020  Biso   1.000  C
  C124     1.0000 0.30780  0.08340  0.07980  Biso   1.000  C
  C125     1.0000 0.80780  0.41660  0.57980  Biso   1.000  C
  C126     1.0000 0.19220  0.41660  0.92020  Biso   1.000  C
  C127     1.0000 0.30780  0.91660  0.57980  Biso   1.000  C
  C128     1.0000 0.69220  0.91660  0.92020  Biso   1.000  C
  H113     1.0000 0.20780  0.52800  0.45410  Biso   1.000  H
  H114     1.0000 0.79220  0.52800  0.04590  Biso   1.000  H
  H115     1.0000 0.70780  0.02800  0.45410  Biso   1.000  H
  H116     1.0000 0.29220  0.02800  0.04590  Biso   1.000  H
  H117     1.0000 0.79220  0.47200  0.54590  Biso   1.000  H
  H118     1.0000 0.20780  0.47200  0.95410  Biso   1.000  H
  H119     1.0000 0.29220  0.97200  0.54590  Biso   1.000  H
  H120     1.0000 0.70780  0.97200  0.95410  Biso   1.000  H
  C129     1.0000 0.18300  0.50580  0.36963  Biso   1.000  C
  C130     1.0000 0.81700  0.50580  0.13037  Biso   1.000  C
  C131     1.0000 0.68300  0.00580  0.36963  Biso   1.000  C
  C132     1.0000 0.31700  0.00580  0.13037  Biso   1.000  C
  C133     1.0000 0.81700  0.49420  0.63037  Biso   1.000  C
  C134     1.0000 0.18300  0.49420  0.86963  Biso   1.000  C
  C135     1.0000 0.31700  0.99420  0.63037  Biso   1.000  C
  C136     1.0000 0.68300  0.99420  0.86963  Biso   1.000  C
  C137     1.0000 0.22000  0.26270  0.41977  Biso   1.000  C
  C138     1.0000 0.78000  0.26270  0.08023  Biso   1.000  C
  C139     1.0000 0.72000  0.76270  0.41977  Biso   1.000  C
  C140     1.0000 0.28000  0.76270  0.08023  Biso   1.000  C
  C141     1.0000 0.78000  0.73730  0.58023  Biso   1.000  C
  C142     1.0000 0.22000  0.73730  0.91977  Biso   1.000  C
  C143     1.0000 0.28000  0.23730  0.58023  Biso   1.000  C
  C144     1.0000 0.72000  0.23730  0.91977  Biso   1.000  C
  H121     1.0000 0.25420  0.30490  0.44570  Biso   1.000  H
  H122     1.0000 0.74580  0.30490  0.05430  Biso   1.000  H
  H123     1.0000 0.75420  0.80490  0.44570  Biso   1.000  H
  H124     1.0000 0.24580  0.80490  0.05430  Biso   1.000  H
  H125     1.0000 0.74580  0.69510  0.55430  Biso   1.000  H
  H126     1.0000 0.25420  0.69510  0.94570  Biso   1.000  H
  H127     1.0000 0.24580  0.19510  0.55430  Biso   1.000  H
  H128     1.0000 0.75420  0.19510  0.94570  Biso   1.000  H
  H129     1.0000 0.22470  0.15220  0.41150  Biso   1.000  H
  H130     1.0000 0.77530  0.15220  0.08850  Biso   1.000  H
  H131     1.0000 0.72470  0.65220  0.41150  Biso   1.000  H
  H132     1.0000 0.27530  0.65220  0.08850  Biso   1.000  H
  H133     1.0000 0.77530  0.84780  0.58850  Biso   1.000  H
  H134     1.0000 0.22470  0.84780  0.91150  Biso   1.000  H
  H135     1.0000 0.27530  0.34780  0.58850  Biso   1.000  H
  H136     1.0000 0.72470  0.34780  0.91150  Biso   1.000  H
  H137     1.0000 0.19330  0.26900  0.43620  Biso   1.000  H
  H138     1.0000 0.80670  0.26900  0.06380  Biso   1.000  H
  H139     1.0000 0.69330  0.76900  0.43620  Biso   1.000  H
  H140     1.0000 0.30670  0.76900  0.06380  Biso   1.000  H
  H141     1.0000 0.80670  0.73100  0.56380  Biso   1.000  H
  H142     1.0000 0.19330  0.73100  0.93620  Biso   1.000  H
  H143     1.0000 0.30670  0.23100  0.56380  Biso   1.000  H
  H144     1.0000 0.69330  0.23100  0.93620  Biso   1.000  H
  C145     1.0000 0.22252  0.31060  0.32821  Biso   1.000  C
  C146     1.0000 0.77748  0.31060  0.17179  Biso   1.000  C
  C147     1.0000 0.72252  0.81060  0.32821  Biso   1.000  C
  C148     1.0000 0.27748  0.81060  0.17179  Biso   1.000  C
  C149     1.0000 0.77748  0.68940  0.67179  Biso   1.000  C
  C150     1.0000 0.22252  0.68940  0.82821  Biso   1.000  C
  C151     1.0000 0.27748  0.18940  0.67179  Biso   1.000  C
  C152     1.0000 0.72252  0.18940  0.82821  Biso   1.000  C
  C153     1.0000 0.27531  0.25070  0.34789  Biso   1.000  C
  C154     1.0000 0.72469  0.25070  0.15211  Biso   1.000  C
  C155     1.0000 0.77531  0.75070  0.34789  Biso   1.000  C
  C156     1.0000 0.22469  0.75070  0.15211  Biso   1.000  C
  C157     1.0000 0.72469  0.74930  0.65211  Biso   1.000  C
  C158     1.0000 0.27531  0.74930  0.84789  Biso   1.000  C
  C159     1.0000 0.22469  0.24930  0.65211  Biso   1.000  C
  C160     1.0000 0.77531  0.24930  0.84789  Biso   1.000  C
  H145     1.0000 0.29640  0.24010  0.38610  Biso   1.000  H
  H146     1.0000 0.70360  0.24010  0.11390  Biso   1.000  H
  H147     1.0000 0.79640  0.74010  0.38610  Biso   1.000  H
  H148     1.0000 0.20360  0.74010  0.11390  Biso   1.000  H
  H149     1.0000 0.70360  0.75990  0.61390  Biso   1.000  H
  H150     1.0000 0.29640  0.75990  0.88610  Biso   1.000  H
  H151     1.0000 0.20360  0.25990  0.61390  Biso   1.000  H
  H152     1.0000 0.79640  0.25990  0.88610  Biso   1.000  H
  C161     1.0000 0.29480  0.20850  0.30860  Biso   1.000  C
  C162     1.0000 0.70520  0.20850  0.19140  Biso   1.000  C
  C163     1.0000 0.79480  0.70850  0.30860  Biso   1.000  C
  C164     1.0000 0.20520  0.70850  0.19140  Biso   1.000  C
  C165     1.0000 0.70520  0.79150  0.69140  Biso   1.000  C
  C166     1.0000 0.29480  0.79150  0.80860  Biso   1.000  C
  C167     1.0000 0.20520  0.29150  0.69140  Biso   1.000  C
  C168     1.0000 0.79480  0.29150  0.80860  Biso   1.000  C
  C169     1.0000 0.26327  0.21700  0.25236  Biso   1.000  C
  C170     1.0000 0.73673  0.21700  0.24764  Biso   1.000  C
  C171     1.0000 0.76327  0.71700  0.25236  Biso   1.000  C
  C172     1.0000 0.23673  0.71700  0.24764  Biso   1.000  C
  C173     1.0000 0.73673  0.78300  0.74764  Biso   1.000  C
  C174     1.0000 0.26327  0.78300  0.75236  Biso   1.000  C
  C175     1.0000 0.23673  0.28300  0.74764  Biso   1.000  C
  C176     1.0000 0.76327  0.28300  0.75236  Biso   1.000  C
  H153     1.0000 0.27680  0.18080  0.22620  Biso   1.000  H
  H154     1.0000 0.72320  0.18080  0.27380  Biso   1.000  H
  H155     1.0000 0.77680  0.68080  0.22620  Biso   1.000  H
  H156     1.0000 0.22320  0.68080  0.27380  Biso   1.000  H
  H157     1.0000 0.72320  0.81920  0.77380  Biso   1.000  H
  H158     1.0000 0.27680  0.81920  0.72620  Biso   1.000  H
  H159     1.0000 0.22320  0.31920  0.77380  Biso   1.000  H
  H160     1.0000 0.77680  0.31920  0.72620  Biso   1.000  H
  C177     1.0000 0.21172  0.27940  0.23508  Biso   1.000  C
  C178     1.0000 0.78828  0.27940  0.26492  Biso   1.000  C
  C179     1.0000 0.71172  0.77940  0.23508  Biso   1.000  C
  C180     1.0000 0.28828  0.77940  0.26492  Biso   1.000  C
  C181     1.0000 0.78828  0.72060  0.76492  Biso   1.000  C
  C182     1.0000 0.21172  0.72060  0.73508  Biso   1.000  C
  C183     1.0000 0.28828  0.22060  0.76492  Biso   1.000  C
  C184     1.0000 0.71172  0.22060  0.73508  Biso   1.000  C
  C185     1.0000 0.19078  0.32980  0.27291  Biso   1.000  C
  C186     1.0000 0.80922  0.32980  0.22709  Biso   1.000  C
  C187     1.0000 0.69078  0.82980  0.27291  Biso   1.000  C
  C188     1.0000 0.30922  0.82980  0.22709  Biso   1.000  C
  C189     1.0000 0.80922  0.67020  0.72709  Biso   1.000  C
  C190     1.0000 0.19078  0.67020  0.77291  Biso   1.000  C
  C191     1.0000 0.30922  0.17020  0.72709  Biso   1.000  C
  C192     1.0000 0.69078  0.17020  0.77291  Biso   1.000  C
  C193     1.0000 0.38300  0.15790  0.37810  Biso   1.000  C
  C194     1.0000 0.61700  0.15790  0.12190  Biso   1.000  C
  C195     1.0000 0.88300  0.65790  0.37810  Biso   1.000  C
  C196     1.0000 0.11700  0.65790  0.12190  Biso   1.000  C
  C197     1.0000 0.61700  0.84210  0.62190  Biso   1.000  C
  C198     1.0000 0.38300  0.84210  0.87810  Biso   1.000  C
  C199     1.0000 0.11700  0.34210  0.62190  Biso   1.000  C
  C200     1.0000 0.88300  0.34210  0.87810  Biso   1.000  C
  H161     1.0000 0.41930  0.13210  0.38120  Biso   1.000  H
  H162     1.0000 0.58070  0.13210  0.11880  Biso   1.000  H
  H163     1.0000 0.91930  0.63210  0.38120  Biso   1.000  H
  H164     1.0000 0.08070  0.63210  0.11880  Biso   1.000  H
  H165     1.0000 0.58070  0.86790  0.61880  Biso   1.000  H
  H166     1.0000 0.41930  0.86790  0.88120  Biso   1.000  H
  H167     1.0000 0.08070  0.36790  0.61880  Biso   1.000  H
  H168     1.0000 0.91930  0.36790  0.88120  Biso   1.000  H
  H169     1.0000 0.37120  0.07890  0.39810  Biso   1.000  H
  H170     1.0000 0.62880  0.07890  0.10190  Biso   1.000  H
  H171     1.0000 0.87120  0.57890  0.39810  Biso   1.000  H
  H172     1.0000 0.12880  0.57890  0.10190  Biso   1.000  H
  H173     1.0000 0.62880  0.92110  0.60190  Biso   1.000  H
  H174     1.0000 0.37120  0.92110  0.89810  Biso   1.000  H
  H175     1.0000 0.12880  0.42110  0.60190  Biso   1.000  H
  H176     1.0000 0.87120  0.42110  0.89810  Biso   1.000  H
  H177     1.0000 0.38300  0.26270  0.39390  Biso   1.000  H
  H178     1.0000 0.61700  0.26270  0.10610  Biso   1.000  H
  H179     1.0000 0.88300  0.76270  0.39390  Biso   1.000  H
  H180     1.0000 0.11700  0.76270  0.10610  Biso   1.000  H
  H181     1.0000 0.61700  0.73730  0.60610  Biso   1.000  H
  H182     1.0000 0.38300  0.73730  0.89390  Biso   1.000  H
  H183     1.0000 0.11700  0.23730  0.60610  Biso   1.000  H
  H184     1.0000 0.88300  0.23730  0.89390  Biso   1.000  H
  C201     1.0000 0.20640  0.26410  0.13907  Biso   1.000  C
  C202     1.0000 0.79360  0.26410  0.36093  Biso   1.000  C
  C203     1.0000 0.70640  0.76410  0.13907  Biso   1.000  C
  C204     1.0000 0.29360  0.76410  0.36093  Biso   1.000  C
  C205     1.0000 0.79360  0.73590  0.86093  Biso   1.000  C
  C206     1.0000 0.20640  0.73590  0.63907  Biso   1.000  C
  C207     1.0000 0.29360  0.23590  0.86093  Biso   1.000  C
  C208     1.0000 0.70640  0.23590  0.63907  Biso   1.000  C
  H185     1.0000 0.21480  0.15180  0.13810  Biso   1.000  H
  H186     1.0000 0.78520  0.15180  0.36190  Biso   1.000  H
  H187     1.0000 0.71480  0.65180  0.13810  Biso   1.000  H
  H188     1.0000 0.28520  0.65180  0.36190  Biso   1.000  H
  H189     1.0000 0.78520  0.84820  0.86190  Biso   1.000  H
  H190     1.0000 0.21480  0.84820  0.63810  Biso   1.000  H
  H191     1.0000 0.28520  0.34820  0.86190  Biso   1.000  H
  H192     1.0000 0.71480  0.34820  0.63810  Biso   1.000  H
  H193     1.0000 0.23960  0.32590  0.15120  Biso   1.000  H
  H194     1.0000 0.76040  0.32590  0.34880  Biso   1.000  H
  H195     1.0000 0.73960  0.82590  0.15120  Biso   1.000  H
  H196     1.0000 0.26040  0.82590  0.34880  Biso   1.000  H
  H197     1.0000 0.76040  0.67410  0.84880  Biso   1.000  H
  H198     1.0000 0.23960  0.67410  0.65120  Biso   1.000  H
  H199     1.0000 0.26040  0.17410  0.84880  Biso   1.000  H
  H200     1.0000 0.73960  0.17410  0.65120  Biso   1.000  H
  H201     1.0000 0.18240  0.29840  0.10220  Biso   1.000  H
  H202     1.0000 0.81760  0.29840  0.39780  Biso   1.000  H
  H203     1.0000 0.68240  0.79840  0.10220  Biso   1.000  H
  H204     1.0000 0.31760  0.79840  0.39780  Biso   1.000  H
  H205     1.0000 0.81760  0.70160  0.89780  Biso   1.000  H
  H206     1.0000 0.18240  0.70160  0.60220  Biso   1.000  H
  H207     1.0000 0.31760  0.20160  0.89780  Biso   1.000  H
  H208     1.0000 0.68240  0.20160  0.60220  Biso   1.000  H
  Cl1      1.0000 0.37633  0.58788  0.00865  Biso   1.000  Cl
  Cl2      1.0000 0.62367  0.58788  0.49135  Biso   1.000  Cl
  Cl3      1.0000 0.87633  0.08788  0.00865  Biso   1.000  Cl
  Cl4      1.0000 0.12367  0.08788  0.49135  Biso   1.000  Cl
  Cl5      1.0000 0.62367  0.41212  0.99135  Biso   1.000  Cl
  Cl6      1.0000 0.37633  0.41212  0.50865  Biso   1.000  Cl
  Cl7      1.0000 0.12367  0.91212  0.99135  Biso   1.000  Cl
  Cl8      1.0000 0.87633  0.91212  0.50865  Biso   1.000  Cl
  O9       1.0000 0.38784  0.56530  0.06559  Biso   1.000  O
  O10      1.0000 0.61216  0.56530  0.43441  Biso   1.000  O
  O11      1.0000 0.88784  0.06530  0.06559  Biso   1.000  O
  O12      1.0000 0.11216  0.06530  0.43441  Biso   1.000  O
  O13      1.0000 0.61216  0.43470  0.93441  Biso   1.000  O
  O14      1.0000 0.38784  0.43470  0.56559  Biso   1.000  O
  O15      1.0000 0.11216  0.93470  0.93441  Biso   1.000  O
  O16      1.0000 0.88784  0.93470  0.56559  Biso   1.000  O
  O17      1.0000 0.42229  0.56990  0.99740  Biso   1.000  O
  O18      1.0000 0.57771  0.56990  0.50260  Biso   1.000  O
  O19      1.0000 0.92229  0.06990  0.99740  Biso   1.000  O
  O20      1.0000 0.07771  0.06990  0.50260  Biso   1.000  O
  O21      1.0000 0.57771  0.43010  0.00260  Biso   1.000  O
  O22      1.0000 0.42229  0.43010  0.49740  Biso   1.000  O
  O23      1.0000 0.07771  0.93010  0.00260  Biso   1.000  O
  O24      1.0000 0.92229  0.93010  0.49740  Biso   1.000  O
  O25      1.0000 0.33387  0.48190  0.97608  Biso   1.000  O
  O26      1.0000 0.66613  0.48190  0.52392  Biso   1.000  O
  O27      1.0000 0.83387  0.98190  0.97608  Biso   1.000  O
  O28      1.0000 0.16613  0.98190  0.52392  Biso   1.000  O
  O29      1.0000 0.66613  0.51810  0.02392  Biso   1.000  O
  O30      1.0000 0.33387  0.51810  0.47608  Biso   1.000  O
  O31      1.0000 0.16613  0.01810  0.02392  Biso   1.000  O
  O32      1.0000 0.83387  0.01810  0.47608  Biso   1.000  O
  O33      1.0000 0.35780  0.75020  0.99620  Biso   1.000  O
  O34      1.0000 0.64220  0.75020  0.50380  Biso   1.000  O
  O35      1.0000 0.85780  0.25020  0.99620  Biso   1.000  O
  O36      1.0000 0.14220  0.25020  0.50380  Biso   1.000  O
  O37      1.0000 0.64220  0.24980  0.00380  Biso   1.000  O
  O38      1.0000 0.35780  0.24980  0.49620  Biso   1.000  O
  O39      1.0000 0.14220  0.74980  0.00380  Biso   1.000  O
  O40      1.0000 0.85780  0.74980  0.49620  Biso   1.000  O
