data_image0
_cell_length_a       9.0066
_cell_length_b       11.104
_cell_length_c       16.0091
_cell_angle_alpha    90
_cell_angle_beta     90
_cell_angle_gamma    90

_symmetry_space_group_name_H-M    "P 1"
_symmetry_int_tables_number       1

loop_
  _symmetry_equiv_pos_as_xyz
  'x, y, z'

loop_
  _atom_site_label
  _atom_site_occupancy
  _atom_site_fract_x
  _atom_site_fract_y
  _atom_site_fract_z
  _atom_site_thermal_displace_type
  _atom_site_B_iso_or_equiv
  _atom_site_type_symbol
  Cu1      1.0000 0.94131  0.69304  0.45194  Biso   1.000  Cu
  Cu2      1.0000 0.55869  0.30696  0.95194  Biso   1.000  Cu
  Cu3      1.0000 0.05869  0.19304  0.04806  Biso   1.000  Cu
  Cu4      1.0000 0.44131  0.80696  0.54806  Biso   1.000  Cu
  N1       1.0000 0.37300  0.97860  0.54490  Biso   1.000  N
  N2       1.0000 0.12700  0.02140  0.04490  Biso   1.000  N
  N3       1.0000 0.62700  0.47860  0.95510  Biso   1.000  N
  N4       1.0000 0.87300  0.52140  0.45510  Biso   1.000  N
  N5       1.0000 0.58460  0.86780  0.63260  Biso   1.000  N
  N6       1.0000 0.91540  0.13220  0.13260  Biso   1.000  N
  N7       1.0000 0.41540  0.36780  0.86740  Biso   1.000  N
  N8       1.0000 0.08460  0.63220  0.36740  Biso   1.000  N
  O1       1.0000 0.25040  0.77010  0.49530  Biso   1.000  O
  O2       1.0000 0.24960  0.22990  0.99530  Biso   1.000  O
  O3       1.0000 0.74960  0.27010  0.00470  Biso   1.000  O
  O4       1.0000 0.75040  0.72990  0.50470  Biso   1.000  O
  O5       1.0000 0.02630  0.84920  0.47470  Biso   1.000  O
  O6       1.0000 0.47370  0.15080  0.97470  Biso   1.000  O
  O7       1.0000 0.97370  0.34920  0.02530  Biso   1.000  O
  O8       1.0000 0.52630  0.65080  0.52530  Biso   1.000  O
  O9       1.0000 0.30240  0.80470  0.67410  Biso   1.000  O
  O10      1.0000 0.19760  0.19530  0.17410  Biso   1.000  O
  O11      1.0000 0.69760  0.30470  0.82590  Biso   1.000  O
  O12      1.0000 0.80240  0.69530  0.32590  Biso   1.000  O
  C1       1.0000 0.21210  0.98120  0.52460  Biso   1.000  C
  C2       1.0000 0.28790  0.01880  0.02460  Biso   1.000  C
  C3       1.0000 0.78790  0.48120  0.97540  Biso   1.000  C
  C4       1.0000 0.71210  0.51880  0.47540  Biso   1.000  C
  C5       1.0000 0.16160  0.85640  0.49600  Biso   1.000  C
  C6       1.0000 0.33840  0.14360  0.99600  Biso   1.000  C
  C7       1.0000 0.83840  0.35640  0.00400  Biso   1.000  C
  C8       1.0000 0.66160  0.64360  0.50400  Biso   1.000  C
  C9       1.0000 0.42360  0.04080  0.62230  Biso   1.000  C
  C10      1.0000 0.07640  0.95920  0.12230  Biso   1.000  C
  C11      1.0000 0.57640  0.54080  0.87770  Biso   1.000  C
  C12      1.0000 0.92360  0.45920  0.37770  Biso   1.000  C
  C13      1.0000 0.49510  0.95340  0.68430  Biso   1.000  C
  C14      1.0000 0.00490  0.04660  0.18430  Biso   1.000  C
  C15      1.0000 0.50490  0.45340  0.81570  Biso   1.000  C
  C16      1.0000 0.99510  0.54660  0.31570  Biso   1.000  C
  C17      1.0000 0.37840  0.87860  0.73060  Biso   1.000  C
  C18      1.0000 0.12160  0.12140  0.23060  Biso   1.000  C
  C19      1.0000 0.62160  0.37860  0.76940  Biso   1.000  C
  C20      1.0000 0.87840  0.62140  0.26940  Biso   1.000  C
  C21      1.0000 0.59030  0.02260  0.74700  Biso   1.000  C
  C22      1.0000 0.90970  0.97740  0.24700  Biso   1.000  C
  C23      1.0000 0.40970  0.52260  0.75300  Biso   1.000  C
  C24      1.0000 0.09030  0.47740  0.25300  Biso   1.000  C
  C25      1.0000 0.17310  0.07660  0.45970  Biso   1.000  C
  C26      1.0000 0.32690  0.92340  0.95970  Biso   1.000  C
  C27      1.0000 0.82690  0.57660  0.04030  Biso   1.000  C
  C28      1.0000 0.67310  0.42340  0.54030  Biso   1.000  C
  C29      1.0000 0.20360  0.20650  0.48550  Biso   1.000  C
  C30      1.0000 0.29640  0.79350  0.98550  Biso   1.000  C
  C31      1.0000 0.79640  0.70650  0.01450  Biso   1.000  C
  C32      1.0000 0.70360  0.29350  0.51450  Biso   1.000  C
  C33      1.0000 0.28150  0.28230  0.43430  Biso   1.000  C
  C34      1.0000 0.21850  0.71770  0.93430  Biso   1.000  C
  C35      1.0000 0.71850  0.78230  0.06570  Biso   1.000  C
  C36      1.0000 0.78150  0.21770  0.56570  Biso   1.000  C
  C37      1.0000 0.30390  0.40240  0.45610  Biso   1.000  C
  C38      1.0000 0.19610  0.59760  0.95610  Biso   1.000  C
  C39      1.0000 0.69610  0.90240  0.04390  Biso   1.000  C
  C40      1.0000 0.80390  0.09760  0.54390  Biso   1.000  C
  C41      1.0000 0.24730  0.44560  0.52940  Biso   1.000  C
  C42      1.0000 0.25270  0.55440  0.02940  Biso   1.000  C
  C43      1.0000 0.75270  0.94560  0.97060  Biso   1.000  C
  C44      1.0000 0.74730  0.05440  0.47060  Biso   1.000  C
  C45      1.0000 0.16900  0.37020  0.58240  Biso   1.000  C
  C46      1.0000 0.33100  0.62980  0.08240  Biso   1.000  C
  C47      1.0000 0.83100  0.87020  0.91760  Biso   1.000  C
  C48      1.0000 0.66900  0.12980  0.41760  Biso   1.000  C
  C49      1.0000 0.14880  0.25080  0.56060  Biso   1.000  C
  C50      1.0000 0.35120  0.74920  0.06060  Biso   1.000  C
  C51      1.0000 0.85120  0.75080  0.93940  Biso   1.000  C
  C52      1.0000 0.64880  0.24920  0.43940  Biso   1.000  C
  O13      1.0000 0.51940  0.38650  0.12530  Biso   1.000  O
  O14      1.0000 0.98060  0.61350  0.62530  Biso   1.000  O
  O15      1.0000 0.48060  0.88650  0.37470  Biso   1.000  O
  O16      1.0000 0.01940  0.11350  0.87470  Biso   1.000  O
  O17      1.0000 0.71840  0.33090  0.21060  Biso   1.000  O
  O18      1.0000 0.78160  0.66910  0.71060  Biso   1.000  O
  O19      1.0000 0.28160  0.83090  0.28940  Biso   1.000  O
  O20      1.0000 0.21840  0.16910  0.78940  Biso   1.000  O
  O21      1.0000 0.49090  0.24190  0.23050  Biso   1.000  O
  O22      1.0000 0.00910  0.75810  0.73050  Biso   1.000  O
  O23      1.0000 0.50910  0.74190  0.26950  Biso   1.000  O
  O24      1.0000 0.99090  0.25810  0.76950  Biso   1.000  O
  O25      1.0000 0.54680  0.21210  0.17000  Biso   1.000  O
  O26      1.0000 0.95320  0.78790  0.67000  Biso   1.000  O
  O27      1.0000 0.45320  0.71210  0.33000  Biso   1.000  O
  O28      1.0000 0.04680  0.28790  0.83000  Biso   1.000  O
  O29      1.0000 0.52910  0.43990  0.26710  Biso   1.000  O
  O30      1.0000 0.97090  0.56010  0.76710  Biso   1.000  O
  O31      1.0000 0.47090  0.93990  0.23290  Biso   1.000  O
  O32      1.0000 0.02910  0.06010  0.73290  Biso   1.000  O
  O33      1.0000 0.46920  0.35090  0.25740  Biso   1.000  O
  O34      1.0000 0.03080  0.64910  0.75740  Biso   1.000  O
  O35      1.0000 0.53080  0.85090  0.24260  Biso   1.000  O
  O36      1.0000 0.96920  0.14910  0.74260  Biso   1.000  O
  Cl1      1.0000 0.56430  0.34608  0.20472  Biso   1.000  Cl
  Cl2      1.0000 0.93570  0.65392  0.70472  Biso   1.000  Cl
  Cl3      1.0000 0.43570  0.84608  0.29528  Biso   1.000  Cl
  Cl4      1.0000 0.06430  0.15392  0.79528  Biso   1.000  Cl
  H1       1.0000 0.41790  0.01130  0.50580  Biso   1.000  H
  H2       1.0000 0.08210  0.98870  0.00580  Biso   1.000  H
  H3       1.0000 0.58210  0.51130  0.99420  Biso   1.000  H
  H4       1.0000 0.91790  0.48870  0.49420  Biso   1.000  H
  H5       1.0000 0.20310  0.76030  0.69320  Biso   1.000  H
  H6       1.0000 0.29690  0.23970  0.19320  Biso   1.000  H
  H7       1.0000 0.79690  0.26030  0.80680  Biso   1.000  H
  H8       1.0000 0.70310  0.73970  0.30680  Biso   1.000  H
  H9       1.0000 0.16730  0.99790  0.57630  Biso   1.000  H
  H10      1.0000 0.33270  0.00210  0.07630  Biso   1.000  H
  H11      1.0000 0.83270  0.49790  0.92370  Biso   1.000  H
  H12      1.0000 0.66730  0.50210  0.42370  Biso   1.000  H
  H13      1.0000 0.62350  0.82390  0.66650  Biso   1.000  H
  H14      1.0000 0.87650  0.17610  0.16650  Biso   1.000  H
  H15      1.0000 0.37650  0.32390  0.83350  Biso   1.000  H
  H16      1.0000 0.12350  0.67610  0.33350  Biso   1.000  H
  H17      1.0000 0.65580  0.90240  0.60930  Biso   1.000  H
  H18      1.0000 0.84420  0.09760  0.10930  Biso   1.000  H
  H19      1.0000 0.34420  0.40240  0.89070  Biso   1.000  H
  H20      1.0000 0.15580  0.59760  0.39070  Biso   1.000  H
  H21      1.0000 0.49200  0.09820  0.60520  Biso   1.000  H
  H22      1.0000 0.00800  0.90180  0.10520  Biso   1.000  H
  H23      1.0000 0.50800  0.59820  0.89480  Biso   1.000  H
  H24      1.0000 0.99200  0.40180  0.39480  Biso   1.000  H
  H25      1.0000 0.34510  0.06940  0.64790  Biso   1.000  H
  H26      1.0000 0.15490  0.93060  0.14790  Biso   1.000  H
  H27      1.0000 0.65490  0.56940  0.85210  Biso   1.000  H
  H28      1.0000 0.84510  0.43060  0.35210  Biso   1.000  H
  H29      1.0000 0.42670  0.82420  0.76630  Biso   1.000  H
  H30      1.0000 0.07330  0.17580  0.26630  Biso   1.000  H
  H31      1.0000 0.57330  0.32420  0.73370  Biso   1.000  H
  H32      1.0000 0.92670  0.67580  0.23370  Biso   1.000  H
  H33      1.0000 0.30760  0.93980  0.76270  Biso   1.000  H
  H34      1.0000 0.19240  0.06020  0.26270  Biso   1.000  H
  H35      1.0000 0.69240  0.43980  0.73730  Biso   1.000  H
  H36      1.0000 0.80760  0.56020  0.23730  Biso   1.000  H
  H37      1.0000 0.68640  0.06510  0.72450  Biso   1.000  H
  H38      1.0000 0.81360  0.93490  0.22450  Biso   1.000  H
  H39      1.0000 0.31360  0.56510  0.77550  Biso   1.000  H
  H40      1.0000 0.18640  0.43490  0.27550  Biso   1.000  H
  H41      1.0000 0.52690  0.06760  0.77690  Biso   1.000  H
  H42      1.0000 0.97310  0.93240  0.27690  Biso   1.000  H
  H43      1.0000 0.47310  0.56760  0.72310  Biso   1.000  H
  H44      1.0000 0.02690  0.43240  0.22310  Biso   1.000  H
  H45      1.0000 0.62870  0.98240  0.78450  Biso   1.000  H
  H46      1.0000 0.87130  0.01760  0.28450  Biso   1.000  H
  H47      1.0000 0.37130  0.48240  0.71550  Biso   1.000  H
  H48      1.0000 0.12870  0.51760  0.21550  Biso   1.000  H
  H49      1.0000 0.07470  0.06370  0.44410  Biso   1.000  H
  H50      1.0000 0.42530  0.93630  0.94410  Biso   1.000  H
  H51      1.0000 0.92530  0.56370  0.05590  Biso   1.000  H
  H52      1.0000 0.57470  0.43630  0.55590  Biso   1.000  H
  H53      1.0000 0.23170  0.06360  0.41490  Biso   1.000  H
  H54      1.0000 0.26830  0.93640  0.91490  Biso   1.000  H
  H55      1.0000 0.76830  0.56360  0.08510  Biso   1.000  H
  H56      1.0000 0.73170  0.43640  0.58510  Biso   1.000  H
  H57      1.0000 0.32530  0.25760  0.38450  Biso   1.000  H
  H58      1.0000 0.17470  0.74240  0.88450  Biso   1.000  H
  H59      1.0000 0.67470  0.75760  0.11550  Biso   1.000  H
  H60      1.0000 0.82530  0.24240  0.61550  Biso   1.000  H
  H61      1.0000 0.35430  0.45350  0.41610  Biso   1.000  H
  H62      1.0000 0.14570  0.54650  0.91610  Biso   1.000  H
  H63      1.0000 0.64570  0.95350  0.08390  Biso   1.000  H
  H64      1.0000 0.85430  0.04650  0.58390  Biso   1.000  H
  H65      1.0000 0.25340  0.51870  0.54330  Biso   1.000  H
  H66      1.0000 0.24660  0.48130  0.04330  Biso   1.000  H
  H67      1.0000 0.74660  0.01870  0.95670  Biso   1.000  H
  H68      1.0000 0.75340  0.98130  0.45670  Biso   1.000  H
  H69      1.0000 0.13000  0.40100  0.62570  Biso   1.000  H
  H70      1.0000 0.37000  0.59900  0.12570  Biso   1.000  H
  H71      1.0000 0.87000  0.90100  0.87430  Biso   1.000  H
  H72      1.0000 0.63000  0.09900  0.37430  Biso   1.000  H
  H73      1.0000 0.08890  0.20420  0.59300  Biso   1.000  H
  H74      1.0000 0.41110  0.79580  0.09300  Biso   1.000  H
  H75      1.0000 0.91110  0.70420  0.90700  Biso   1.000  H
  H76      1.0000 0.58890  0.29580  0.40700  Biso   1.000  H
