data_image0
_cell_length_a       8.986
_cell_length_b       9.62
_cell_length_c       10.908
_cell_angle_alpha    90
_cell_angle_beta     104.8
_cell_angle_gamma    90

_symmetry_space_group_name_H-M    "P 1"
_symmetry_int_tables_number       1

loop_
  _symmetry_equiv_pos_as_xyz
  'x, y, z'

loop_
  _atom_site_label
  _atom_site_occupancy
  _atom_site_fract_x
  _atom_site_fract_y
  _atom_site_fract_z
  _atom_site_thermal_displace_type
  _atom_site_B_iso_or_equiv
  _atom_site_type_symbol
  Cu1      1.0000 0.00000  0.00000  0.00000  Biso   1.000  Cu
  Cu2      1.0000 0.00000  0.50000  0.50000  Biso   1.000  Cu
  F1       1.0000 0.47300  0.31600  0.09000  Biso   1.000  F
  F2       1.0000 0.52700  0.81600  0.41000  Biso   1.000  F
  F3       1.0000 0.52700  0.68400  0.91000  Biso   1.000  F
  F4       1.0000 0.47300  0.18400  0.59000  Biso   1.000  F
  F5       1.0000 0.44400  0.17000  0.24300  Biso   1.000  F
  F6       1.0000 0.55600  0.67000  0.25700  Biso   1.000  F
  F7       1.0000 0.55600  0.83000  0.75700  Biso   1.000  F
  F8       1.0000 0.44400  0.33000  0.74300  Biso   1.000  F
  F9       1.0000 0.55600  0.10000  0.11400  Biso   1.000  F
  F10      1.0000 0.44400  0.60000  0.38600  Biso   1.000  F
  F11      1.0000 0.44400  0.90000  0.88600  Biso   1.000  F
  F12      1.0000 0.55600  0.40000  0.61400  Biso   1.000  F
  F13      1.0000 0.50300  0.07900  0.20300  Biso   1.000  F
  F14      1.0000 0.49700  0.57900  0.29700  Biso   1.000  F
  F15      1.0000 0.49700  0.92100  0.79700  Biso   1.000  F
  F16      1.0000 0.50300  0.42100  0.70300  Biso   1.000  F
  F17      1.0000 0.43300  0.29100  0.17700  Biso   1.000  F
  F18      1.0000 0.56700  0.79100  0.32300  Biso   1.000  F
  F19      1.0000 0.56700  0.70900  0.82300  Biso   1.000  F
  F20      1.0000 0.43300  0.20900  0.67700  Biso   1.000  F
  F21      1.0000 0.55600  0.16600  0.05400  Biso   1.000  F
  F22      1.0000 0.44400  0.66600  0.44600  Biso   1.000  F
  F23      1.0000 0.44400  0.83400  0.94600  Biso   1.000  F
  F24      1.0000 0.55600  0.33400  0.55400  Biso   1.000  F
  O1       1.0000 0.96900  0.95400  0.22900  Biso   1.000  O
  O2       1.0000 0.03100  0.45400  0.27100  Biso   1.000  O
  O3       1.0000 0.03100  0.04600  0.77100  Biso   1.000  O
  O4       1.0000 0.96900  0.54600  0.72900  Biso   1.000  O
  O5       1.0000 0.21400  0.04900  0.07700  Biso   1.000  O
  O6       1.0000 0.78600  0.54900  0.42300  Biso   1.000  O
  O7       1.0000 0.78600  0.95100  0.92300  Biso   1.000  O
  O8       1.0000 0.21400  0.45100  0.57700  Biso   1.000  O
  O9       1.0000 0.26300  0.18000  0.92400  Biso   1.000  O
  O10      1.0000 0.73700  0.68000  0.57600  Biso   1.000  O
  O11      1.0000 0.73700  0.82000  0.07600  Biso   1.000  O
  O12      1.0000 0.26300  0.32000  0.42400  Biso   1.000  O
  N1       1.0000 0.93700  0.19400  0.02700  Biso   1.000  N
  N2       1.0000 0.06300  0.69400  0.47300  Biso   1.000  N
  N3       1.0000 0.06300  0.80600  0.97300  Biso   1.000  N
  N4       1.0000 0.93700  0.30600  0.52700  Biso   1.000  N
  C1       1.0000 0.00200  0.25900  0.13300  Biso   1.000  C
  C2       1.0000 0.99800  0.75900  0.36700  Biso   1.000  C
  C3       1.0000 0.99800  0.74100  0.86700  Biso   1.000  C
  C4       1.0000 0.00200  0.24100  0.63300  Biso   1.000  C
  C5       1.0000 0.04200  0.89100  0.33800  Biso   1.000  C
  C6       1.0000 0.95800  0.39100  0.16200  Biso   1.000  C
  C7       1.0000 0.95800  0.10900  0.66200  Biso   1.000  C
  C8       1.0000 0.04200  0.60900  0.83800  Biso   1.000  C
  C9       1.0000 0.15900  0.95500  0.42400  Biso   1.000  C
  C10      1.0000 0.84100  0.45500  0.07600  Biso   1.000  C
  C11      1.0000 0.84100  0.04500  0.57600  Biso   1.000  C
  C12      1.0000 0.15900  0.54500  0.92400  Biso   1.000  C
  C13      1.0000 0.22800  0.89300  0.53600  Biso   1.000  C
  C14      1.0000 0.77200  0.39300  0.96400  Biso   1.000  C
  C15      1.0000 0.77200  0.10700  0.46400  Biso   1.000  C
  C16      1.0000 0.22800  0.60700  0.03600  Biso   1.000  C
  C17      1.0000 0.82600  0.25800  0.94200  Biso   1.000  C
  C18      1.0000 0.17400  0.75800  0.55800  Biso   1.000  C
  C19      1.0000 0.17400  0.74200  0.05800  Biso   1.000  C
  C20      1.0000 0.82600  0.24200  0.44200  Biso   1.000  C
  C21      1.0000 0.29600  0.12800  0.03100  Biso   1.000  C
  C22      1.0000 0.70400  0.62800  0.46900  Biso   1.000  C
  C23      1.0000 0.70400  0.87200  0.96900  Biso   1.000  C
  C24      1.0000 0.29600  0.37200  0.53100  Biso   1.000  C
  C25      1.0000 0.44700  0.17800  0.12100  Biso   1.000  C
  C26      1.0000 0.55300  0.67800  0.37900  Biso   1.000  C
  C27      1.0000 0.55300  0.82200  0.87900  Biso   1.000  C
  C28      1.0000 0.44700  0.32200  0.62100  Biso   1.000  C
  H1       1.0000 0.08330  0.21400  0.19320  Biso   1.000  H
  H2       1.0000 0.91670  0.71400  0.30680  Biso   1.000  H
  H3       1.0000 0.91670  0.78600  0.80680  Biso   1.000  H
  H4       1.0000 0.08330  0.28600  0.69320  Biso   1.000  H
  H5       1.0000 0.19300  0.04430  0.40590  Biso   1.000  H
  H6       1.0000 0.80700  0.54430  0.09410  Biso   1.000  H
  H7       1.0000 0.80700  0.95570  0.59410  Biso   1.000  H
  H8       1.0000 0.19300  0.45570  0.90590  Biso   1.000  H
  H9       1.0000 0.30730  0.93810  0.59750  Biso   1.000  H
  H10      1.0000 0.69270  0.43810  0.90250  Biso   1.000  H
  H11      1.0000 0.69270  0.06190  0.40250  Biso   1.000  H
  H12      1.0000 0.30730  0.56190  0.09750  Biso   1.000  H
  H13      1.0000 0.78030  0.21260  0.86430  Biso   1.000  H
  H14      1.0000 0.21970  0.71260  0.63570  Biso   1.000  H
  H15      1.0000 0.21970  0.78740  0.13570  Biso   1.000  H
  H16      1.0000 0.78030  0.28740  0.36430  Biso   1.000  H
  H17      1.0000 0.87610  0.92430  0.18750  Biso   1.000  H
  H18      1.0000 0.12390  0.42430  0.31250  Biso   1.000  H
  H19      1.0000 0.12390  0.07570  0.81250  Biso   1.000  H
  H20      1.0000 0.87610  0.57570  0.68750  Biso   1.000  H
