data_image0
_cell_length_a       16.228
_cell_length_b       11.078
_cell_length_c       13.985
_cell_angle_alpha    90
_cell_angle_beta     114.43
_cell_angle_gamma    90

_symmetry_space_group_name_H-M    "P 1"
_symmetry_int_tables_number       1

loop_
  _symmetry_equiv_pos_as_xyz
  'x, y, z'

loop_
  _atom_site_label
  _atom_site_occupancy
  _atom_site_fract_x
  _atom_site_fract_y
  _atom_site_fract_z
  _atom_site_thermal_displace_type
  _atom_site_B_iso_or_equiv
  _atom_site_type_symbol
  Cu1      1.0000 0.00000  0.60180  0.75000  Biso   1.000  Cu
  Cu2      1.0000 0.50000  0.10180  0.75000  Biso   1.000  Cu
  Cu3      1.0000 0.00000  0.39820  0.25000  Biso   1.000  Cu
  Cu4      1.0000 0.50000  0.89820  0.25000  Biso   1.000  Cu
  N1       1.0000 0.00000  0.78070  0.75000  Biso   1.000  N
  N2       1.0000 0.50000  0.28070  0.75000  Biso   1.000  N
  N3       1.0000 0.00000  0.21930  0.25000  Biso   1.000  N
  N4       1.0000 0.50000  0.71930  0.25000  Biso   1.000  N
  N5       1.0000 0.00000  0.42180  0.75000  Biso   1.000  N
  N6       1.0000 0.50000  0.92180  0.75000  Biso   1.000  N
  N7       1.0000 0.00000  0.57820  0.25000  Biso   1.000  N
  N8       1.0000 0.50000  0.07820  0.25000  Biso   1.000  N
  C1       1.0000 0.07560  0.84500  0.77090  Biso   1.000  C
  C2       1.0000 0.92440  0.84500  0.72910  Biso   1.000  C
  C3       1.0000 0.57560  0.34500  0.77090  Biso   1.000  C
  C4       1.0000 0.42440  0.34500  0.72910  Biso   1.000  C
  C5       1.0000 0.92440  0.15500  0.22910  Biso   1.000  C
  C6       1.0000 0.07560  0.15500  0.27090  Biso   1.000  C
  C7       1.0000 0.42440  0.65500  0.22910  Biso   1.000  C
  C8       1.0000 0.57560  0.65500  0.27090  Biso   1.000  C
  C9       1.0000 0.07960  0.96770  0.77510  Biso   1.000  C
  C10      1.0000 0.92040  0.96770  0.72490  Biso   1.000  C
  C11      1.0000 0.57960  0.46770  0.77510  Biso   1.000  C
  C12      1.0000 0.42040  0.46770  0.72490  Biso   1.000  C
  C13      1.0000 0.92040  0.03230  0.22490  Biso   1.000  C
  C14      1.0000 0.07960  0.03230  0.27510  Biso   1.000  C
  C15      1.0000 0.42040  0.53230  0.22490  Biso   1.000  C
  C16      1.0000 0.57960  0.53230  0.27510  Biso   1.000  C
  C17      1.0000 0.00000  0.03600  0.75000  Biso   1.000  C
  C18      1.0000 0.50000  0.53600  0.75000  Biso   1.000  C
  C19      1.0000 0.00000  0.96400  0.25000  Biso   1.000  C
  C20      1.0000 0.50000  0.46400  0.25000  Biso   1.000  C
  C21      1.0000 0.00000  0.17240  0.75000  Biso   1.000  C
  C22      1.0000 0.50000  0.67240  0.75000  Biso   1.000  C
  C23      1.0000 0.00000  0.82760  0.25000  Biso   1.000  C
  C24      1.0000 0.50000  0.32760  0.25000  Biso   1.000  C
  C25      1.0000 0.92400  0.23460  0.74180  Biso   1.000  C
  C26      1.0000 0.07600  0.23460  0.75820  Biso   1.000  C
  C27      1.0000 0.42400  0.73460  0.74180  Biso   1.000  C
  C28      1.0000 0.57600  0.73460  0.75820  Biso   1.000  C
  C29      1.0000 0.07600  0.76540  0.25820  Biso   1.000  C
  C30      1.0000 0.92400  0.76540  0.24180  Biso   1.000  C
  C31      1.0000 0.57600  0.26540  0.25820  Biso   1.000  C
  C32      1.0000 0.42400  0.26540  0.24180  Biso   1.000  C
  C33      1.0000 0.92660  0.36010  0.74130  Biso   1.000  C
  C34      1.0000 0.07340  0.36010  0.75870  Biso   1.000  C
  C35      1.0000 0.42660  0.86010  0.74130  Biso   1.000  C
  C36      1.0000 0.57340  0.86010  0.75870  Biso   1.000  C
  C37      1.0000 0.07340  0.63990  0.25870  Biso   1.000  C
  C38      1.0000 0.92660  0.63990  0.24130  Biso   1.000  C
  C39      1.0000 0.57340  0.13990  0.25870  Biso   1.000  C
  C40      1.0000 0.42660  0.13990  0.24130  Biso   1.000  C
  N9       1.0000 0.26860  0.56310  0.93660  Biso   1.000  N
  N10      1.0000 0.73140  0.56310  0.56340  Biso   1.000  N
  N11      1.0000 0.76860  0.06310  0.93660  Biso   1.000  N
  N12      1.0000 0.23140  0.06310  0.56340  Biso   1.000  N
  N13      1.0000 0.73140  0.43690  0.06340  Biso   1.000  N
  N14      1.0000 0.26860  0.43690  0.43660  Biso   1.000  N
  N15      1.0000 0.23140  0.93690  0.06340  Biso   1.000  N
  N16      1.0000 0.76860  0.93690  0.43660  Biso   1.000  N
  C41      1.0000 0.29980  0.45230  0.95280  Biso   1.000  C
  C42      1.0000 0.70020  0.45230  0.54720  Biso   1.000  C
  C43      1.0000 0.79980  0.95230  0.95280  Biso   1.000  C
  C44      1.0000 0.20020  0.95230  0.54720  Biso   1.000  C
  C45      1.0000 0.70020  0.54770  0.04720  Biso   1.000  C
  C46      1.0000 0.29980  0.54770  0.45280  Biso   1.000  C
  C47      1.0000 0.20020  0.04770  0.04720  Biso   1.000  C
  C48      1.0000 0.79980  0.04770  0.45280  Biso   1.000  C
  C49      1.0000 0.38990  0.42260  0.97880  Biso   1.000  C
  C50      1.0000 0.61010  0.42260  0.52120  Biso   1.000  C
  C51      1.0000 0.88990  0.92260  0.97880  Biso   1.000  C
  C52      1.0000 0.11010  0.92260  0.52120  Biso   1.000  C
  C53      1.0000 0.61010  0.57740  0.02120  Biso   1.000  C
  C54      1.0000 0.38990  0.57740  0.47880  Biso   1.000  C
  C55      1.0000 0.11010  0.07740  0.02120  Biso   1.000  C
  C56      1.0000 0.88990  0.07740  0.47880  Biso   1.000  C
  C57      1.0000 0.45020  0.51400  0.98530  Biso   1.000  C
  C58      1.0000 0.54980  0.51400  0.51470  Biso   1.000  C
  C59      1.0000 0.95020  0.01400  0.98530  Biso   1.000  C
  C60      1.0000 0.04980  0.01400  0.51470  Biso   1.000  C
  C61      1.0000 0.54980  0.48600  0.01470  Biso   1.000  C
  C62      1.0000 0.45020  0.48600  0.48530  Biso   1.000  C
  C63      1.0000 0.04980  0.98600  0.01470  Biso   1.000  C
  C64      1.0000 0.95020  0.98600  0.48530  Biso   1.000  C
  C65      1.0000 0.41900  0.63120  0.97270  Biso   1.000  C
  C66      1.0000 0.58100  0.63120  0.52730  Biso   1.000  C
  C67      1.0000 0.91900  0.13120  0.97270  Biso   1.000  C
  C68      1.0000 0.08100  0.13120  0.52730  Biso   1.000  C
  C69      1.0000 0.58100  0.36880  0.02730  Biso   1.000  C
  C70      1.0000 0.41900  0.36880  0.47270  Biso   1.000  C
  C71      1.0000 0.08100  0.86880  0.02730  Biso   1.000  C
  C72      1.0000 0.91900  0.86880  0.47270  Biso   1.000  C
  C73      1.0000 0.32840  0.65340  0.94790  Biso   1.000  C
  C74      1.0000 0.67160  0.65340  0.55210  Biso   1.000  C
  C75      1.0000 0.82840  0.15340  0.94790  Biso   1.000  C
  C76      1.0000 0.17160  0.15340  0.55210  Biso   1.000  C
  C77      1.0000 0.67160  0.34660  0.05210  Biso   1.000  C
  C78      1.0000 0.32840  0.34660  0.44790  Biso   1.000  C
  C79      1.0000 0.17160  0.84660  0.05210  Biso   1.000  C
  C80      1.0000 0.82840  0.84660  0.44790  Biso   1.000  C
  O1       1.0000 0.09380  0.60450  0.89470  Biso   1.000  O
  O2       1.0000 0.90620  0.60450  0.60530  Biso   1.000  O
  O3       1.0000 0.59380  0.10450  0.89470  Biso   1.000  O
  O4       1.0000 0.40620  0.10450  0.60530  Biso   1.000  O
  O5       1.0000 0.90620  0.39550  0.10530  Biso   1.000  O
  O6       1.0000 0.09380  0.39550  0.39470  Biso   1.000  O
  O7       1.0000 0.40620  0.89550  0.10530  Biso   1.000  O
  O8       1.0000 0.59380  0.89550  0.39470  Biso   1.000  O
  B1       1.0000 0.15040  0.58590  0.61460  Biso   1.000  B
  B2       1.0000 0.84960  0.58590  0.88540  Biso   1.000  B
  B3       1.0000 0.65040  0.08590  0.61460  Biso   1.000  B
  B4       1.0000 0.34960  0.08590  0.88540  Biso   1.000  B
  B5       1.0000 0.84960  0.41410  0.38540  Biso   1.000  B
  B6       1.0000 0.15040  0.41410  0.11460  Biso   1.000  B
  B7       1.0000 0.34960  0.91410  0.38540  Biso   1.000  B
  B8       1.0000 0.65040  0.91410  0.11460  Biso   1.000  B
  F1       1.0000 0.21490  0.66970  0.62480  Biso   1.000  F
  F2       1.0000 0.78510  0.66970  0.87520  Biso   1.000  F
  F3       1.0000 0.71490  0.16970  0.62480  Biso   1.000  F
  F4       1.0000 0.28510  0.16970  0.87520  Biso   1.000  F
  F5       1.0000 0.78510  0.33030  0.37520  Biso   1.000  F
  F6       1.0000 0.21490  0.33030  0.12480  Biso   1.000  F
  F7       1.0000 0.28510  0.83030  0.37520  Biso   1.000  F
  F8       1.0000 0.71490  0.83030  0.12480  Biso   1.000  F
  F9       1.0000 0.11760  0.60890  0.69000  Biso   1.000  F
  F10      1.0000 0.88240  0.60890  0.81000  Biso   1.000  F
  F11      1.0000 0.61760  0.10890  0.69000  Biso   1.000  F
  F12      1.0000 0.38240  0.10890  0.81000  Biso   1.000  F
  F13      1.0000 0.88240  0.39110  0.31000  Biso   1.000  F
  F14      1.0000 0.11760  0.39110  0.19000  Biso   1.000  F
  F15      1.0000 0.38240  0.89110  0.31000  Biso   1.000  F
  F16      1.0000 0.61760  0.89110  0.19000  Biso   1.000  F
  F17      1.0000 0.18790  0.47070  0.62970  Biso   1.000  F
  F18      1.0000 0.81210  0.47070  0.87030  Biso   1.000  F
  F19      1.0000 0.68790  0.97070  0.62970  Biso   1.000  F
  F20      1.0000 0.31210  0.97070  0.87030  Biso   1.000  F
  F21      1.0000 0.81210  0.52930  0.37030  Biso   1.000  F
  F22      1.0000 0.18790  0.52930  0.12970  Biso   1.000  F
  F23      1.0000 0.31210  0.02930  0.37030  Biso   1.000  F
  F24      1.0000 0.68790  0.02930  0.12970  Biso   1.000  F
  F25      1.0000 0.08150  0.59660  0.51690  Biso   1.000  F
  F26      1.0000 0.91850  0.59660  0.98310  Biso   1.000  F
  F27      1.0000 0.58150  0.09660  0.51690  Biso   1.000  F
  F28      1.0000 0.41850  0.09660  0.98310  Biso   1.000  F
  F29      1.0000 0.91850  0.40340  0.48310  Biso   1.000  F
  F30      1.0000 0.08150  0.40340  0.01690  Biso   1.000  F
  F31      1.0000 0.41850  0.90340  0.48310  Biso   1.000  F
  F32      1.0000 0.58150  0.90340  0.01690  Biso   1.000  F
  H1       1.0000 0.13230  0.79950  0.78420  Biso   1.000  H
  H2       1.0000 0.86770  0.79950  0.71580  Biso   1.000  H
  H3       1.0000 0.63230  0.29950  0.78420  Biso   1.000  H
  H4       1.0000 0.36770  0.29950  0.71580  Biso   1.000  H
  H5       1.0000 0.86770  0.20050  0.21580  Biso   1.000  H
  H6       1.0000 0.13230  0.20050  0.28420  Biso   1.000  H
  H7       1.0000 0.36770  0.70050  0.21580  Biso   1.000  H
  H8       1.0000 0.63230  0.70050  0.28420  Biso   1.000  H
  H9       1.0000 0.13900  0.00990  0.79650  Biso   1.000  H
  H10      1.0000 0.86100  0.00990  0.70350  Biso   1.000  H
  H11      1.0000 0.63900  0.50990  0.79650  Biso   1.000  H
  H12      1.0000 0.36100  0.50990  0.70350  Biso   1.000  H
  H13      1.0000 0.86100  0.99010  0.20350  Biso   1.000  H
  H14      1.0000 0.13900  0.99010  0.29650  Biso   1.000  H
  H15      1.0000 0.36100  0.49010  0.20350  Biso   1.000  H
  H16      1.0000 0.63900  0.49010  0.29650  Biso   1.000  H
  H17      1.0000 0.86810  0.19050  0.73500  Biso   1.000  H
  H18      1.0000 0.13190  0.19050  0.76500  Biso   1.000  H
  H19      1.0000 0.36810  0.69050  0.73500  Biso   1.000  H
  H20      1.0000 0.63190  0.69050  0.76500  Biso   1.000  H
  H21      1.0000 0.13190  0.80950  0.26500  Biso   1.000  H
  H22      1.0000 0.86810  0.80950  0.23500  Biso   1.000  H
  H23      1.0000 0.63190  0.30950  0.26500  Biso   1.000  H
  H24      1.0000 0.36810  0.30950  0.23500  Biso   1.000  H
  H25      1.0000 0.12820  0.40650  0.76490  Biso   1.000  H
  H26      1.0000 0.87180  0.40650  0.73510  Biso   1.000  H
  H27      1.0000 0.62820  0.90650  0.76490  Biso   1.000  H
  H28      1.0000 0.37180  0.90650  0.73510  Biso   1.000  H
  H29      1.0000 0.87180  0.59350  0.23510  Biso   1.000  H
  H30      1.0000 0.12820  0.59350  0.26490  Biso   1.000  H
  H31      1.0000 0.37180  0.09350  0.23510  Biso   1.000  H
  H32      1.0000 0.62820  0.09350  0.26490  Biso   1.000  H
  H33      1.0000 0.25630  0.38550  0.94600  Biso   1.000  H
  H34      1.0000 0.74370  0.38550  0.55400  Biso   1.000  H
  H35      1.0000 0.75630  0.88550  0.94600  Biso   1.000  H
  H36      1.0000 0.24370  0.88550  0.55400  Biso   1.000  H
  H37      1.0000 0.74370  0.61450  0.05400  Biso   1.000  H
  H38      1.0000 0.25630  0.61450  0.44600  Biso   1.000  H
  H39      1.0000 0.24370  0.11450  0.05400  Biso   1.000  H
  H40      1.0000 0.75630  0.11450  0.44600  Biso   1.000  H
  H41      1.0000 0.41090  0.33690  0.99220  Biso   1.000  H
  H42      1.0000 0.58910  0.33690  0.50780  Biso   1.000  H
  H43      1.0000 0.91090  0.83690  0.99220  Biso   1.000  H
  H44      1.0000 0.08910  0.83690  0.50780  Biso   1.000  H
  H45      1.0000 0.58910  0.66310  0.00780  Biso   1.000  H
  H46      1.0000 0.41090  0.66310  0.49220  Biso   1.000  H
  H47      1.0000 0.08910  0.16310  0.00780  Biso   1.000  H
  H48      1.0000 0.91090  0.16310  0.49220  Biso   1.000  H
  H49      1.0000 0.46130  0.69960  0.98120  Biso   1.000  H
  H50      1.0000 0.53870  0.69960  0.51880  Biso   1.000  H
  H51      1.0000 0.96130  0.19960  0.98120  Biso   1.000  H
  H52      1.0000 0.03870  0.19960  0.51880  Biso   1.000  H
  H53      1.0000 0.53870  0.30040  0.01880  Biso   1.000  H
  H54      1.0000 0.46130  0.30040  0.48120  Biso   1.000  H
  H55      1.0000 0.03870  0.80040  0.01880  Biso   1.000  H
  H56      1.0000 0.96130  0.80040  0.48120  Biso   1.000  H
  H57      1.0000 0.30650  0.73870  0.93890  Biso   1.000  H
  H58      1.0000 0.69350  0.73870  0.56110  Biso   1.000  H
  H59      1.0000 0.80650  0.23870  0.93890  Biso   1.000  H
  H60      1.0000 0.19350  0.23870  0.56110  Biso   1.000  H
  H61      1.0000 0.69350  0.26130  0.06110  Biso   1.000  H
  H62      1.0000 0.30650  0.26130  0.43890  Biso   1.000  H
  H63      1.0000 0.19350  0.76130  0.06110  Biso   1.000  H
  H64      1.0000 0.80650  0.76130  0.43890  Biso   1.000  H
  H65      1.0000 0.07230  0.54760  0.93580  Biso   1.000  H
  H66      1.0000 0.92770  0.54760  0.56420  Biso   1.000  H
  H67      1.0000 0.57230  0.04760  0.93580  Biso   1.000  H
  H68      1.0000 0.42770  0.04760  0.56420  Biso   1.000  H
  H69      1.0000 0.92770  0.45240  0.06420  Biso   1.000  H
  H70      1.0000 0.07230  0.45240  0.43580  Biso   1.000  H
  H71      1.0000 0.42770  0.95240  0.06420  Biso   1.000  H
  H72      1.0000 0.57230  0.95240  0.43580  Biso   1.000  H
  H73      1.0000 0.15540  0.58330  0.91270  Biso   1.000  H
  H74      1.0000 0.84460  0.58330  0.58730  Biso   1.000  H
  H75      1.0000 0.65540  0.08330  0.91270  Biso   1.000  H
  H76      1.0000 0.34460  0.08330  0.58730  Biso   1.000  H
  H77      1.0000 0.84460  0.41670  0.08730  Biso   1.000  H
  H78      1.0000 0.15540  0.41670  0.41270  Biso   1.000  H
  H79      1.0000 0.34460  0.91670  0.08730  Biso   1.000  H
  H80      1.0000 0.65540  0.91670  0.41270  Biso   1.000  H
