data_image0
_cell_length_a       13.2831
_cell_length_b       22.7439
_cell_length_c       18.6354
_cell_angle_alpha    90
_cell_angle_beta     109.05
_cell_angle_gamma    90

_symmetry_space_group_name_H-M    "P 1"
_symmetry_int_tables_number       1

loop_
  _symmetry_equiv_pos_as_xyz
  'x, y, z'

loop_
  _atom_site_label
  _atom_site_occupancy
  _atom_site_fract_x
  _atom_site_fract_y
  _atom_site_fract_z
  _atom_site_thermal_displace_type
  _atom_site_B_iso_or_equiv
  _atom_site_type_symbol
  Cu1      1.0000 0.44727  0.26261  0.51299  Biso   1.000  Cu
  Cu2      1.0000 0.55273  0.76261  0.98701  Biso   1.000  Cu
  Cu3      1.0000 0.55273  0.73739  0.48701  Biso   1.000  Cu
  Cu4      1.0000 0.44727  0.23739  0.01299  Biso   1.000  Cu
  N1       1.0000 0.49830  0.25950  0.42297  Biso   1.000  N
  N2       1.0000 0.50170  0.75950  0.07703  Biso   1.000  N
  N3       1.0000 0.50170  0.74050  0.57703  Biso   1.000  N
  N4       1.0000 0.49830  0.24050  0.92297  Biso   1.000  N
  C1       1.0000 0.53430  0.30238  0.38990  Biso   1.000  C
  C2       1.0000 0.46570  0.80238  0.11010  Biso   1.000  C
  C3       1.0000 0.46570  0.69762  0.61010  Biso   1.000  C
  C4       1.0000 0.53430  0.19762  0.88990  Biso   1.000  C
  H1       1.0000 0.53280  0.34110  0.40710  Biso   1.000  H
  H2       1.0000 0.46720  0.84110  0.09290  Biso   1.000  H
  H3       1.0000 0.46720  0.65890  0.59290  Biso   1.000  H
  H4       1.0000 0.53280  0.15890  0.90710  Biso   1.000  H
  C5       1.0000 0.57440  0.29230  0.33070  Biso   1.000  C
  C6       1.0000 0.42560  0.79230  0.16930  Biso   1.000  C
  C7       1.0000 0.42560  0.70770  0.66930  Biso   1.000  C
  C8       1.0000 0.57440  0.20770  0.83070  Biso   1.000  C
  H5       1.0000 0.59890  0.32400  0.30860  Biso   1.000  H
  H6       1.0000 0.40110  0.82400  0.19140  Biso   1.000  H
  H7       1.0000 0.40110  0.67600  0.69140  Biso   1.000  H
  H8       1.0000 0.59890  0.17600  0.80860  Biso   1.000  H
  C9       1.0000 0.57820  0.23640  0.30470  Biso   1.000  C
  C10      1.0000 0.42180  0.73640  0.19530  Biso   1.000  C
  C11      1.0000 0.42180  0.76360  0.69530  Biso   1.000  C
  C12      1.0000 0.57820  0.26360  0.80470  Biso   1.000  C
  H9       1.0000 0.60650  0.22930  0.26550  Biso   1.000  H
  H10      1.0000 0.39350  0.72930  0.23450  Biso   1.000  H
  H11      1.0000 0.39350  0.77070  0.73450  Biso   1.000  H
  H12      1.0000 0.60650  0.27070  0.76550  Biso   1.000  H
  C13      1.0000 0.53910  0.18990  0.33760  Biso   1.000  C
  C14      1.0000 0.46090  0.68990  0.16240  Biso   1.000  C
  C15      1.0000 0.46090  0.81010  0.66240  Biso   1.000  C
  C16      1.0000 0.53910  0.31010  0.83760  Biso   1.000  C
  C17      1.0000 0.49970  0.20393  0.39600  Biso   1.000  C
  C18      1.0000 0.50030  0.70393  0.10400  Biso   1.000  C
  C19      1.0000 0.50030  0.79607  0.60400  Biso   1.000  C
  C20      1.0000 0.49970  0.29607  0.89600  Biso   1.000  C
  C21      1.0000 0.45850  0.15896  0.43230  Biso   1.000  C
  C22      1.0000 0.54150  0.65896  0.06770  Biso   1.000  C
  C23      1.0000 0.54150  0.84104  0.56770  Biso   1.000  C
  C24      1.0000 0.45850  0.34104  0.93230  Biso   1.000  C
  C25      1.0000 0.45640  0.10046  0.40820  Biso   1.000  C
  C26      1.0000 0.54360  0.60046  0.09180  Biso   1.000  C
  C27      1.0000 0.54360  0.89954  0.59180  Biso   1.000  C
  C28      1.0000 0.45640  0.39954  0.90820  Biso   1.000  C
  C29      1.0000 0.41420  0.05895  0.44560  Biso   1.000  C
  C30      1.0000 0.58580  0.55895  0.05440  Biso   1.000  C
  C31      1.0000 0.58580  0.94105  0.55440  Biso   1.000  C
  C32      1.0000 0.41420  0.44105  0.94560  Biso   1.000  C
  H13      1.0000 0.41080  0.01920  0.43130  Biso   1.000  H
  H14      1.0000 0.58920  0.51920  0.06870  Biso   1.000  H
  H15      1.0000 0.58920  0.98080  0.56870  Biso   1.000  H
  H16      1.0000 0.41080  0.48080  0.93130  Biso   1.000  H
  C33      1.0000 0.37770  0.07600  0.50300  Biso   1.000  C
  C34      1.0000 0.62230  0.57600  0.99700  Biso   1.000  C
  C35      1.0000 0.62230  0.92400  0.49700  Biso   1.000  C
  C36      1.0000 0.37770  0.42400  0.00300  Biso   1.000  C
  H17      1.0000 0.34880  0.04830  0.52820  Biso   1.000  H
  H18      1.0000 0.65120  0.54830  0.97180  Biso   1.000  H
  H19      1.0000 0.65120  0.95170  0.47180  Biso   1.000  H
  H20      1.0000 0.34880  0.45170  0.02820  Biso   1.000  H
  C37      1.0000 0.38410  0.13529  0.52350  Biso   1.000  C
  C38      1.0000 0.61590  0.63529  0.97650  Biso   1.000  C
  C39      1.0000 0.61590  0.86471  0.47650  Biso   1.000  C
  C40      1.0000 0.38410  0.36471  0.02350  Biso   1.000  C
  H21      1.0000 0.36010  0.14670  0.56370  Biso   1.000  H
  H22      1.0000 0.63990  0.64670  0.93630  Biso   1.000  H
  H23      1.0000 0.63990  0.85330  0.43630  Biso   1.000  H
  H24      1.0000 0.36010  0.35330  0.06370  Biso   1.000  H
  N5       1.0000 0.42250  0.17626  0.48886  Biso   1.000  N
  N6       1.0000 0.57750  0.67626  0.01114  Biso   1.000  N
  N7       1.0000 0.57750  0.82374  0.51114  Biso   1.000  N
  N8       1.0000 0.42250  0.32374  0.98886  Biso   1.000  N
  C41      1.0000 0.53600  0.12990  0.31370  Biso   1.000  C
  C42      1.0000 0.46400  0.62990  0.18630  Biso   1.000  C
  C43      1.0000 0.46400  0.87010  0.68630  Biso   1.000  C
  C44      1.0000 0.53600  0.37010  0.81370  Biso   1.000  C
  H25      1.0000 0.56180  0.12000  0.27390  Biso   1.000  H
  H26      1.0000 0.43820  0.62000  0.22610  Biso   1.000  H
  H27      1.0000 0.43820  0.88000  0.72610  Biso   1.000  H
  H28      1.0000 0.56180  0.38000  0.77390  Biso   1.000  H
  C45      1.0000 0.49660  0.08730  0.34750  Biso   1.000  C
  C46      1.0000 0.50340  0.58730  0.15250  Biso   1.000  C
  C47      1.0000 0.50340  0.91270  0.65250  Biso   1.000  C
  C48      1.0000 0.49660  0.41270  0.84750  Biso   1.000  C
  H29      1.0000 0.49560  0.04820  0.33080  Biso   1.000  H
  H30      1.0000 0.50440  0.54820  0.16920  Biso   1.000  H
  H31      1.0000 0.50440  0.95180  0.66920  Biso   1.000  H
  H32      1.0000 0.49560  0.45180  0.83080  Biso   1.000  H
  Cu5      1.0000 0.25319  0.36668  0.50832  Biso   1.000  Cu
  Cu6      1.0000 0.74681  0.86668  0.99168  Biso   1.000  Cu
  Cu7      1.0000 0.74681  0.63332  0.49168  Biso   1.000  Cu
  Cu8      1.0000 0.25319  0.13332  0.00832  Biso   1.000  Cu
  N9       1.0000 0.23000  0.42915  0.42833  Biso   1.000  N
  N10      1.0000 0.77000  0.92915  0.07167  Biso   1.000  N
  N11      1.0000 0.77000  0.57085  0.57167  Biso   1.000  N
  N12      1.0000 0.23000  0.07085  0.92833  Biso   1.000  N
  C49      1.0000 0.20980  0.42344  0.35470  Biso   1.000  C
  C50      1.0000 0.79020  0.92344  0.14530  Biso   1.000  C
  C51      1.0000 0.79020  0.57656  0.64530  Biso   1.000  C
  C52      1.0000 0.20980  0.07656  0.85470  Biso   1.000  C
  H33      1.0000 0.20220  0.38550  0.33360  Biso   1.000  H
  H34      1.0000 0.79780  0.88550  0.16640  Biso   1.000  H
  H35      1.0000 0.79780  0.61450  0.66640  Biso   1.000  H
  H36      1.0000 0.20220  0.11450  0.83360  Biso   1.000  H
  C53      1.0000 0.19940  0.47218  0.30670  Biso   1.000  C
  C54      1.0000 0.80060  0.97218  0.19330  Biso   1.000  C
  C55      1.0000 0.80060  0.52782  0.69330  Biso   1.000  C
  C56      1.0000 0.19940  0.02782  0.80670  Biso   1.000  C
  H37      1.0000 0.18630  0.46660  0.25440  Biso   1.000  H
  H38      1.0000 0.81370  0.96660  0.24560  Biso   1.000  H
  H39      1.0000 0.81370  0.53340  0.74560  Biso   1.000  H
  H40      1.0000 0.18630  0.03340  0.75440  Biso   1.000  H
  C57      1.0000 0.20800  0.52726  0.33550  Biso   1.000  C
  C58      1.0000 0.79200  0.02726  0.16450  Biso   1.000  C
  C59      1.0000 0.79200  0.47274  0.66450  Biso   1.000  C
  C60      1.0000 0.20800  0.97274  0.83550  Biso   1.000  C
  H41      1.0000 0.20110  0.56000  0.30340  Biso   1.000  H
  H42      1.0000 0.79890  0.06000  0.19660  Biso   1.000  H
  H43      1.0000 0.79890  0.44000  0.69660  Biso   1.000  H
  H44      1.0000 0.20110  0.94000  0.80340  Biso   1.000  H
  C61      1.0000 0.22750  0.53517  0.41360  Biso   1.000  C
  C62      1.0000 0.77250  0.03517  0.08640  Biso   1.000  C
  C63      1.0000 0.77250  0.46483  0.58640  Biso   1.000  C
  C64      1.0000 0.22750  0.96483  0.91360  Biso   1.000  C
  C65      1.0000 0.23850  0.48444  0.45740  Biso   1.000  C
  C66      1.0000 0.76150  0.98444  0.04260  Biso   1.000  C
  C67      1.0000 0.76150  0.51556  0.54260  Biso   1.000  C
  C68      1.0000 0.23850  0.01556  0.95740  Biso   1.000  C
  C69      1.0000 0.26130  0.48841  0.53790  Biso   1.000  C
  C70      1.0000 0.73870  0.98841  0.96210  Biso   1.000  C
  C71      1.0000 0.73870  0.51159  0.46210  Biso   1.000  C
  C72      1.0000 0.26130  0.01159  0.03790  Biso   1.000  C
  C73      1.0000 0.27030  0.54368  0.57280  Biso   1.000  C
  C74      1.0000 0.72970  0.04368  0.92720  Biso   1.000  C
  C75      1.0000 0.72970  0.45632  0.42720  Biso   1.000  C
  C76      1.0000 0.27030  0.95632  0.07280  Biso   1.000  C
  C77      1.0000 0.29080  0.54360  0.65140  Biso   1.000  C
  C78      1.0000 0.70920  0.04360  0.84860  Biso   1.000  C
  C79      1.0000 0.70920  0.45640  0.34860  Biso   1.000  C
  C80      1.0000 0.29080  0.95640  0.15140  Biso   1.000  C
  H45      1.0000 0.29710  0.57940  0.67760  Biso   1.000  H
  H46      1.0000 0.70290  0.07940  0.82240  Biso   1.000  H
  H47      1.0000 0.70290  0.42060  0.32240  Biso   1.000  H
  H48      1.0000 0.29710  0.92060  0.17760  Biso   1.000  H
  C81      1.0000 0.30170  0.49235  0.68980  Biso   1.000  C
  C82      1.0000 0.69830  0.99235  0.81020  Biso   1.000  C
  C83      1.0000 0.69830  0.50765  0.31020  Biso   1.000  C
  C84      1.0000 0.30170  0.00765  0.18980  Biso   1.000  C
  H49      1.0000 0.31520  0.49250  0.74250  Biso   1.000  H
  H50      1.0000 0.68480  0.99250  0.75750  Biso   1.000  H
  H51      1.0000 0.68480  0.50750  0.25750  Biso   1.000  H
  H52      1.0000 0.31520  0.00750  0.24250  Biso   1.000  H
  C85      1.0000 0.29290  0.43897  0.65080  Biso   1.000  C
  C86      1.0000 0.70710  0.93897  0.84920  Biso   1.000  C
  C87      1.0000 0.70710  0.56103  0.34920  Biso   1.000  C
  C88      1.0000 0.29290  0.06103  0.15080  Biso   1.000  C
  H53      1.0000 0.30120  0.40360  0.67810  Biso   1.000  H
  H54      1.0000 0.69880  0.90360  0.82190  Biso   1.000  H
  H55      1.0000 0.69880  0.59640  0.32190  Biso   1.000  H
  H56      1.0000 0.30120  0.09640  0.17810  Biso   1.000  H
  N13      1.0000 0.27310  0.43703  0.57629  Biso   1.000  N
  N14      1.0000 0.72690  0.93703  0.92371  Biso   1.000  N
  N15      1.0000 0.72690  0.56297  0.42371  Biso   1.000  N
  N16      1.0000 0.27310  0.06297  0.07629  Biso   1.000  N
  C89      1.0000 0.23760  0.59093  0.45020  Biso   1.000  C
  C90      1.0000 0.76240  0.09093  0.04980  Biso   1.000  C
  C91      1.0000 0.76240  0.40907  0.54980  Biso   1.000  C
  C92      1.0000 0.23760  0.90907  0.95020  Biso   1.000  C
  H57      1.0000 0.23050  0.62540  0.42120  Biso   1.000  H
  H58      1.0000 0.76950  0.12540  0.07880  Biso   1.000  H
  H59      1.0000 0.76950  0.37460  0.57880  Biso   1.000  H
  H60      1.0000 0.23050  0.87460  0.92120  Biso   1.000  H
  C93      1.0000 0.25710  0.59523  0.52580  Biso   1.000  C
  C94      1.0000 0.74290  0.09523  0.97420  Biso   1.000  C
  C95      1.0000 0.74290  0.40477  0.47420  Biso   1.000  C
  C96      1.0000 0.25710  0.90477  0.02580  Biso   1.000  C
  H61      1.0000 0.26220  0.63260  0.54820  Biso   1.000  H
  H62      1.0000 0.73780  0.13260  0.95180  Biso   1.000  H
  H63      1.0000 0.73780  0.36740  0.45180  Biso   1.000  H
  H64      1.0000 0.26220  0.86740  0.04820  Biso   1.000  H
  Cu9      1.0000 0.06503  0.23662  0.01568  Biso   1.000  Cu
  Cu10     1.0000 0.93497  0.73662  0.48432  Biso   1.000  Cu
  Cu11     1.0000 0.93497  0.76338  0.98432  Biso   1.000  Cu
  Cu12     1.0000 0.06503  0.26338  0.51568  Biso   1.000  Cu
  N17      1.0000 0.07610  0.32123  0.04919  Biso   1.000  N
  N18      1.0000 0.92390  0.82123  0.45081  Biso   1.000  N
  N19      1.0000 0.92390  0.67877  0.95081  Biso   1.000  N
  N20      1.0000 0.07610  0.17877  0.54919  Biso   1.000  N
  C97      1.0000 0.10260  0.36809  0.01710  Biso   1.000  C
  C98      1.0000 0.89740  0.86809  0.48290  Biso   1.000  C
  C99      1.0000 0.89740  0.63191  0.98290  Biso   1.000  C
  C100     1.0000 0.10260  0.13191  0.51710  Biso   1.000  C
  H65      1.0000 0.13060  0.36260  0.97730  Biso   1.000  H
  H66      1.0000 0.86940  0.86260  0.52270  Biso   1.000  H
  H67      1.0000 0.86940  0.63740  0.02270  Biso   1.000  H
  H68      1.0000 0.13060  0.13740  0.47730  Biso   1.000  H
  C101     1.0000 0.09070  0.42532  0.04030  Biso   1.000  C
  C102     1.0000 0.90930  0.92532  0.45970  Biso   1.000  C
  C103     1.0000 0.90930  0.57468  0.95970  Biso   1.000  C
  C104     1.0000 0.09070  0.07468  0.54030  Biso   1.000  C
  H69      1.0000 0.11130  0.45760  0.01690  Biso   1.000  H
  H70      1.0000 0.88870  0.95760  0.48310  Biso   1.000  H
  H71      1.0000 0.88870  0.54240  0.98310  Biso   1.000  H
  H72      1.0000 0.11130  0.04240  0.51690  Biso   1.000  H
  C105     1.0000 0.04880  0.43385  0.09700  Biso   1.000  C
  C106     1.0000 0.95120  0.93385  0.40300  Biso   1.000  C
  C107     1.0000 0.95120  0.56615  0.90300  Biso   1.000  C
  C108     1.0000 0.04880  0.06615  0.59700  Biso   1.000  C
  H73      1.0000 0.03920  0.47220  0.11240  Biso   1.000  H
  H74      1.0000 0.96080  0.97220  0.38760  Biso   1.000  H
  H75      1.0000 0.96080  0.52780  0.88760  Biso   1.000  H
  H76      1.0000 0.03920  0.02780  0.61240  Biso   1.000  H
  C109     1.0000 0.02000  0.38552  0.13260  Biso   1.000  C
  C110     1.0000 0.98000  0.88552  0.36740  Biso   1.000  C
  C111     1.0000 0.98000  0.61448  0.86740  Biso   1.000  C
  C112     1.0000 0.02000  0.11448  0.63260  Biso   1.000  C
  C113     1.0000 0.03440  0.32994  0.10540  Biso   1.000  C
  C114     1.0000 0.96560  0.82994  0.39460  Biso   1.000  C
  C115     1.0000 0.96560  0.67006  0.89460  Biso   1.000  C
  C116     1.0000 0.03440  0.17006  0.60540  Biso   1.000  C
  C117     1.0000 0.00300  0.27872  0.13700  Biso   1.000  C
  C118     1.0000 0.99700  0.77872  0.36300  Biso   1.000  C
  C119     1.0000 0.99700  0.72128  0.86300  Biso   1.000  C
  C120     1.0000 0.00300  0.22128  0.63700  Biso   1.000  C
  C121     1.0000 0.96050  0.28307  0.19620  Biso   1.000  C
  C122     1.0000 0.03950  0.78307  0.30380  Biso   1.000  C
  C123     1.0000 0.03950  0.71693  0.80380  Biso   1.000  C
  C124     1.0000 0.96050  0.21693  0.69620  Biso   1.000  C
  C125     1.0000 0.93310  0.23120  0.22450  Biso   1.000  C
  C126     1.0000 0.06690  0.73120  0.27550  Biso   1.000  C
  C127     1.0000 0.06690  0.76880  0.77550  Biso   1.000  C
  C128     1.0000 0.93310  0.26880  0.72450  Biso   1.000  C
  H77      1.0000 0.90310  0.23220  0.26370  Biso   1.000  H
  H78      1.0000 0.09690  0.73220  0.23630  Biso   1.000  H
  H79      1.0000 0.09690  0.76780  0.73630  Biso   1.000  H
  H80      1.0000 0.90310  0.26780  0.76370  Biso   1.000  H
  C129     1.0000 0.95010  0.17880  0.19500  Biso   1.000  C
  C130     1.0000 0.04990  0.67880  0.30500  Biso   1.000  C
  C131     1.0000 0.04990  0.82120  0.80500  Biso   1.000  C
  C132     1.0000 0.95010  0.32120  0.69500  Biso   1.000  C
  H81      1.0000 0.93370  0.14340  0.21490  Biso   1.000  H
  H82      1.0000 0.06630  0.64340  0.28510  Biso   1.000  H
  H83      1.0000 0.06630  0.85660  0.78510  Biso   1.000  H
  H84      1.0000 0.93370  0.35660  0.71490  Biso   1.000  H
  C133     1.0000 0.99160  0.17765  0.13550  Biso   1.000  C
  C134     1.0000 0.00840  0.67765  0.36450  Biso   1.000  C
  C135     1.0000 0.00840  0.82235  0.86450  Biso   1.000  C
  C136     1.0000 0.99160  0.32235  0.63550  Biso   1.000  C
  H85      1.0000 0.00240  0.14110  0.11560  Biso   1.000  H
  H86      1.0000 0.99760  0.64110  0.38440  Biso   1.000  H
  H87      1.0000 0.99760  0.85890  0.88440  Biso   1.000  H
  H88      1.0000 0.00240  0.35890  0.61560  Biso   1.000  H
  N21      1.0000 0.01670  0.22643  0.10581  Biso   1.000  N
  N22      1.0000 0.98330  0.72643  0.39419  Biso   1.000  N
  N23      1.0000 0.98330  0.77357  0.89419  Biso   1.000  N
  N24      1.0000 0.01670  0.27357  0.60581  Biso   1.000  N
  C137     1.0000 0.97600  0.38900  0.19320  Biso   1.000  C
  C138     1.0000 0.02400  0.88900  0.30680  Biso   1.000  C
  C139     1.0000 0.02400  0.61100  0.80680  Biso   1.000  C
  C140     1.0000 0.97600  0.11100  0.69320  Biso   1.000  C
  H89      1.0000 0.96670  0.42610  0.21240  Biso   1.000  H
  H90      1.0000 0.03330  0.92610  0.28760  Biso   1.000  H
  H91      1.0000 0.03330  0.57390  0.78760  Biso   1.000  H
  H92      1.0000 0.96670  0.07390  0.71240  Biso   1.000  H
  C141     1.0000 0.94790  0.34100  0.22300  Biso   1.000  C
  C142     1.0000 0.05210  0.84100  0.27700  Biso   1.000  C
  C143     1.0000 0.05210  0.65900  0.77700  Biso   1.000  C
  C144     1.0000 0.94790  0.15900  0.72300  Biso   1.000  C
  H93      1.0000 0.91910  0.34510  0.26260  Biso   1.000  H
  H94      1.0000 0.08090  0.84510  0.23740  Biso   1.000  H
  H95      1.0000 0.08090  0.65490  0.73740  Biso   1.000  H
  H96      1.0000 0.91910  0.15490  0.76260  Biso   1.000  H
  O1       1.0000 0.39640  0.25026  0.59873  Biso   1.000  O
  O2       1.0000 0.60360  0.75026  0.90127  Biso   1.000  O
  O3       1.0000 0.60360  0.74974  0.40127  Biso   1.000  O
  O4       1.0000 0.39640  0.24974  0.09873  Biso   1.000  O
  O5       1.0000 0.26470  0.31414  0.59241  Biso   1.000  O
  O6       1.0000 0.73530  0.81414  0.90759  Biso   1.000  O
  O7       1.0000 0.73530  0.68586  0.40759  Biso   1.000  O
  O8       1.0000 0.26470  0.18586  0.09241  Biso   1.000  O
  C145     1.0000 0.32650  0.27225  0.62160  Biso   1.000  C
  C146     1.0000 0.67350  0.77225  0.87840  Biso   1.000  C
  C147     1.0000 0.67350  0.72775  0.37840  Biso   1.000  C
  C148     1.0000 0.32650  0.22775  0.12160  Biso   1.000  C
  C149     1.0000 0.31500  0.24519  0.69080  Biso   1.000  C
  C150     1.0000 0.68500  0.74519  0.80920  Biso   1.000  C
  C151     1.0000 0.68500  0.75481  0.30920  Biso   1.000  C
  C152     1.0000 0.31500  0.25481  0.19080  Biso   1.000  C
  H97      1.0000 0.34690  0.20840  0.70640  Biso   1.000  H
  H98      1.0000 0.65310  0.70840  0.79360  Biso   1.000  H
  H99      1.0000 0.65310  0.79160  0.29360  Biso   1.000  H
  H100     1.0000 0.34690  0.29160  0.20640  Biso   1.000  H
  C153     1.0000 0.26210  0.27000  0.73190  Biso   1.000  C
  C154     1.0000 0.73790  0.77000  0.76810  Biso   1.000  C
  C155     1.0000 0.73790  0.73000  0.26810  Biso   1.000  C
  C156     1.0000 0.26210  0.23000  0.23190  Biso   1.000  C
  H101     1.0000 0.22930  0.30650  0.71610  Biso   1.000  H
  H102     1.0000 0.77070  0.80650  0.78390  Biso   1.000  H
  H103     1.0000 0.77070  0.69350  0.28390  Biso   1.000  H
  H104     1.0000 0.22930  0.19350  0.21610  Biso   1.000  H
  O9       1.0000 0.45504  0.34791  0.52221  Biso   1.000  O
  O10      1.0000 0.54496  0.84791  0.97779  Biso   1.000  O
  O11      1.0000 0.54496  0.65209  0.47779  Biso   1.000  O
  O12      1.0000 0.45504  0.15209  0.02221  Biso   1.000  O
  O13      1.0000 0.58160  0.35327  0.63628  Biso   1.000  O
  O14      1.0000 0.41840  0.85327  0.86372  Biso   1.000  O
  O15      1.0000 0.41840  0.64673  0.36372  Biso   1.000  O
  O16      1.0000 0.58160  0.14673  0.13628  Biso   1.000  O
  C157     1.0000 0.51950  0.37599  0.57850  Biso   1.000  C
  C158     1.0000 0.48050  0.87599  0.92150  Biso   1.000  C
  C159     1.0000 0.48050  0.62401  0.42150  Biso   1.000  C
  C160     1.0000 0.51950  0.12401  0.07850  Biso   1.000  C
  C161     1.0000 0.52020  0.44074  0.57020  Biso   1.000  C
  C162     1.0000 0.47980  0.94074  0.92980  Biso   1.000  C
  C163     1.0000 0.47980  0.55926  0.42980  Biso   1.000  C
  C164     1.0000 0.52020  0.05926  0.07020  Biso   1.000  C
  H105     1.0000 0.53990  0.46360  0.61470  Biso   1.000  H
  H106     1.0000 0.46010  0.96360  0.88530  Biso   1.000  H
  H107     1.0000 0.46010  0.53640  0.38530  Biso   1.000  H
  H108     1.0000 0.53990  0.03640  0.11470  Biso   1.000  H
  C165     1.0000 0.49480  0.46884  0.50390  Biso   1.000  C
  C166     1.0000 0.50520  0.96884  0.99610  Biso   1.000  C
  C167     1.0000 0.50520  0.53116  0.49610  Biso   1.000  C
  C168     1.0000 0.49480  0.03116  0.00390  Biso   1.000  C
  H109     1.0000 0.46840  0.44640  0.45940  Biso   1.000  H
  H110     1.0000 0.53160  0.94640  0.04060  Biso   1.000  H
  H111     1.0000 0.53160  0.55360  0.54060  Biso   1.000  H
  H112     1.0000 0.46840  0.05360  0.95940  Biso   1.000  H
  O17      1.0000 0.24707  0.19455  0.93473  Biso   1.000  O
  O18      1.0000 0.75293  0.69455  0.56527  Biso   1.000  O
  O19      1.0000 0.75293  0.80545  0.06527  Biso   1.000  O
  O20      1.0000 0.24707  0.30545  0.43473  Biso   1.000  O
  O21      1.0000 0.11860  0.25860  0.93467  Biso   1.000  O
  O22      1.0000 0.88140  0.75860  0.56533  Biso   1.000  O
  O23      1.0000 0.88140  0.74140  0.06533  Biso   1.000  O
  O24      1.0000 0.11860  0.24140  0.43467  Biso   1.000  O
  C169     1.0000 0.18720  0.23798  0.90890  Biso   1.000  C
  C170     1.0000 0.81280  0.73798  0.59110  Biso   1.000  C
  C171     1.0000 0.81280  0.76202  0.09110  Biso   1.000  C
  C172     1.0000 0.18720  0.26202  0.40890  Biso   1.000  C
  C173     1.0000 0.19910  0.26739  0.84190  Biso   1.000  C
  C174     1.0000 0.80090  0.76739  0.65810  Biso   1.000  C
  C175     1.0000 0.80090  0.73261  0.15810  Biso   1.000  C
  C176     1.0000 0.19910  0.23261  0.34190  Biso   1.000  C
  H113     1.0000 0.16760  0.30450  0.82820  Biso   1.000  H
  H114     1.0000 0.83240  0.80450  0.67180  Biso   1.000  H
  H115     1.0000 0.83240  0.69550  0.17180  Biso   1.000  H
  H116     1.0000 0.16760  0.19550  0.32820  Biso   1.000  H
  C177     1.0000 0.25220  0.24391  0.79990  Biso   1.000  C
  C178     1.0000 0.74780  0.74391  0.70010  Biso   1.000  C
  C179     1.0000 0.74780  0.75609  0.20010  Biso   1.000  C
  C180     1.0000 0.25220  0.25609  0.29990  Biso   1.000  C
  H117     1.0000 0.28600  0.20760  0.81560  Biso   1.000  H
  H118     1.0000 0.71400  0.70760  0.68440  Biso   1.000  H
  H119     1.0000 0.71400  0.79240  0.18440  Biso   1.000  H
  H120     1.0000 0.28600  0.29240  0.31560  Biso   1.000  H
  O25      1.0000 0.05834  0.34715  0.49335  Biso   1.000  O
  O26      1.0000 0.94166  0.84715  0.00665  Biso   1.000  O
  O27      1.0000 0.94166  0.65285  0.50665  Biso   1.000  O
  O28      1.0000 0.05834  0.15285  0.99335  Biso   1.000  O
  O29      1.0000 0.91340  0.34365  0.38911  Biso   1.000  O
  O30      1.0000 0.08660  0.84365  0.11089  Biso   1.000  O
  O31      1.0000 0.08660  0.65635  0.61089  Biso   1.000  O
  O32      1.0000 0.91340  0.15635  0.88911  Biso   1.000  O
  C181     1.0000 0.98400  0.37105  0.43850  Biso   1.000  C
  C182     1.0000 0.01600  0.87105  0.06150  Biso   1.000  C
  C183     1.0000 0.01600  0.62895  0.56150  Biso   1.000  C
  C184     1.0000 0.98400  0.12895  0.93850  Biso   1.000  C
  C185     1.0000 0.98070  0.43571  0.43720  Biso   1.000  C
  C186     1.0000 0.01930  0.93571  0.06280  Biso   1.000  C
  C187     1.0000 0.01930  0.56429  0.56280  Biso   1.000  C
  C188     1.0000 0.98070  0.06429  0.93720  Biso   1.000  C
  H121     1.0000 0.95900  0.45470  0.38980  Biso   1.000  H
  H122     1.0000 0.04100  0.95470  0.11020  Biso   1.000  H
  H123     1.0000 0.04100  0.54530  0.61020  Biso   1.000  H
  H124     1.0000 0.95900  0.04530  0.88980  Biso   1.000  H
  C189     1.0000 0.00700  0.46865  0.49960  Biso   1.000  C
  C190     1.0000 0.99300  0.96865  0.00040  Biso   1.000  C
  C191     1.0000 0.99300  0.53135  0.50040  Biso   1.000  C
  C192     1.0000 0.00700  0.03135  0.99960  Biso   1.000  C
  H125     1.0000 0.03690  0.44960  0.54650  Biso   1.000  H
  H126     1.0000 0.96310  0.94960  0.95350  Biso   1.000  H
  H127     1.0000 0.96310  0.55040  0.45350  Biso   1.000  H
  H128     1.0000 0.03690  0.05040  0.04650  Biso   1.000  H
  O33      1.0000 0.62390  0.24505  0.59545  Biso   1.000  O
  O34      1.0000 0.37610  0.74505  0.90455  Biso   1.000  O
  O35      1.0000 0.37610  0.75495  0.40455  Biso   1.000  O
  O36      1.0000 0.62390  0.25495  0.09545  Biso   1.000  O
  H129     1.0000 0.66930  0.24100  0.57280  Biso   1.000  H
  H130     1.0000 0.33070  0.74100  0.92720  Biso   1.000  H
  H131     1.0000 0.33070  0.75900  0.42720  Biso   1.000  H
  H132     1.0000 0.66930  0.25900  0.07280  Biso   1.000  H
  H133     1.0000 0.64800  0.27240  0.62700  Biso   1.000  H
  H134     1.0000 0.35200  0.77240  0.87300  Biso   1.000  H
  H135     1.0000 0.35200  0.72760  0.37300  Biso   1.000  H
  H136     1.0000 0.64800  0.22760  0.12700  Biso   1.000  H
  O37      1.0000 0.88650  0.26466  0.93621  Biso   1.000  O
  O38      1.0000 0.11350  0.76466  0.56379  Biso   1.000  O
  O39      1.0000 0.11350  0.73534  0.06379  Biso   1.000  O
  O40      1.0000 0.88650  0.23534  0.43621  Biso   1.000  O
  H137     1.0000 0.86100  0.23690  0.90500  Biso   1.000  H
  H138     1.0000 0.13900  0.73690  0.59500  Biso   1.000  H
  H139     1.0000 0.13900  0.76310  0.09500  Biso   1.000  H
  H140     1.0000 0.86100  0.26310  0.40500  Biso   1.000  H
  H141     1.0000 0.89000  0.29420  0.90900  Biso   1.000  H
  H142     1.0000 0.11000  0.79420  0.59100  Biso   1.000  H
  H143     1.0000 0.11000  0.70580  0.09100  Biso   1.000  H
  H144     1.0000 0.89000  0.20580  0.40900  Biso   1.000  H
  O41      1.0000 0.75700  0.20223  0.51950  Biso   1.000  O
  O42      1.0000 0.24300  0.70223  0.98050  Biso   1.000  O
  O43      1.0000 0.24300  0.79777  0.48050  Biso   1.000  O
  O44      1.0000 0.75700  0.29777  0.01950  Biso   1.000  O
  H145     1.0000 0.79500  0.21100  0.49200  Biso   1.000  H
  H146     1.0000 0.20500  0.71100  0.00800  Biso   1.000  H
  H147     1.0000 0.20500  0.78900  0.50800  Biso   1.000  H
  H148     1.0000 0.79500  0.28900  0.99200  Biso   1.000  H
  H149     1.0000 0.75800  0.16500  0.52200  Biso   1.000  H
  H150     1.0000 0.24200  0.66500  0.97800  Biso   1.000  H
  H151     1.0000 0.24200  0.83500  0.47800  Biso   1.000  H
  H152     1.0000 0.75800  0.33500  0.02200  Biso   1.000  H
  O45      1.0000 0.72760  0.08020  0.54120  Biso   1.000  O
  O46      1.0000 0.27240  0.58020  0.95880  Biso   1.000  O
  O47      1.0000 0.27240  0.91980  0.45880  Biso   1.000  O
  O48      1.0000 0.72760  0.41980  0.04120  Biso   1.000  O
  H153     1.0000 0.75000  0.06700  0.50600  Biso   1.000  H
  H154     1.0000 0.25000  0.56700  0.99400  Biso   1.000  H
  H155     1.0000 0.25000  0.93300  0.49400  Biso   1.000  H
  H156     1.0000 0.75000  0.43300  0.00600  Biso   1.000  H
  H157     1.0000 0.74800  0.05500  0.57700  Biso   1.000  H
  H158     1.0000 0.25200  0.55500  0.92300  Biso   1.000  H
  H159     1.0000 0.25200  0.94500  0.42300  Biso   1.000  H
  H160     1.0000 0.74800  0.44500  0.07700  Biso   1.000  H
  O49      1.0000 0.77590  0.05135  0.40830  Biso   1.000  O
  O50      1.0000 0.22410  0.55135  0.09170  Biso   1.000  O
  O51      1.0000 0.22410  0.94865  0.59170  Biso   1.000  O
  O52      1.0000 0.77590  0.44865  0.90830  Biso   1.000  O
  H161     1.0000 0.81120  0.01970  0.41830  Biso   1.000  H
  H162     1.0000 0.18880  0.51970  0.08170  Biso   1.000  H
  H163     1.0000 0.18880  0.98030  0.58170  Biso   1.000  H
  H164     1.0000 0.81120  0.48030  0.91830  Biso   1.000  H
  H165     1.0000 0.71740  0.04250  0.37470  Biso   1.000  H
  H166     1.0000 0.28260  0.54250  0.12530  Biso   1.000  H
  H167     1.0000 0.28260  0.95750  0.62530  Biso   1.000  H
  H168     1.0000 0.71740  0.45750  0.87470  Biso   1.000  H
  O53      1.0000 0.88340  0.13403  0.35120  Biso   1.000  O
  O54      1.0000 0.11660  0.63403  0.14880  Biso   1.000  O
  O55      1.0000 0.11660  0.86597  0.64880  Biso   1.000  O
  O56      1.0000 0.88340  0.36597  0.85120  Biso   1.000  O
  H169     1.0000 0.94600  0.12000  0.36100  Biso   1.000  H
  H170     1.0000 0.05400  0.62000  0.13900  Biso   1.000  H
  H171     1.0000 0.05400  0.88000  0.63900  Biso   1.000  H
  H172     1.0000 0.94600  0.38000  0.86100  Biso   1.000  H
  H173     1.0000 0.85200  0.11100  0.37200  Biso   1.000  H
  H174     1.0000 0.14800  0.61100  0.12800  Biso   1.000  H
  H175     1.0000 0.14800  0.88900  0.62800  Biso   1.000  H
  H176     1.0000 0.85200  0.38900  0.87200  Biso   1.000  H
  O57      1.0000 0.64730  0.13670  0.66430  Biso   1.000  O
  O58      1.0000 0.35270  0.63670  0.83570  Biso   1.000  O
  O59      1.0000 0.35270  0.86330  0.33570  Biso   1.000  O
  O60      1.0000 0.64730  0.36330  0.16430  Biso   1.000  O
  H177     1.0000 0.63600  0.17330  0.65500  Biso   1.000  H
  H178     1.0000 0.36400  0.67330  0.84500  Biso   1.000  H
  H179     1.0000 0.36400  0.82670  0.34500  Biso   1.000  H
  H180     1.0000 0.63600  0.32670  0.15500  Biso   1.000  H
  H181     1.0000 0.58600  0.12200  0.65900  Biso   1.000  H
  H182     1.0000 0.41400  0.62200  0.84100  Biso   1.000  H
  H183     1.0000 0.41400  0.87800  0.34100  Biso   1.000  H
  H184     1.0000 0.58600  0.37800  0.15900  Biso   1.000  H
  Cl1      1.0000 0.12718  0.44814  0.80006  Biso   1.000  Cl
  Cl2      1.0000 0.87282  0.94814  0.69994  Biso   1.000  Cl
  Cl3      1.0000 0.87282  0.55186  0.19994  Biso   1.000  Cl
  Cl4      1.0000 0.12718  0.05186  0.30006  Biso   1.000  Cl
  O61      1.0000 0.19280  0.40469  0.78460  Biso   1.000  O
  O62      1.0000 0.80720  0.90469  0.71540  Biso   1.000  O
  O63      1.0000 0.80720  0.59531  0.21540  Biso   1.000  O
  O64      1.0000 0.19280  0.09531  0.28460  Biso   1.000  O
  O65      1.0000 0.19100  0.49842  0.83190  Biso   1.000  O
  O66      1.0000 0.80900  0.99842  0.66810  Biso   1.000  O
  O67      1.0000 0.80900  0.50158  0.16810  Biso   1.000  O
  O68      1.0000 0.19100  0.00158  0.33190  Biso   1.000  O
  O69      1.0000 0.04870  0.46517  0.73300  Biso   1.000  O
  O70      1.0000 0.95130  0.96517  0.76700  Biso   1.000  O
  O71      1.0000 0.95130  0.53483  0.26700  Biso   1.000  O
  O72      1.0000 0.04870  0.03483  0.23300  Biso   1.000  O
  O73      1.0000 0.08110  0.42630  0.85160  Biso   1.000  O
  O74      1.0000 0.91890  0.92630  0.64840  Biso   1.000  O
  O75      1.0000 0.91890  0.57370  0.14840  Biso   1.000  O
  O76      1.0000 0.08110  0.07370  0.35160  Biso   1.000  O
  Cl5      1.0000 0.40733  0.06343  0.73038  Biso   1.000  Cl
  Cl6      1.0000 0.59267  0.56343  0.76962  Biso   1.000  Cl
  Cl7      1.0000 0.59267  0.93657  0.26962  Biso   1.000  Cl
  Cl8      1.0000 0.40733  0.43657  0.23038  Biso   1.000  Cl
  O77      1.0000 0.38040  0.00230  0.72810  Biso   1.000  O
  O78      1.0000 0.61960  0.50230  0.77190  Biso   1.000  O
  O79      1.0000 0.61960  0.99770  0.27190  Biso   1.000  O
  O80      1.0000 0.38040  0.49770  0.22810  Biso   1.000  O
  O81      1.0000 0.48680  0.07270  0.69530  Biso   1.000  O
  O82      1.0000 0.51320  0.57270  0.80470  Biso   1.000  O
  O83      1.0000 0.51320  0.92730  0.30470  Biso   1.000  O
  O84      1.0000 0.48680  0.42730  0.19530  Biso   1.000  O
  O85      1.0000 0.31560  0.09800  0.69190  Biso   1.000  O
  O86      1.0000 0.68440  0.59800  0.80810  Biso   1.000  O
  O87      1.0000 0.68440  0.90200  0.30810  Biso   1.000  O
  O88      1.0000 0.31560  0.40200  0.19190  Biso   1.000  O
  O89      1.0000 0.44910  0.08290  0.80770  Biso   1.000  O
  O90      1.0000 0.55090  0.58290  0.69230  Biso   1.000  O
  O91      1.0000 0.55090  0.91710  0.19230  Biso   1.000  O
  O92      1.0000 0.44910  0.41710  0.30770  Biso   1.000  O
  O93      1.0000 0.41460  0.09770  0.79670  Biso   1.000  O
  O94      1.0000 0.58540  0.59770  0.70330  Biso   1.000  O
  O95      1.0000 0.58540  0.90230  0.20330  Biso   1.000  O
  O96      1.0000 0.41460  0.40230  0.29670  Biso   1.000  O
  O97      1.0000 0.40770  0.00260  0.74870  Biso   1.000  O
  O98      1.0000 0.59230  0.50260  0.75130  Biso   1.000  O
  O99      1.0000 0.59230  0.99740  0.25130  Biso   1.000  O
  O100     1.0000 0.40770  0.49740  0.24870  Biso   1.000  O
  O101     1.0000 0.49720  0.07610  0.70650  Biso   1.000  O
  O102     1.0000 0.50280  0.57610  0.79350  Biso   1.000  O
  O103     1.0000 0.50280  0.92390  0.29350  Biso   1.000  O
  O104     1.0000 0.49720  0.42390  0.20650  Biso   1.000  O
  O105     1.0000 0.31170  0.07940  0.67160  Biso   1.000  O
  O106     1.0000 0.68830  0.57940  0.82840  Biso   1.000  O
  O107     1.0000 0.68830  0.92060  0.32840  Biso   1.000  O
  O108     1.0000 0.31170  0.42060  0.17160  Biso   1.000  O
  O109     1.0000 0.35560  0.00600  0.71350  Biso   1.000  O
  O110     1.0000 0.64440  0.50600  0.78650  Biso   1.000  O
  O111     1.0000 0.64440  0.99400  0.28650  Biso   1.000  O
  O112     1.0000 0.35560  0.49400  0.21350  Biso   1.000  O
  O113     1.0000 0.33010  0.10760  0.70700  Biso   1.000  O
  O114     1.0000 0.66990  0.60760  0.79300  Biso   1.000  O
  O115     1.0000 0.66990  0.89240  0.29300  Biso   1.000  O
  O116     1.0000 0.33010  0.39240  0.20700  Biso   1.000  O
  O117     1.0000 0.48420  0.06550  0.69130  Biso   1.000  O
  O118     1.0000 0.51580  0.56550  0.80870  Biso   1.000  O
  O119     1.0000 0.51580  0.93450  0.30870  Biso   1.000  O
  O120     1.0000 0.48420  0.43450  0.19130  Biso   1.000  O
  O121     1.0000 0.46220  0.06580  0.81040  Biso   1.000  O
  O122     1.0000 0.53780  0.56580  0.68960  Biso   1.000  O
  O123     1.0000 0.53780  0.93420  0.18960  Biso   1.000  O
  O124     1.0000 0.46220  0.43420  0.31040  Biso   1.000  O
