data_image0
_cell_length_a       20.125
_cell_length_b       10.4837
_cell_length_c       17.0477
_cell_angle_alpha    90
_cell_angle_beta     120.263
_cell_angle_gamma    90

_symmetry_space_group_name_H-M    "P 1"
_symmetry_int_tables_number       1

loop_
  _symmetry_equiv_pos_as_xyz
  'x, y, z'

loop_
  _atom_site_label
  _atom_site_occupancy
  _atom_site_fract_x
  _atom_site_fract_y
  _atom_site_fract_z
  _atom_site_thermal_displace_type
  _atom_site_B_iso_or_equiv
  _atom_site_type_symbol
  Cu1      1.0000 0.08685  0.81929  0.27920  Biso   1.000  Cu
  Cu2      1.0000 0.58685  0.31929  0.27920  Biso   1.000  Cu
  Cu3      1.0000 0.91315  0.81929  0.22080  Biso   1.000  Cu
  Cu4      1.0000 0.41315  0.31929  0.22080  Biso   1.000  Cu
  Cu5      1.0000 0.91315  0.18071  0.72080  Biso   1.000  Cu
  Cu6      1.0000 0.41315  0.68071  0.72080  Biso   1.000  Cu
  Cu7      1.0000 0.08685  0.18071  0.77920  Biso   1.000  Cu
  Cu8      1.0000 0.58685  0.68071  0.77920  Biso   1.000  Cu
  N1       1.0000 0.13069  0.92066  0.39492  Biso   1.000  N
  N2       1.0000 0.63069  0.42066  0.39492  Biso   1.000  N
  N3       1.0000 0.86931  0.92066  0.10508  Biso   1.000  N
  N4       1.0000 0.36931  0.42066  0.10508  Biso   1.000  N
  N5       1.0000 0.86931  0.07934  0.60508  Biso   1.000  N
  N6       1.0000 0.36931  0.57934  0.60508  Biso   1.000  N
  N7       1.0000 0.13069  0.07934  0.89492  Biso   1.000  N
  N8       1.0000 0.63069  0.57934  0.89492  Biso   1.000  N
  C1       1.0000 0.16203  0.87940  0.48003  Biso   1.000  C
  C2       1.0000 0.66203  0.37940  0.48003  Biso   1.000  C
  C3       1.0000 0.83797  0.87940  0.01997  Biso   1.000  C
  C4       1.0000 0.33797  0.37940  0.01997  Biso   1.000  C
  C5       1.0000 0.83797  0.12060  0.51997  Biso   1.000  C
  C6       1.0000 0.33797  0.62060  0.51997  Biso   1.000  C
  C7       1.0000 0.16203  0.12060  0.98003  Biso   1.000  C
  C8       1.0000 0.66203  0.62060  0.98003  Biso   1.000  C
  H1       1.0000 0.16590  0.79210  0.49090  Biso   1.000  H
  H2       1.0000 0.66590  0.29210  0.49090  Biso   1.000  H
  H3       1.0000 0.83410  0.79210  0.00910  Biso   1.000  H
  H4       1.0000 0.33410  0.29210  0.00910  Biso   1.000  H
  H5       1.0000 0.83410  0.20790  0.50910  Biso   1.000  H
  H6       1.0000 0.33410  0.70790  0.50910  Biso   1.000  H
  H7       1.0000 0.16590  0.20790  0.99090  Biso   1.000  H
  H8       1.0000 0.66590  0.70790  0.99090  Biso   1.000  H
  C9       1.0000 0.18927  0.96300  0.55366  Biso   1.000  C
  C10      1.0000 0.68927  0.46300  0.55366  Biso   1.000  C
  C11      1.0000 0.81073  0.96300  0.94634  Biso   1.000  C
  C12      1.0000 0.31073  0.46300  0.94634  Biso   1.000  C
  C13      1.0000 0.81073  0.03700  0.44634  Biso   1.000  C
  C14      1.0000 0.31073  0.53700  0.44634  Biso   1.000  C
  C15      1.0000 0.18927  0.03700  0.05366  Biso   1.000  C
  C16      1.0000 0.68927  0.53700  0.05366  Biso   1.000  C
  H9       1.0000 0.21120  0.93110  0.61240  Biso   1.000  H
  H10      1.0000 0.71120  0.43110  0.61240  Biso   1.000  H
  H11      1.0000 0.78880  0.93110  0.88760  Biso   1.000  H
  H12      1.0000 0.28880  0.43110  0.88760  Biso   1.000  H
  H13      1.0000 0.78880  0.06890  0.38760  Biso   1.000  H
  H14      1.0000 0.28880  0.56890  0.38760  Biso   1.000  H
  H15      1.0000 0.21120  0.06890  0.11240  Biso   1.000  H
  H16      1.0000 0.71120  0.56890  0.11240  Biso   1.000  H
  C17      1.0000 0.18362  0.09140  0.53922  Biso   1.000  C
  C18      1.0000 0.68362  0.59140  0.53922  Biso   1.000  C
  C19      1.0000 0.81638  0.09140  0.96078  Biso   1.000  C
  C20      1.0000 0.31638  0.59140  0.96078  Biso   1.000  C
  C21      1.0000 0.81638  0.90860  0.46078  Biso   1.000  C
  C22      1.0000 0.31638  0.40860  0.46078  Biso   1.000  C
  C23      1.0000 0.18362  0.90860  0.03922  Biso   1.000  C
  C24      1.0000 0.68362  0.40860  0.03922  Biso   1.000  C
  H17      1.0000 0.19960  0.14760  0.58770  Biso   1.000  H
  H18      1.0000 0.69960  0.64760  0.58770  Biso   1.000  H
  H19      1.0000 0.80040  0.14760  0.91230  Biso   1.000  H
  H20      1.0000 0.30040  0.64760  0.91230  Biso   1.000  H
  H21      1.0000 0.80040  0.85240  0.41230  Biso   1.000  H
  H22      1.0000 0.30040  0.35240  0.41230  Biso   1.000  H
  H23      1.0000 0.19960  0.85240  0.08770  Biso   1.000  H
  H24      1.0000 0.69960  0.35240  0.08770  Biso   1.000  H
  C25      1.0000 0.15339  0.13830  0.45054  Biso   1.000  C
  C26      1.0000 0.65339  0.63830  0.45054  Biso   1.000  C
  C27      1.0000 0.84661  0.13830  0.04946  Biso   1.000  C
  C28      1.0000 0.34661  0.63830  0.04946  Biso   1.000  C
  C29      1.0000 0.84661  0.86170  0.54946  Biso   1.000  C
  C30      1.0000 0.34661  0.36170  0.54946  Biso   1.000  C
  C31      1.0000 0.15339  0.86170  0.95054  Biso   1.000  C
  C32      1.0000 0.65339  0.36170  0.95054  Biso   1.000  C
  C33      1.0000 0.12798  0.04848  0.38071  Biso   1.000  C
  C34      1.0000 0.62798  0.54848  0.38071  Biso   1.000  C
  C35      1.0000 0.87202  0.04848  0.11929  Biso   1.000  C
  C36      1.0000 0.37202  0.54848  0.11929  Biso   1.000  C
  C37      1.0000 0.87202  0.95152  0.61929  Biso   1.000  C
  C38      1.0000 0.37202  0.45152  0.61929  Biso   1.000  C
  C39      1.0000 0.12798  0.95152  0.88071  Biso   1.000  C
  C40      1.0000 0.62798  0.45152  0.88071  Biso   1.000  C
  N9       1.0000 0.07733  0.99479  0.22598  Biso   1.000  N
  N10      1.0000 0.57733  0.49479  0.22598  Biso   1.000  N
  N11      1.0000 0.92267  0.99479  0.27402  Biso   1.000  N
  N12      1.0000 0.42267  0.49479  0.27402  Biso   1.000  N
  N13      1.0000 0.92267  0.00521  0.77402  Biso   1.000  N
  N14      1.0000 0.42267  0.50521  0.77402  Biso   1.000  N
  N15      1.0000 0.07733  0.00521  0.72598  Biso   1.000  N
  N16      1.0000 0.57733  0.50521  0.72598  Biso   1.000  N
  C41      1.0000 0.10003  0.08830  0.28921  Biso   1.000  C
  C42      1.0000 0.60003  0.58830  0.28921  Biso   1.000  C
  C43      1.0000 0.89997  0.08830  0.21079  Biso   1.000  C
  C44      1.0000 0.39997  0.58830  0.21079  Biso   1.000  C
  C45      1.0000 0.89997  0.91170  0.71079  Biso   1.000  C
  C46      1.0000 0.39997  0.41170  0.71079  Biso   1.000  C
  C47      1.0000 0.10003  0.91170  0.78921  Biso   1.000  C
  C48      1.0000 0.60003  0.41170  0.78921  Biso   1.000  C
  C49      1.0000 0.09838  0.21860  0.26887  Biso   1.000  C
  C50      1.0000 0.59838  0.71860  0.26887  Biso   1.000  C
  C51      1.0000 0.90162  0.21860  0.23113  Biso   1.000  C
  C52      1.0000 0.40162  0.71860  0.23113  Biso   1.000  C
  C53      1.0000 0.90162  0.78140  0.73113  Biso   1.000  C
  C54      1.0000 0.40162  0.28140  0.73113  Biso   1.000  C
  C55      1.0000 0.09838  0.78140  0.76887  Biso   1.000  C
  C56      1.0000 0.59838  0.28140  0.76887  Biso   1.000  C
  C57      1.0000 0.07309  0.24950  0.17811  Biso   1.000  C
  C58      1.0000 0.57309  0.74950  0.17811  Biso   1.000  C
  C59      1.0000 0.92691  0.24950  0.32189  Biso   1.000  C
  C60      1.0000 0.42691  0.74950  0.32189  Biso   1.000  C
  C61      1.0000 0.92691  0.75050  0.82189  Biso   1.000  C
  C62      1.0000 0.42691  0.25050  0.82189  Biso   1.000  C
  C63      1.0000 0.07309  0.75050  0.67811  Biso   1.000  C
  C64      1.0000 0.57309  0.25050  0.67811  Biso   1.000  C
  H25      1.0000 0.07160  0.33430  0.16130  Biso   1.000  H
  H26      1.0000 0.57160  0.83430  0.16130  Biso   1.000  H
  H27      1.0000 0.92840  0.33430  0.33870  Biso   1.000  H
  H28      1.0000 0.42840  0.83430  0.33870  Biso   1.000  H
  H29      1.0000 0.92840  0.66570  0.83870  Biso   1.000  H
  H30      1.0000 0.42840  0.16570  0.83870  Biso   1.000  H
  H31      1.0000 0.07160  0.66570  0.66130  Biso   1.000  H
  H32      1.0000 0.57160  0.16570  0.66130  Biso   1.000  H
  C65      1.0000 0.05064  0.15540  0.11438  Biso   1.000  C
  C66      1.0000 0.55064  0.65540  0.11438  Biso   1.000  C
  C67      1.0000 0.94936  0.15540  0.38562  Biso   1.000  C
  C68      1.0000 0.44936  0.65540  0.38562  Biso   1.000  C
  C69      1.0000 0.94936  0.84460  0.88562  Biso   1.000  C
  C70      1.0000 0.44936  0.34460  0.88562  Biso   1.000  C
  C71      1.0000 0.05064  0.84460  0.61438  Biso   1.000  C
  C72      1.0000 0.55064  0.34460  0.61438  Biso   1.000  C
  H33      1.0000 0.03390  0.17570  0.05410  Biso   1.000  H
  H34      1.0000 0.53390  0.67570  0.05410  Biso   1.000  H
  H35      1.0000 0.96610  0.17570  0.44590  Biso   1.000  H
  H36      1.0000 0.46610  0.67570  0.44590  Biso   1.000  H
  H37      1.0000 0.96610  0.82430  0.94590  Biso   1.000  H
  H38      1.0000 0.46610  0.32430  0.94590  Biso   1.000  H
  H39      1.0000 0.03390  0.82430  0.55410  Biso   1.000  H
  H40      1.0000 0.53390  0.32430  0.55410  Biso   1.000  H
  C73      1.0000 0.05296  0.02830  0.14027  Biso   1.000  C
  C74      1.0000 0.55296  0.52830  0.14027  Biso   1.000  C
  C75      1.0000 0.94704  0.02830  0.35973  Biso   1.000  C
  C76      1.0000 0.44704  0.52830  0.35973  Biso   1.000  C
  C77      1.0000 0.94704  0.97170  0.85973  Biso   1.000  C
  C78      1.0000 0.44704  0.47170  0.85973  Biso   1.000  C
  C79      1.0000 0.05296  0.97170  0.64027  Biso   1.000  C
  C80      1.0000 0.55296  0.47170  0.64027  Biso   1.000  C
  H41      1.0000 0.03700  0.96500  0.09620  Biso   1.000  H
  H42      1.0000 0.53700  0.46500  0.09620  Biso   1.000  H
  H43      1.0000 0.96300  0.96500  0.40380  Biso   1.000  H
  H44      1.0000 0.46300  0.46500  0.40380  Biso   1.000  H
  H45      1.0000 0.96300  0.03500  0.90380  Biso   1.000  H
  H46      1.0000 0.46300  0.53500  0.90380  Biso   1.000  H
  H47      1.0000 0.03700  0.03500  0.59620  Biso   1.000  H
  H48      1.0000 0.53700  0.53500  0.59620  Biso   1.000  H
  C81      1.0000 0.14923  0.27120  0.42764  Biso   1.000  C
  C82      1.0000 0.64923  0.77120  0.42764  Biso   1.000  C
  C83      1.0000 0.85077  0.27120  0.07236  Biso   1.000  C
  C84      1.0000 0.35077  0.77120  0.07236  Biso   1.000  C
  C85      1.0000 0.85077  0.72880  0.57236  Biso   1.000  C
  C86      1.0000 0.35077  0.22880  0.57236  Biso   1.000  C
  C87      1.0000 0.14923  0.72880  0.92764  Biso   1.000  C
  C88      1.0000 0.64923  0.22880  0.92764  Biso   1.000  C
  H49      1.0000 0.16450  0.33210  0.47320  Biso   1.000  H
  H50      1.0000 0.66450  0.83210  0.47320  Biso   1.000  H
  H51      1.0000 0.83550  0.33210  0.02680  Biso   1.000  H
  H52      1.0000 0.33550  0.83210  0.02680  Biso   1.000  H
  H53      1.0000 0.83550  0.66790  0.52680  Biso   1.000  H
  H54      1.0000 0.33550  0.16790  0.52680  Biso   1.000  H
  H55      1.0000 0.16450  0.66790  0.97320  Biso   1.000  H
  H56      1.0000 0.66450  0.16790  0.97320  Biso   1.000  H
  C89      1.0000 0.12372  0.30935  0.34161  Biso   1.000  C
  C90      1.0000 0.62372  0.80935  0.34161  Biso   1.000  C
  C91      1.0000 0.87628  0.30935  0.15839  Biso   1.000  C
  C92      1.0000 0.37628  0.80935  0.15839  Biso   1.000  C
  C93      1.0000 0.87628  0.69065  0.65839  Biso   1.000  C
  C94      1.0000 0.37628  0.19065  0.65839  Biso   1.000  C
  C95      1.0000 0.12372  0.69065  0.84161  Biso   1.000  C
  C96      1.0000 0.62372  0.19065  0.84161  Biso   1.000  C
  H57      1.0000 0.12250  0.39590  0.32910  Biso   1.000  H
  H58      1.0000 0.62250  0.89590  0.32910  Biso   1.000  H
  H59      1.0000 0.87750  0.39590  0.17090  Biso   1.000  H
  H60      1.0000 0.37750  0.89590  0.17090  Biso   1.000  H
  H61      1.0000 0.87750  0.60410  0.67090  Biso   1.000  H
  H62      1.0000 0.37750  0.10410  0.67090  Biso   1.000  H
  H63      1.0000 0.12250  0.60410  0.82910  Biso   1.000  H
  H64      1.0000 0.62250  0.10410  0.82910  Biso   1.000  H
  O1       1.0000 0.07527  0.66845  0.33897  Biso   1.000  O
  O2       1.0000 0.57527  0.16845  0.33897  Biso   1.000  O
  O3       1.0000 0.92473  0.66845  0.16103  Biso   1.000  O
  O4       1.0000 0.42473  0.16845  0.16103  Biso   1.000  O
  O5       1.0000 0.92473  0.33155  0.66103  Biso   1.000  O
  O6       1.0000 0.42473  0.83155  0.66103  Biso   1.000  O
  O7       1.0000 0.07527  0.33155  0.83897  Biso   1.000  O
  O8       1.0000 0.57527  0.83155  0.83897  Biso   1.000  O
  O9       1.0000 0.97155  0.74156  0.34142  Biso   1.000  O
  O10      1.0000 0.47155  0.24156  0.34142  Biso   1.000  O
  O11      1.0000 0.02845  0.74156  0.15858  Biso   1.000  O
  O12      1.0000 0.52845  0.24156  0.15858  Biso   1.000  O
  O13      1.0000 0.02845  0.25844  0.65858  Biso   1.000  O
  O14      1.0000 0.52845  0.75844  0.65858  Biso   1.000  O
  O15      1.0000 0.97155  0.25844  0.84142  Biso   1.000  O
  O16      1.0000 0.47155  0.75844  0.84142  Biso   1.000  O
  C97      1.0000 0.02743  0.66622  0.36629  Biso   1.000  C
  C98      1.0000 0.52743  0.16622  0.36629  Biso   1.000  C
  C99      1.0000 0.97257  0.66622  0.13371  Biso   1.000  C
  C100     1.0000 0.47257  0.16622  0.13371  Biso   1.000  C
  C101     1.0000 0.97257  0.33378  0.63371  Biso   1.000  C
  C102     1.0000 0.47257  0.83378  0.63371  Biso   1.000  C
  C103     1.0000 0.02743  0.33378  0.86629  Biso   1.000  C
  C104     1.0000 0.52743  0.83378  0.86629  Biso   1.000  C
  C105     1.0000 0.04119  0.56879  0.43546  Biso   1.000  C
  C106     1.0000 0.54119  0.06879  0.43546  Biso   1.000  C
  C107     1.0000 0.95881  0.56879  0.06454  Biso   1.000  C
  C108     1.0000 0.45881  0.06879  0.06454  Biso   1.000  C
  C109     1.0000 0.95881  0.43121  0.56454  Biso   1.000  C
  C110     1.0000 0.45881  0.93121  0.56454  Biso   1.000  C
  C111     1.0000 0.04119  0.43121  0.93546  Biso   1.000  C
  C112     1.0000 0.54119  0.93121  0.93546  Biso   1.000  C
  H65      1.0000 0.08570  0.51970  0.45870  Biso   1.000  H
  H66      1.0000 0.58570  0.01970  0.45870  Biso   1.000  H
  H67      1.0000 0.91430  0.51970  0.04130  Biso   1.000  H
  H68      1.0000 0.41430  0.01970  0.04130  Biso   1.000  H
  H69      1.0000 0.91430  0.48030  0.54130  Biso   1.000  H
  H70      1.0000 0.41430  0.98030  0.54130  Biso   1.000  H
  H71      1.0000 0.08570  0.48030  0.95870  Biso   1.000  H
  H72      1.0000 0.58570  0.98030  0.95870  Biso   1.000  H
  C113     1.0000 0.99314  0.54774  0.46617  Biso   1.000  C
  C114     1.0000 0.49314  0.04774  0.46617  Biso   1.000  C
  C115     1.0000 0.00686  0.54774  0.03383  Biso   1.000  C
  C116     1.0000 0.50686  0.04774  0.03383  Biso   1.000  C
  C117     1.0000 0.00686  0.45226  0.53383  Biso   1.000  C
  C118     1.0000 0.50686  0.95226  0.53383  Biso   1.000  C
  C119     1.0000 0.99314  0.45226  0.96617  Biso   1.000  C
  C120     1.0000 0.49314  0.95226  0.96617  Biso   1.000  C
  H73      1.0000 0.94870  0.59670  0.44300  Biso   1.000  H
  H74      1.0000 0.44870  0.09670  0.44300  Biso   1.000  H
  H75      1.0000 0.05130  0.59670  0.05700  Biso   1.000  H
  H76      1.0000 0.55130  0.09670  0.05700  Biso   1.000  H
  H77      1.0000 0.05130  0.40330  0.55700  Biso   1.000  H
  H78      1.0000 0.55130  0.90330  0.55700  Biso   1.000  H
  H79      1.0000 0.94870  0.40330  0.94300  Biso   1.000  H
  H80      1.0000 0.44870  0.90330  0.94300  Biso   1.000  H
  O17      1.0000 0.19528  0.75873  0.29773  Biso   1.000  O
  O18      1.0000 0.69528  0.25873  0.29773  Biso   1.000  O
  O19      1.0000 0.80472  0.75873  0.20227  Biso   1.000  O
  O20      1.0000 0.30472  0.25873  0.20227  Biso   1.000  O
  O21      1.0000 0.80472  0.24127  0.70227  Biso   1.000  O
  O22      1.0000 0.30472  0.74127  0.70227  Biso   1.000  O
  O23      1.0000 0.19528  0.24127  0.79773  Biso   1.000  O
  O24      1.0000 0.69528  0.74127  0.79773  Biso   1.000  O
  H81      1.0000 0.22810  0.81600  0.31690  Biso   1.000  H
  H82      1.0000 0.72810  0.31600  0.31690  Biso   1.000  H
  H83      1.0000 0.77190  0.81600  0.18310  Biso   1.000  H
  H84      1.0000 0.27190  0.31600  0.18310  Biso   1.000  H
  H85      1.0000 0.77190  0.18400  0.68310  Biso   1.000  H
  H86      1.0000 0.27190  0.68400  0.68310  Biso   1.000  H
  H87      1.0000 0.22810  0.18400  0.81690  Biso   1.000  H
  H88      1.0000 0.72810  0.68400  0.81690  Biso   1.000  H
  H89      1.0000 0.19300  0.72100  0.25550  Biso   1.000  H
  H90      1.0000 0.69300  0.22100  0.25550  Biso   1.000  H
  H91      1.0000 0.80700  0.72100  0.24450  Biso   1.000  H
  H92      1.0000 0.30700  0.22100  0.24450  Biso   1.000  H
  H93      1.0000 0.80700  0.27900  0.74450  Biso   1.000  H
  H94      1.0000 0.30700  0.77900  0.74450  Biso   1.000  H
  H95      1.0000 0.19300  0.27900  0.75550  Biso   1.000  H
  H96      1.0000 0.69300  0.77900  0.75550  Biso   1.000  H
  N17      1.0000 0.28932  0.03355  0.34087  Biso   1.000  N
  N18      1.0000 0.78932  0.53355  0.34087  Biso   1.000  N
  N19      1.0000 0.71068  0.03355  0.15913  Biso   1.000  N
  N20      1.0000 0.21068  0.53355  0.15913  Biso   1.000  N
  N21      1.0000 0.71068  0.96645  0.65913  Biso   1.000  N
  N22      1.0000 0.21068  0.46645  0.65913  Biso   1.000  N
  N23      1.0000 0.28932  0.96645  0.84087  Biso   1.000  N
  N24      1.0000 0.78932  0.46645  0.84087  Biso   1.000  N
  O25      1.0000 0.28403  0.97620  0.27503  Biso   1.000  O
  O26      1.0000 0.78403  0.47620  0.27503  Biso   1.000  O
  O27      1.0000 0.71597  0.97620  0.22497  Biso   1.000  O
  O28      1.0000 0.21597  0.47620  0.22497  Biso   1.000  O
  O29      1.0000 0.71597  0.02380  0.72497  Biso   1.000  O
  O30      1.0000 0.21597  0.52380  0.72497  Biso   1.000  O
  O31      1.0000 0.28403  0.02380  0.77503  Biso   1.000  O
  O32      1.0000 0.78403  0.52380  0.77503  Biso   1.000  O
  O33      1.0000 0.28445  0.97580  0.40094  Biso   1.000  O
  O34      1.0000 0.78445  0.47580  0.40094  Biso   1.000  O
  O35      1.0000 0.71555  0.97580  0.09906  Biso   1.000  O
  O36      1.0000 0.21555  0.47580  0.09906  Biso   1.000  O
  O37      1.0000 0.71555  0.02420  0.59906  Biso   1.000  O
  O38      1.0000 0.21555  0.52420  0.59906  Biso   1.000  O
  O39      1.0000 0.28445  0.02420  0.90094  Biso   1.000  O
  O40      1.0000 0.78445  0.52420  0.90094  Biso   1.000  O
  O41      1.0000 0.30252  0.14893  0.34899  Biso   1.000  O
  O42      1.0000 0.80252  0.64893  0.34899  Biso   1.000  O
  O43      1.0000 0.69748  0.14893  0.15101  Biso   1.000  O
  O44      1.0000 0.19748  0.64893  0.15101  Biso   1.000  O
  O45      1.0000 0.69748  0.85107  0.65101  Biso   1.000  O
  O46      1.0000 0.19748  0.35107  0.65101  Biso   1.000  O
  O47      1.0000 0.30252  0.85107  0.84899  Biso   1.000  O
  O48      1.0000 0.80252  0.35107  0.84899  Biso   1.000  O
