data_image0
_cell_length_a       19.0999
_cell_length_b       22.8762
_cell_length_c       13.3876
_cell_angle_alpha    90
_cell_angle_beta     112.928
_cell_angle_gamma    90

_symmetry_space_group_name_H-M    "P 1"
_symmetry_int_tables_number       1

loop_
  _symmetry_equiv_pos_as_xyz
  'x, y, z'

loop_
  _atom_site_label
  _atom_site_occupancy
  _atom_site_fract_x
  _atom_site_fract_y
  _atom_site_fract_z
  _atom_site_thermal_displace_type
  _atom_site_B_iso_or_equiv
  _atom_site_type_symbol
  Cu1      1.0000 0.49754  0.76429  0.55779  Biso   1.000  Cu
  Cu2      1.0000 0.99754  0.26429  0.55779  Biso   1.000  Cu
  Cu3      1.0000 0.50246  0.76429  0.94221  Biso   1.000  Cu
  Cu4      1.0000 0.00246  0.26429  0.94221  Biso   1.000  Cu
  Cu5      1.0000 0.50246  0.23571  0.44221  Biso   1.000  Cu
  Cu6      1.0000 0.00246  0.73571  0.44221  Biso   1.000  Cu
  Cu7      1.0000 0.49754  0.23571  0.05779  Biso   1.000  Cu
  Cu8      1.0000 0.99754  0.73571  0.05779  Biso   1.000  Cu
  Cu9      1.0000 0.50000  0.86772  0.75000  Biso   1.000  Cu
  Cu10     1.0000 0.00000  0.36772  0.75000  Biso   1.000  Cu
  Cu11     1.0000 0.50000  0.13228  0.25000  Biso   1.000  Cu
  Cu12     1.0000 0.00000  0.63228  0.25000  Biso   1.000  Cu
  N1       1.0000 0.46920  0.67879  0.54620  Biso   1.000  N
  N2       1.0000 0.96920  0.17879  0.54620  Biso   1.000  N
  N3       1.0000 0.53080  0.67879  0.95380  Biso   1.000  N
  N4       1.0000 0.03080  0.17879  0.95380  Biso   1.000  N
  N5       1.0000 0.53080  0.32121  0.45380  Biso   1.000  N
  N6       1.0000 0.03080  0.82121  0.45380  Biso   1.000  N
  N7       1.0000 0.46920  0.32121  0.04620  Biso   1.000  N
  N8       1.0000 0.96920  0.82121  0.04620  Biso   1.000  N
  N9       1.0000 0.40750  0.76770  0.41670  Biso   1.000  N
  N10      1.0000 0.90750  0.26770  0.41670  Biso   1.000  N
  N11      1.0000 0.59250  0.76770  0.08330  Biso   1.000  N
  N12      1.0000 0.09250  0.26770  0.08330  Biso   1.000  N
  N13      1.0000 0.59250  0.23230  0.58330  Biso   1.000  N
  N14      1.0000 0.09250  0.73230  0.58330  Biso   1.000  N
  N15      1.0000 0.40750  0.23230  0.91670  Biso   1.000  N
  N16      1.0000 0.90750  0.73230  0.91670  Biso   1.000  N
  N17      1.0000 0.57440  0.93385  0.80260  Biso   1.000  N
  N18      1.0000 0.07440  0.43385  0.80260  Biso   1.000  N
  N19      1.0000 0.42560  0.93385  0.69740  Biso   1.000  N
  N20      1.0000 0.92560  0.43385  0.69740  Biso   1.000  N
  N21      1.0000 0.42560  0.06615  0.19740  Biso   1.000  N
  N22      1.0000 0.92560  0.56615  0.19740  Biso   1.000  N
  N23      1.0000 0.57440  0.06615  0.30260  Biso   1.000  N
  N24      1.0000 0.07440  0.56615  0.30260  Biso   1.000  N
  O1       1.0000 0.51290  0.84840  0.56590  Biso   1.000  O
  O2       1.0000 0.01290  0.34840  0.56590  Biso   1.000  O
  O3       1.0000 0.48710  0.84840  0.93410  Biso   1.000  O
  O4       1.0000 0.98710  0.34840  0.93410  Biso   1.000  O
  O5       1.0000 0.48710  0.15160  0.43410  Biso   1.000  O
  O6       1.0000 0.98710  0.65160  0.43410  Biso   1.000  O
  O7       1.0000 0.51290  0.15160  0.06590  Biso   1.000  O
  O8       1.0000 0.01290  0.65160  0.06590  Biso   1.000  O
  O9       1.0000 0.62160  0.84811  0.54100  Biso   1.000  O
  O10      1.0000 0.12160  0.34811  0.54100  Biso   1.000  O
  O11      1.0000 0.37840  0.84811  0.95900  Biso   1.000  O
  O12      1.0000 0.87840  0.34811  0.95900  Biso   1.000  O
  O13      1.0000 0.37840  0.15189  0.45900  Biso   1.000  O
  O14      1.0000 0.87840  0.65189  0.45900  Biso   1.000  O
  O15      1.0000 0.62160  0.15189  0.04100  Biso   1.000  O
  O16      1.0000 0.12160  0.65189  0.04100  Biso   1.000  O
  O17      1.0000 0.58100  0.74775  0.69390  Biso   1.000  O
  O18      1.0000 0.08100  0.24775  0.69390  Biso   1.000  O
  O19      1.0000 0.41900  0.74775  0.80610  Biso   1.000  O
  O20      1.0000 0.91900  0.24775  0.80610  Biso   1.000  O
  O21      1.0000 0.41900  0.25225  0.30610  Biso   1.000  O
  O22      1.0000 0.91900  0.75225  0.30610  Biso   1.000  O
  O23      1.0000 0.58100  0.25225  0.19390  Biso   1.000  O
  O24      1.0000 0.08100  0.75225  0.19390  Biso   1.000  O
  O25      1.0000 0.57900  0.81081  0.82000  Biso   1.000  O
  O26      1.0000 0.07900  0.31081  0.82000  Biso   1.000  O
  O27      1.0000 0.42100  0.81081  0.68000  Biso   1.000  O
  O28      1.0000 0.92100  0.31081  0.68000  Biso   1.000  O
  O29      1.0000 0.42100  0.18919  0.18000  Biso   1.000  O
  O30      1.0000 0.92100  0.68919  0.18000  Biso   1.000  O
  O31      1.0000 0.57900  0.18919  0.32000  Biso   1.000  O
  O32      1.0000 0.07900  0.68919  0.32000  Biso   1.000  O
  C1       1.0000 0.50290  0.63550  0.61290  Biso   1.000  C
  C2       1.0000 0.00290  0.13550  0.61290  Biso   1.000  C
  C3       1.0000 0.49710  0.63550  0.88710  Biso   1.000  C
  C4       1.0000 0.99710  0.13550  0.88710  Biso   1.000  C
  C5       1.0000 0.49710  0.36450  0.38710  Biso   1.000  C
  C6       1.0000 0.99710  0.86450  0.38710  Biso   1.000  C
  C7       1.0000 0.50290  0.36450  0.11290  Biso   1.000  C
  C8       1.0000 0.00290  0.86450  0.11290  Biso   1.000  C
  H1       1.0000 0.54210  0.64400  0.67910  Biso   1.000  H
  H2       1.0000 0.04210  0.14400  0.67910  Biso   1.000  H
  H3       1.0000 0.45790  0.64400  0.82090  Biso   1.000  H
  H4       1.0000 0.95790  0.14400  0.82090  Biso   1.000  H
  H5       1.0000 0.45790  0.35600  0.32090  Biso   1.000  H
  H6       1.0000 0.95790  0.85600  0.32090  Biso   1.000  H
  H7       1.0000 0.54210  0.35600  0.17910  Biso   1.000  H
  H8       1.0000 0.04210  0.85600  0.17910  Biso   1.000  H
  C9       1.0000 0.48090  0.57710  0.58640  Biso   1.000  C
  C10      1.0000 0.98090  0.07710  0.58640  Biso   1.000  C
  C11      1.0000 0.51910  0.57710  0.91360  Biso   1.000  C
  C12      1.0000 0.01910  0.07710  0.91360  Biso   1.000  C
  C13      1.0000 0.51910  0.42290  0.41360  Biso   1.000  C
  C14      1.0000 0.01910  0.92290  0.41360  Biso   1.000  C
  C15      1.0000 0.48090  0.42290  0.08640  Biso   1.000  C
  C16      1.0000 0.98090  0.92290  0.08640  Biso   1.000  C
  H9       1.0000 0.50610  0.54730  0.63430  Biso   1.000  H
  H10      1.0000 0.00610  0.04730  0.63430  Biso   1.000  H
  H11      1.0000 0.49390  0.54730  0.86570  Biso   1.000  H
  H12      1.0000 0.99390  0.04730  0.86570  Biso   1.000  H
  H13      1.0000 0.49390  0.45270  0.36570  Biso   1.000  H
  H14      1.0000 0.99390  0.95270  0.36570  Biso   1.000  H
  H15      1.0000 0.50610  0.45270  0.13430  Biso   1.000  H
  H16      1.0000 0.00610  0.95270  0.13430  Biso   1.000  H
  C17      1.0000 0.42410  0.56420  0.49270  Biso   1.000  C
  C18      1.0000 0.92410  0.06420  0.49270  Biso   1.000  C
  C19      1.0000 0.57590  0.56420  0.00730  Biso   1.000  C
  C20      1.0000 0.07590  0.06420  0.00730  Biso   1.000  C
  C21      1.0000 0.57590  0.43580  0.50730  Biso   1.000  C
  C22      1.0000 0.07590  0.93580  0.50730  Biso   1.000  C
  C23      1.0000 0.42410  0.43580  0.99270  Biso   1.000  C
  C24      1.0000 0.92410  0.93580  0.99270  Biso   1.000  C
  H17      1.0000 0.40870  0.52560  0.47610  Biso   1.000  H
  H18      1.0000 0.90870  0.02560  0.47610  Biso   1.000  H
  H19      1.0000 0.59130  0.52560  0.02390  Biso   1.000  H
  H20      1.0000 0.09130  0.02560  0.02390  Biso   1.000  H
  H21      1.0000 0.59130  0.47440  0.52390  Biso   1.000  H
  H22      1.0000 0.09130  0.97440  0.52390  Biso   1.000  H
  H23      1.0000 0.40870  0.47440  0.97610  Biso   1.000  H
  H24      1.0000 0.90870  0.97440  0.97610  Biso   1.000  H
  C25      1.0000 0.38720  0.60930  0.41890  Biso   1.000  C
  C26      1.0000 0.88720  0.10930  0.41890  Biso   1.000  C
  C27      1.0000 0.61280  0.60930  0.08110  Biso   1.000  C
  C28      1.0000 0.11280  0.10930  0.08110  Biso   1.000  C
  C29      1.0000 0.61280  0.39070  0.58110  Biso   1.000  C
  C30      1.0000 0.11280  0.89070  0.58110  Biso   1.000  C
  C31      1.0000 0.38720  0.39070  0.91890  Biso   1.000  C
  C32      1.0000 0.88720  0.89070  0.91890  Biso   1.000  C
  C33      1.0000 0.32510  0.60130  0.31470  Biso   1.000  C
  C34      1.0000 0.82510  0.10130  0.31470  Biso   1.000  C
  C35      1.0000 0.67490  0.60130  0.18530  Biso   1.000  C
  C36      1.0000 0.17490  0.10130  0.18530  Biso   1.000  C
  C37      1.0000 0.67490  0.39870  0.68530  Biso   1.000  C
  C38      1.0000 0.17490  0.89870  0.68530  Biso   1.000  C
  C39      1.0000 0.32510  0.39870  0.81470  Biso   1.000  C
  C40      1.0000 0.82510  0.89870  0.81470  Biso   1.000  C
  H25      1.0000 0.30650  0.56390  0.29300  Biso   1.000  H
  H26      1.0000 0.80650  0.06390  0.29300  Biso   1.000  H
  H27      1.0000 0.69350  0.56390  0.20700  Biso   1.000  H
  H28      1.0000 0.19350  0.06390  0.20700  Biso   1.000  H
  H29      1.0000 0.69350  0.43610  0.70700  Biso   1.000  H
  H30      1.0000 0.19350  0.93610  0.70700  Biso   1.000  H
  H31      1.0000 0.30650  0.43610  0.79300  Biso   1.000  H
  H32      1.0000 0.80650  0.93610  0.79300  Biso   1.000  H
  C41      1.0000 0.29420  0.64580  0.24980  Biso   1.000  C
  C42      1.0000 0.79420  0.14580  0.24980  Biso   1.000  C
  C43      1.0000 0.70580  0.64580  0.25020  Biso   1.000  C
  C44      1.0000 0.20580  0.14580  0.25020  Biso   1.000  C
  C45      1.0000 0.70580  0.35420  0.75020  Biso   1.000  C
  C46      1.0000 0.20580  0.85420  0.75020  Biso   1.000  C
  C47      1.0000 0.29420  0.35420  0.74980  Biso   1.000  C
  C48      1.0000 0.79420  0.85420  0.74980  Biso   1.000  C
  H33      1.0000 0.25520  0.63880  0.18290  Biso   1.000  H
  H34      1.0000 0.75520  0.13880  0.18290  Biso   1.000  H
  H35      1.0000 0.74480  0.63880  0.31710  Biso   1.000  H
  H36      1.0000 0.24480  0.13880  0.31710  Biso   1.000  H
  H37      1.0000 0.74480  0.36120  0.81710  Biso   1.000  H
  H38      1.0000 0.24480  0.86120  0.81710  Biso   1.000  H
  H39      1.0000 0.25520  0.36120  0.68290  Biso   1.000  H
  H40      1.0000 0.75520  0.86120  0.68290  Biso   1.000  H
  C49      1.0000 0.31890  0.70440  0.27930  Biso   1.000  C
  C50      1.0000 0.81890  0.20440  0.27930  Biso   1.000  C
  C51      1.0000 0.68110  0.70440  0.22070  Biso   1.000  C
  C52      1.0000 0.18110  0.20440  0.22070  Biso   1.000  C
  C53      1.0000 0.68110  0.29560  0.72070  Biso   1.000  C
  C54      1.0000 0.18110  0.79560  0.72070  Biso   1.000  C
  C55      1.0000 0.31890  0.29560  0.77930  Biso   1.000  C
  C56      1.0000 0.81890  0.79560  0.77930  Biso   1.000  C
  C57      1.0000 0.28890  0.75430  0.21650  Biso   1.000  C
  C58      1.0000 0.78890  0.25430  0.21650  Biso   1.000  C
  C59      1.0000 0.71110  0.75430  0.28350  Biso   1.000  C
  C60      1.0000 0.21110  0.25430  0.28350  Biso   1.000  C
  C61      1.0000 0.71110  0.24570  0.78350  Biso   1.000  C
  C62      1.0000 0.21110  0.74570  0.78350  Biso   1.000  C
  C63      1.0000 0.28890  0.24570  0.71650  Biso   1.000  C
  C64      1.0000 0.78890  0.74570  0.71650  Biso   1.000  C
  H41      1.0000 0.24960  0.75070  0.14850  Biso   1.000  H
  H42      1.0000 0.74960  0.25070  0.14850  Biso   1.000  H
  H43      1.0000 0.75040  0.75070  0.35150  Biso   1.000  H
  H44      1.0000 0.25040  0.25070  0.35150  Biso   1.000  H
  H45      1.0000 0.75040  0.24930  0.85150  Biso   1.000  H
  H46      1.0000 0.25040  0.74930  0.85150  Biso   1.000  H
  H47      1.0000 0.24960  0.24930  0.64850  Biso   1.000  H
  H48      1.0000 0.74960  0.74930  0.64850  Biso   1.000  H
  C65      1.0000 0.31650  0.80680  0.25400  Biso   1.000  C
  C66      1.0000 0.81650  0.30680  0.25400  Biso   1.000  C
  C67      1.0000 0.68350  0.80680  0.24600  Biso   1.000  C
  C68      1.0000 0.18350  0.30680  0.24600  Biso   1.000  C
  C69      1.0000 0.68350  0.19320  0.74600  Biso   1.000  C
  C70      1.0000 0.18350  0.69320  0.74600  Biso   1.000  C
  C71      1.0000 0.31650  0.19320  0.75400  Biso   1.000  C
  C72      1.0000 0.81650  0.69320  0.75400  Biso   1.000  C
  H49      1.0000 0.29580  0.83970  0.21220  Biso   1.000  H
  H50      1.0000 0.79580  0.33970  0.21220  Biso   1.000  H
  H51      1.0000 0.70420  0.83970  0.28780  Biso   1.000  H
  H52      1.0000 0.20420  0.33970  0.28780  Biso   1.000  H
  H53      1.0000 0.70420  0.16030  0.78780  Biso   1.000  H
  H54      1.0000 0.20420  0.66030  0.78780  Biso   1.000  H
  H55      1.0000 0.29580  0.16030  0.71220  Biso   1.000  H
  H56      1.0000 0.79580  0.66030  0.71220  Biso   1.000  H
  C73      1.0000 0.37530  0.81340  0.35420  Biso   1.000  C
  C74      1.0000 0.87530  0.31340  0.35420  Biso   1.000  C
  C75      1.0000 0.62470  0.81340  0.14580  Biso   1.000  C
  C76      1.0000 0.12470  0.31340  0.14580  Biso   1.000  C
  C77      1.0000 0.62470  0.18660  0.64580  Biso   1.000  C
  C78      1.0000 0.12470  0.68660  0.64580  Biso   1.000  C
  C79      1.0000 0.37530  0.18660  0.85420  Biso   1.000  C
  C80      1.0000 0.87530  0.68660  0.85420  Biso   1.000  C
  H57      1.0000 0.39290  0.85070  0.37850  Biso   1.000  H
  H58      1.0000 0.89290  0.35070  0.37850  Biso   1.000  H
  H59      1.0000 0.60710  0.85070  0.12150  Biso   1.000  H
  H60      1.0000 0.10710  0.35070  0.12150  Biso   1.000  H
  H61      1.0000 0.60710  0.14930  0.62150  Biso   1.000  H
  H62      1.0000 0.10710  0.64930  0.62150  Biso   1.000  H
  H63      1.0000 0.39290  0.14930  0.87850  Biso   1.000  H
  H64      1.0000 0.89290  0.64930  0.87850  Biso   1.000  H
  C81      1.0000 0.37830  0.71360  0.38050  Biso   1.000  C
  C82      1.0000 0.87830  0.21360  0.38050  Biso   1.000  C
  C83      1.0000 0.62170  0.71360  0.11950  Biso   1.000  C
  C84      1.0000 0.12170  0.21360  0.11950  Biso   1.000  C
  C85      1.0000 0.62170  0.28640  0.61950  Biso   1.000  C
  C86      1.0000 0.12170  0.78640  0.61950  Biso   1.000  C
  C87      1.0000 0.37830  0.28640  0.88050  Biso   1.000  C
  C88      1.0000 0.87830  0.78640  0.88050  Biso   1.000  C
  C89      1.0000 0.41220  0.66590  0.45050  Biso   1.000  C
  C90      1.0000 0.91220  0.16590  0.45050  Biso   1.000  C
  C91      1.0000 0.58780  0.66590  0.04950  Biso   1.000  C
  C92      1.0000 0.08780  0.16590  0.04950  Biso   1.000  C
  C93      1.0000 0.58780  0.33410  0.54950  Biso   1.000  C
  C94      1.0000 0.08780  0.83410  0.54950  Biso   1.000  C
  C95      1.0000 0.41220  0.33410  0.95050  Biso   1.000  C
  C96      1.0000 0.91220  0.83410  0.95050  Biso   1.000  C
  C97      1.0000 0.64870  0.93200  0.85700  Biso   1.000  C
  C98      1.0000 0.14870  0.43200  0.85700  Biso   1.000  C
  C99      1.0000 0.35130  0.93200  0.64300  Biso   1.000  C
  C100     1.0000 0.85130  0.43200  0.64300  Biso   1.000  C
  C101     1.0000 0.35130  0.06800  0.14300  Biso   1.000  C
  C102     1.0000 0.85130  0.56800  0.14300  Biso   1.000  C
  C103     1.0000 0.64870  0.06800  0.35700  Biso   1.000  C
  C104     1.0000 0.14870  0.56800  0.35700  Biso   1.000  C
  H65      1.0000 0.67290  0.89590  0.87410  Biso   1.000  H
  H66      1.0000 0.17290  0.39590  0.87410  Biso   1.000  H
  H67      1.0000 0.32710  0.89590  0.62590  Biso   1.000  H
  H68      1.0000 0.82710  0.39590  0.62590  Biso   1.000  H
  H69      1.0000 0.32710  0.10410  0.12590  Biso   1.000  H
  H70      1.0000 0.82710  0.60410  0.12590  Biso   1.000  H
  H71      1.0000 0.67290  0.10410  0.37410  Biso   1.000  H
  H72      1.0000 0.17290  0.60410  0.37410  Biso   1.000  H
  C105     1.0000 0.69180  0.98320  0.88950  Biso   1.000  C
  C106     1.0000 0.19180  0.48320  0.88950  Biso   1.000  C
  C107     1.0000 0.30820  0.98320  0.61050  Biso   1.000  C
  C108     1.0000 0.80820  0.48320  0.61050  Biso   1.000  C
  C109     1.0000 0.30820  0.01680  0.11050  Biso   1.000  C
  C110     1.0000 0.80820  0.51680  0.11050  Biso   1.000  C
  C111     1.0000 0.69180  0.01680  0.38950  Biso   1.000  C
  C112     1.0000 0.19180  0.51680  0.38950  Biso   1.000  C
  H73      1.0000 0.74410  0.98080  0.92750  Biso   1.000  H
  H74      1.0000 0.24410  0.48080  0.92750  Biso   1.000  H
  H75      1.0000 0.25590  0.98080  0.57250  Biso   1.000  H
  H76      1.0000 0.75590  0.48080  0.57250  Biso   1.000  H
  H77      1.0000 0.25590  0.01920  0.07250  Biso   1.000  H
  H78      1.0000 0.75590  0.51920  0.07250  Biso   1.000  H
  H79      1.0000 0.74410  0.01920  0.42750  Biso   1.000  H
  H80      1.0000 0.24410  0.51920  0.42750  Biso   1.000  H
  C113     1.0000 0.65790  0.03590  0.86610  Biso   1.000  C
  C114     1.0000 0.15790  0.53590  0.86610  Biso   1.000  C
  C115     1.0000 0.34210  0.03590  0.63390  Biso   1.000  C
  C116     1.0000 0.84210  0.53590  0.63390  Biso   1.000  C
  C117     1.0000 0.34210  0.96410  0.13390  Biso   1.000  C
  C118     1.0000 0.84210  0.46410  0.13390  Biso   1.000  C
  C119     1.0000 0.65790  0.96410  0.36610  Biso   1.000  C
  C120     1.0000 0.15790  0.46410  0.36610  Biso   1.000  C
  H81      1.0000 0.68660  0.06970  0.88900  Biso   1.000  H
  H82      1.0000 0.18660  0.56970  0.88900  Biso   1.000  H
  H83      1.0000 0.31340  0.06970  0.61100  Biso   1.000  H
  H84      1.0000 0.81340  0.56970  0.61100  Biso   1.000  H
  H85      1.0000 0.31340  0.93030  0.11100  Biso   1.000  H
  H86      1.0000 0.81340  0.43030  0.11100  Biso   1.000  H
  H87      1.0000 0.68660  0.93030  0.38900  Biso   1.000  H
  H88      1.0000 0.18660  0.43030  0.38900  Biso   1.000  H
  C121     1.0000 0.58020  0.03960  0.80780  Biso   1.000  C
  C122     1.0000 0.08020  0.53960  0.80780  Biso   1.000  C
  C123     1.0000 0.41980  0.03960  0.69220  Biso   1.000  C
  C124     1.0000 0.91980  0.53960  0.69220  Biso   1.000  C
  C125     1.0000 0.41980  0.96040  0.19220  Biso   1.000  C
  C126     1.0000 0.91980  0.46040  0.19220  Biso   1.000  C
  C127     1.0000 0.58020  0.96040  0.30780  Biso   1.000  C
  C128     1.0000 0.08020  0.46040  0.30780  Biso   1.000  C
  C129     1.0000 0.53790  0.09300  0.77790  Biso   1.000  C
  C130     1.0000 0.03790  0.59300  0.77790  Biso   1.000  C
  C131     1.0000 0.46210  0.09300  0.72210  Biso   1.000  C
  C132     1.0000 0.96210  0.59300  0.72210  Biso   1.000  C
  C133     1.0000 0.46210  0.90700  0.22210  Biso   1.000  C
  C134     1.0000 0.96210  0.40700  0.22210  Biso   1.000  C
  C135     1.0000 0.53790  0.90700  0.27790  Biso   1.000  C
  C136     1.0000 0.03790  0.40700  0.27790  Biso   1.000  C
  H89      1.0000 0.56340  0.12850  0.79750  Biso   1.000  H
  H90      1.0000 0.06340  0.62850  0.79750  Biso   1.000  H
  H91      1.0000 0.43660  0.12850  0.70250  Biso   1.000  H
  H92      1.0000 0.93660  0.62850  0.70250  Biso   1.000  H
  H93      1.0000 0.43660  0.87150  0.20250  Biso   1.000  H
  H94      1.0000 0.93660  0.37150  0.20250  Biso   1.000  H
  H95      1.0000 0.56340  0.87150  0.29750  Biso   1.000  H
  H96      1.0000 0.06340  0.37150  0.29750  Biso   1.000  H
  C137     1.0000 0.53990  0.98730  0.77860  Biso   1.000  C
  C138     1.0000 0.03990  0.48730  0.77860  Biso   1.000  C
  C139     1.0000 0.46010  0.98730  0.72140  Biso   1.000  C
  C140     1.0000 0.96010  0.48730  0.72140  Biso   1.000  C
  C141     1.0000 0.46010  0.01270  0.22140  Biso   1.000  C
  C142     1.0000 0.96010  0.51270  0.22140  Biso   1.000  C
  C143     1.0000 0.53990  0.01270  0.27860  Biso   1.000  C
  C144     1.0000 0.03990  0.51270  0.27860  Biso   1.000  C
  C145     1.0000 0.56800  0.87330  0.55260  Biso   1.000  C
  C146     1.0000 0.06800  0.37330  0.55260  Biso   1.000  C
  C147     1.0000 0.43200  0.87330  0.94740  Biso   1.000  C
  C148     1.0000 0.93200  0.37330  0.94740  Biso   1.000  C
  C149     1.0000 0.43200  0.12670  0.44740  Biso   1.000  C
  C150     1.0000 0.93200  0.62670  0.44740  Biso   1.000  C
  C151     1.0000 0.56800  0.12670  0.05260  Biso   1.000  C
  C152     1.0000 0.06800  0.62670  0.05260  Biso   1.000  C
  C153     1.0000 0.56580  0.93850  0.54600  Biso   1.000  C
  C154     1.0000 0.06580  0.43850  0.54600  Biso   1.000  C
  C155     1.0000 0.43420  0.93850  0.95400  Biso   1.000  C
  C156     1.0000 0.93420  0.43850  0.95400  Biso   1.000  C
  C157     1.0000 0.43420  0.06150  0.45400  Biso   1.000  C
  C158     1.0000 0.93420  0.56150  0.45400  Biso   1.000  C
  C159     1.0000 0.56580  0.06150  0.04600  Biso   1.000  C
  C160     1.0000 0.06580  0.56150  0.04600  Biso   1.000  C
  H97      1.0000 0.61160  0.95870  0.56930  Biso   1.000  H
  H98      1.0000 0.11160  0.45870  0.56930  Biso   1.000  H
  H99      1.0000 0.38840  0.95870  0.93070  Biso   1.000  H
  H100     1.0000 0.88840  0.45870  0.93070  Biso   1.000  H
  H101     1.0000 0.38840  0.04130  0.43070  Biso   1.000  H
  H102     1.0000 0.88840  0.54130  0.43070  Biso   1.000  H
  H103     1.0000 0.61160  0.04130  0.06930  Biso   1.000  H
  H104     1.0000 0.11160  0.54130  0.06930  Biso   1.000  H
  C161     1.0000 0.50190  0.96880  0.50880  Biso   1.000  C
  C162     1.0000 0.00190  0.46880  0.50880  Biso   1.000  C
  C163     1.0000 0.49810  0.96880  0.99120  Biso   1.000  C
  C164     1.0000 0.99810  0.46880  0.99120  Biso   1.000  C
  C165     1.0000 0.49810  0.03120  0.49120  Biso   1.000  C
  C166     1.0000 0.99810  0.53120  0.49120  Biso   1.000  C
  C167     1.0000 0.50190  0.03120  0.00880  Biso   1.000  C
  C168     1.0000 0.00190  0.53120  0.00880  Biso   1.000  C
  H105     1.0000 0.45650  0.94860  0.49300  Biso   1.000  H
  H106     1.0000 0.95650  0.44860  0.49300  Biso   1.000  H
  H107     1.0000 0.54350  0.94860  0.00700  Biso   1.000  H
  H108     1.0000 0.04350  0.44860  0.00700  Biso   1.000  H
  H109     1.0000 0.54350  0.05140  0.50700  Biso   1.000  H
  H110     1.0000 0.04350  0.55140  0.50700  Biso   1.000  H
  H111     1.0000 0.45650  0.05140  0.99300  Biso   1.000  H
  H112     1.0000 0.95650  0.55140  0.99300  Biso   1.000  H
  C169     1.0000 0.60550  0.76840  0.78630  Biso   1.000  C
  C170     1.0000 0.10550  0.26840  0.78630  Biso   1.000  C
  C171     1.0000 0.39450  0.76840  0.71370  Biso   1.000  C
  C172     1.0000 0.89450  0.26840  0.71370  Biso   1.000  C
  C173     1.0000 0.39450  0.23160  0.21370  Biso   1.000  C
  C174     1.0000 0.89450  0.73160  0.21370  Biso   1.000  C
  C175     1.0000 0.60550  0.23160  0.28630  Biso   1.000  C
  C176     1.0000 0.10550  0.73160  0.28630  Biso   1.000  C
  C177     1.0000 0.67440  0.74010  0.86670  Biso   1.000  C
  C178     1.0000 0.17440  0.24010  0.86670  Biso   1.000  C
  C179     1.0000 0.32560  0.74010  0.63330  Biso   1.000  C
  C180     1.0000 0.82560  0.24010  0.63330  Biso   1.000  C
  C181     1.0000 0.32560  0.25990  0.13330  Biso   1.000  C
  C182     1.0000 0.82560  0.75990  0.13330  Biso   1.000  C
  C183     1.0000 0.67440  0.25990  0.36670  Biso   1.000  C
  C184     1.0000 0.17440  0.75990  0.36670  Biso   1.000  C
  H113     1.0000 0.68910  0.70410  0.84930  Biso   1.000  H
  H114     1.0000 0.18910  0.20410  0.84930  Biso   1.000  H
  H115     1.0000 0.31090  0.70410  0.65070  Biso   1.000  H
  H116     1.0000 0.81090  0.20410  0.65070  Biso   1.000  H
  H117     1.0000 0.31090  0.29590  0.15070  Biso   1.000  H
  H118     1.0000 0.81090  0.79590  0.15070  Biso   1.000  H
  H119     1.0000 0.68910  0.29590  0.34930  Biso   1.000  H
  H120     1.0000 0.18910  0.79590  0.34930  Biso   1.000  H
  C185     1.0000 0.71570  0.76330  0.96120  Biso   1.000  C
  C186     1.0000 0.21570  0.26330  0.96120  Biso   1.000  C
  C187     1.0000 0.28430  0.76330  0.53880  Biso   1.000  C
  C188     1.0000 0.78430  0.26330  0.53880  Biso   1.000  C
  C189     1.0000 0.28430  0.23670  0.03880  Biso   1.000  C
  C190     1.0000 0.78430  0.73670  0.03880  Biso   1.000  C
  C191     1.0000 0.71570  0.23670  0.46120  Biso   1.000  C
  C192     1.0000 0.21570  0.73670  0.46120  Biso   1.000  C
  H121     1.0000 0.70010  0.79880  0.97940  Biso   1.000  H
  H122     1.0000 0.20010  0.29880  0.97940  Biso   1.000  H
  H123     1.0000 0.29990  0.79880  0.52060  Biso   1.000  H
  H124     1.0000 0.79990  0.29880  0.52060  Biso   1.000  H
  H125     1.0000 0.29990  0.20120  0.02060  Biso   1.000  H
  H126     1.0000 0.79990  0.70120  0.02060  Biso   1.000  H
  H127     1.0000 0.70010  0.20120  0.47940  Biso   1.000  H
  H128     1.0000 0.20010  0.70120  0.47940  Biso   1.000  H
  O33      1.0000 0.57940  0.74120  0.46260  Biso   1.000  O
  O34      1.0000 0.07940  0.24120  0.46260  Biso   1.000  O
  O35      1.0000 0.42060  0.74120  0.03740  Biso   1.000  O
  O36      1.0000 0.92060  0.24120  0.03740  Biso   1.000  O
  O37      1.0000 0.42060  0.25880  0.53740  Biso   1.000  O
  O38      1.0000 0.92060  0.75880  0.53740  Biso   1.000  O
  O39      1.0000 0.57940  0.25880  0.96260  Biso   1.000  O
  O40      1.0000 0.07940  0.75880  0.96260  Biso   1.000  O
  H129     1.0000 0.61400  0.71530  0.48500  Biso   1.000  H
  H130     1.0000 0.11400  0.21530  0.48500  Biso   1.000  H
  H131     1.0000 0.38600  0.71530  0.01500  Biso   1.000  H
  H132     1.0000 0.88600  0.21530  0.01500  Biso   1.000  H
  H133     1.0000 0.38600  0.28470  0.51500  Biso   1.000  H
  H134     1.0000 0.88600  0.78470  0.51500  Biso   1.000  H
  H135     1.0000 0.61400  0.28470  0.98500  Biso   1.000  H
  H136     1.0000 0.11400  0.78470  0.98500  Biso   1.000  H
  H137     1.0000 0.56300  0.74000  0.39390  Biso   1.000  H
  H138     1.0000 0.06300  0.24000  0.39390  Biso   1.000  H
  H139     1.0000 0.43700  0.74000  0.10610  Biso   1.000  H
  H140     1.0000 0.93700  0.24000  0.10610  Biso   1.000  H
  H141     1.0000 0.43700  0.26000  0.60610  Biso   1.000  H
  H142     1.0000 0.93700  0.76000  0.60610  Biso   1.000  H
  H143     1.0000 0.56300  0.26000  0.89390  Biso   1.000  H
  H144     1.0000 0.06300  0.76000  0.89390  Biso   1.000  H
  O41      1.0000 0.50000  0.70450  0.25000  Biso   1.000  O
  O42      1.0000 0.00000  0.20450  0.25000  Biso   1.000  O
  O43      1.0000 0.50000  0.29550  0.75000  Biso   1.000  O
  O44      1.0000 0.00000  0.79550  0.75000  Biso   1.000  O
  H145     1.0000 0.46730  0.68200  0.25820  Biso   1.000  H
  H146     1.0000 0.96730  0.18200  0.25820  Biso   1.000  H
  H147     1.0000 0.53270  0.68200  0.24180  Biso   1.000  H
  H148     1.0000 0.03270  0.18200  0.24180  Biso   1.000  H
  H149     1.0000 0.53270  0.31800  0.74180  Biso   1.000  H
  H150     1.0000 0.03270  0.81800  0.74180  Biso   1.000  H
  H151     1.0000 0.46730  0.31800  0.75820  Biso   1.000  H
  H152     1.0000 0.96730  0.81800  0.75820  Biso   1.000  H
  O45      1.0000 0.56840  0.56480  0.34830  Biso   1.000  O
  O46      1.0000 0.06840  0.06480  0.34830  Biso   1.000  O
  O47      1.0000 0.43160  0.56480  0.15170  Biso   1.000  O
  O48      1.0000 0.93160  0.06480  0.15170  Biso   1.000  O
  O49      1.0000 0.43160  0.43520  0.65170  Biso   1.000  O
  O50      1.0000 0.93160  0.93520  0.65170  Biso   1.000  O
  O51      1.0000 0.56840  0.43520  0.84830  Biso   1.000  O
  O52      1.0000 0.06840  0.93520  0.84830  Biso   1.000  O
  H153     1.0000 0.57300  0.59880  0.32600  Biso   1.000  H
  H154     1.0000 0.07300  0.09880  0.32600  Biso   1.000  H
  H155     1.0000 0.42700  0.59880  0.17400  Biso   1.000  H
  H156     1.0000 0.92700  0.09880  0.17400  Biso   1.000  H
  H157     1.0000 0.42700  0.40120  0.67400  Biso   1.000  H
  H158     1.0000 0.92700  0.90120  0.67400  Biso   1.000  H
  H159     1.0000 0.57300  0.40120  0.82600  Biso   1.000  H
  H160     1.0000 0.07300  0.90120  0.82600  Biso   1.000  H
  H161     1.0000 0.60300  0.54400  0.33900  Biso   1.000  H
  H162     1.0000 0.10300  0.04400  0.33900  Biso   1.000  H
  H163     1.0000 0.39700  0.54400  0.16100  Biso   1.000  H
  H164     1.0000 0.89700  0.04400  0.16100  Biso   1.000  H
  H165     1.0000 0.39700  0.45600  0.66100  Biso   1.000  H
  H166     1.0000 0.89700  0.95600  0.66100  Biso   1.000  H
  H167     1.0000 0.60300  0.45600  0.83900  Biso   1.000  H
  H168     1.0000 0.10300  0.95600  0.83900  Biso   1.000  H
  O53      1.0000 0.65840  0.63620  0.52530  Biso   1.000  O
  O54      1.0000 0.15840  0.13620  0.52530  Biso   1.000  O
  O55      1.0000 0.34160  0.63620  0.97470  Biso   1.000  O
  O56      1.0000 0.84160  0.13620  0.97470  Biso   1.000  O
  O57      1.0000 0.34160  0.36380  0.47470  Biso   1.000  O
  O58      1.0000 0.84160  0.86380  0.47470  Biso   1.000  O
  O59      1.0000 0.65840  0.36380  0.02530  Biso   1.000  O
  O60      1.0000 0.15840  0.86380  0.02530  Biso   1.000  O
  H169     1.0000 0.61620  0.62200  0.48300  Biso   1.000  H
  H170     1.0000 0.11620  0.12200  0.48300  Biso   1.000  H
  H171     1.0000 0.38380  0.62200  0.01700  Biso   1.000  H
  H172     1.0000 0.88380  0.12200  0.01700  Biso   1.000  H
  H173     1.0000 0.38380  0.37800  0.51700  Biso   1.000  H
  H174     1.0000 0.88380  0.87800  0.51700  Biso   1.000  H
  H175     1.0000 0.61620  0.37800  0.98300  Biso   1.000  H
  H176     1.0000 0.11620  0.87800  0.98300  Biso   1.000  H
  H177     1.0000 0.67200  0.61600  0.58300  Biso   1.000  H
  H178     1.0000 0.17200  0.11600  0.58300  Biso   1.000  H
  H179     1.0000 0.32800  0.61600  0.91700  Biso   1.000  H
  H180     1.0000 0.82800  0.11600  0.91700  Biso   1.000  H
  H181     1.0000 0.32800  0.38400  0.41700  Biso   1.000  H
  H182     1.0000 0.82800  0.88400  0.41700  Biso   1.000  H
  H183     1.0000 0.67200  0.38400  0.08300  Biso   1.000  H
  H184     1.0000 0.17200  0.88400  0.08300  Biso   1.000  H
  Cl1      1.0000 0.71507  0.55798  0.82362  Biso   1.000  Cl
  Cl2      1.0000 0.21507  0.05798  0.82362  Biso   1.000  Cl
  Cl3      1.0000 0.28493  0.55798  0.67638  Biso   1.000  Cl
  Cl4      1.0000 0.78493  0.05798  0.67638  Biso   1.000  Cl
  Cl5      1.0000 0.28493  0.44202  0.17638  Biso   1.000  Cl
  Cl6      1.0000 0.78493  0.94202  0.17638  Biso   1.000  Cl
  Cl7      1.0000 0.71507  0.44202  0.32362  Biso   1.000  Cl
  Cl8      1.0000 0.21507  0.94202  0.32362  Biso   1.000  Cl
  O61      1.0000 0.67280  0.50770  0.85200  Biso   1.000  O
  O62      1.0000 0.17280  0.00770  0.85200  Biso   1.000  O
  O63      1.0000 0.32720  0.50770  0.64800  Biso   1.000  O
  O64      1.0000 0.82720  0.00770  0.64800  Biso   1.000  O
  O65      1.0000 0.32720  0.49230  0.14800  Biso   1.000  O
  O66      1.0000 0.82720  0.99230  0.14800  Biso   1.000  O
  O67      1.0000 0.67280  0.49230  0.35200  Biso   1.000  O
  O68      1.0000 0.17280  0.99230  0.35200  Biso   1.000  O
  O69      1.0000 0.72030  0.59820  0.90960  Biso   1.000  O
  O70      1.0000 0.22030  0.09820  0.90960  Biso   1.000  O
  O71      1.0000 0.27970  0.59820  0.59040  Biso   1.000  O
  O72      1.0000 0.77970  0.09820  0.59040  Biso   1.000  O
  O73      1.0000 0.27970  0.40180  0.09040  Biso   1.000  O
  O74      1.0000 0.77970  0.90180  0.09040  Biso   1.000  O
  O75      1.0000 0.72030  0.40180  0.40960  Biso   1.000  O
  O76      1.0000 0.22030  0.90180  0.40960  Biso   1.000  O
  O77      1.0000 0.66290  0.57850  0.72530  Biso   1.000  O
  O78      1.0000 0.16290  0.07850  0.72530  Biso   1.000  O
  O79      1.0000 0.33710  0.57850  0.77470  Biso   1.000  O
  O80      1.0000 0.83710  0.07850  0.77470  Biso   1.000  O
  O81      1.0000 0.33710  0.42150  0.27470  Biso   1.000  O
  O82      1.0000 0.83710  0.92150  0.27470  Biso   1.000  O
  O83      1.0000 0.66290  0.42150  0.22530  Biso   1.000  O
  O84      1.0000 0.16290  0.92150  0.22530  Biso   1.000  O
  O85      1.0000 0.78120  0.53620  0.82630  Biso   1.000  O
  O86      1.0000 0.28120  0.03620  0.82630  Biso   1.000  O
  O87      1.0000 0.21880  0.53620  0.67370  Biso   1.000  O
  O88      1.0000 0.71880  0.03620  0.67370  Biso   1.000  O
  O89      1.0000 0.21880  0.46380  0.17370  Biso   1.000  O
  O90      1.0000 0.71880  0.96380  0.17370  Biso   1.000  O
  O91      1.0000 0.78120  0.46380  0.32630  Biso   1.000  O
  O92      1.0000 0.28120  0.96380  0.32630  Biso   1.000  O
  H185     1.0000 0.52660  0.55200  0.30200  Biso   1.000  H
  H186     1.0000 0.02660  0.05200  0.30200  Biso   1.000  H
  H187     1.0000 0.47340  0.55200  0.19800  Biso   1.000  H
  H188     1.0000 0.97340  0.05200  0.19800  Biso   1.000  H
  H189     1.0000 0.47340  0.44800  0.69800  Biso   1.000  H
  H190     1.0000 0.97340  0.94800  0.69800  Biso   1.000  H
  H191     1.0000 0.52660  0.44800  0.80200  Biso   1.000  H
  H192     1.0000 0.02660  0.94800  0.80200  Biso   1.000  H
  O93      1.0000 0.71260  0.50080  0.86060  Biso   1.000  O
  O94      1.0000 0.21260  0.00080  0.86060  Biso   1.000  O
  O95      1.0000 0.28740  0.50080  0.63940  Biso   1.000  O
  O96      1.0000 0.78740  0.00080  0.63940  Biso   1.000  O
  O97      1.0000 0.28740  0.49920  0.13940  Biso   1.000  O
  O98      1.0000 0.78740  0.99920  0.13940  Biso   1.000  O
  O99      1.0000 0.71260  0.49920  0.36060  Biso   1.000  O
  O100     1.0000 0.21260  0.99920  0.36060  Biso   1.000  O
  O101     1.0000 0.68520  0.59950  0.86780  Biso   1.000  O
  O102     1.0000 0.18520  0.09950  0.86780  Biso   1.000  O
  O103     1.0000 0.31480  0.59950  0.63220  Biso   1.000  O
  O104     1.0000 0.81480  0.09950  0.63220  Biso   1.000  O
  O105     1.0000 0.31480  0.40050  0.13220  Biso   1.000  O
  O106     1.0000 0.81480  0.90050  0.13220  Biso   1.000  O
  O107     1.0000 0.68520  0.40050  0.36780  Biso   1.000  O
  O108     1.0000 0.18520  0.90050  0.36780  Biso   1.000  O
  O109     1.0000 0.79840  0.56980  0.85380  Biso   1.000  O
  O110     1.0000 0.29840  0.06980  0.85380  Biso   1.000  O
  O111     1.0000 0.20160  0.56980  0.64620  Biso   1.000  O
  O112     1.0000 0.70160  0.06980  0.64620  Biso   1.000  O
  O113     1.0000 0.20160  0.43020  0.14620  Biso   1.000  O
  O114     1.0000 0.70160  0.93020  0.14620  Biso   1.000  O
  O115     1.0000 0.79840  0.43020  0.35380  Biso   1.000  O
  O116     1.0000 0.29840  0.93020  0.35380  Biso   1.000  O
  O117     1.0000 0.68550  0.55640  0.70620  Biso   1.000  O
  O118     1.0000 0.18550  0.05640  0.70620  Biso   1.000  O
  O119     1.0000 0.31450  0.55640  0.79380  Biso   1.000  O
  O120     1.0000 0.81450  0.05640  0.79380  Biso   1.000  O
  O121     1.0000 0.31450  0.44360  0.29380  Biso   1.000  O
  O122     1.0000 0.81450  0.94360  0.29380  Biso   1.000  O
  O123     1.0000 0.68550  0.44360  0.20620  Biso   1.000  O
  O124     1.0000 0.18550  0.94360  0.20620  Biso   1.000  O
  O125     1.0000 0.70780  0.57830  0.71590  Biso   1.000  O
  O126     1.0000 0.20780  0.07830  0.71590  Biso   1.000  O
  O127     1.0000 0.29220  0.57830  0.78410  Biso   1.000  O
  O128     1.0000 0.79220  0.07830  0.78410  Biso   1.000  O
  O129     1.0000 0.29220  0.42170  0.28410  Biso   1.000  O
  O130     1.0000 0.79220  0.92170  0.28410  Biso   1.000  O
  O131     1.0000 0.70780  0.42170  0.21590  Biso   1.000  O
  O132     1.0000 0.20780  0.92170  0.21590  Biso   1.000  O
  O133     1.0000 0.64080  0.55120  0.82000  Biso   1.000  O
  O134     1.0000 0.14080  0.05120  0.82000  Biso   1.000  O
  O135     1.0000 0.35920  0.55120  0.68000  Biso   1.000  O
  O136     1.0000 0.85920  0.05120  0.68000  Biso   1.000  O
  O137     1.0000 0.35920  0.44880  0.18000  Biso   1.000  O
  O138     1.0000 0.85920  0.94880  0.18000  Biso   1.000  O
  O139     1.0000 0.64080  0.44880  0.32000  Biso   1.000  O
  O140     1.0000 0.14080  0.94880  0.32000  Biso   1.000  O
  O141     1.0000 0.75480  0.60250  0.89760  Biso   1.000  O
  O142     1.0000 0.25480  0.10250  0.89760  Biso   1.000  O
  O143     1.0000 0.24520  0.60250  0.60240  Biso   1.000  O
  O144     1.0000 0.74520  0.10250  0.60240  Biso   1.000  O
  O145     1.0000 0.24520  0.39750  0.10240  Biso   1.000  O
  O146     1.0000 0.74520  0.89750  0.10240  Biso   1.000  O
  O147     1.0000 0.75480  0.39750  0.39760  Biso   1.000  O
  O148     1.0000 0.25480  0.89750  0.39760  Biso   1.000  O
  O149     1.0000 0.75510  0.50530  0.84600  Biso   1.000  O
  O150     1.0000 0.25510  0.00530  0.84600  Biso   1.000  O
  O151     1.0000 0.24490  0.50530  0.65400  Biso   1.000  O
  O152     1.0000 0.74490  0.00530  0.65400  Biso   1.000  O
  O153     1.0000 0.24490  0.49470  0.15400  Biso   1.000  O
  O154     1.0000 0.74490  0.99470  0.15400  Biso   1.000  O
  O155     1.0000 0.75510  0.49470  0.34600  Biso   1.000  O
  O156     1.0000 0.25510  0.99470  0.34600  Biso   1.000  O
