data_image0
_cell_length_a       3.777
_cell_length_b       14.819
_cell_length_c       10.756
_cell_angle_alpha    90
_cell_angle_beta     93.18
_cell_angle_gamma    90

_symmetry_space_group_name_H-M    "P 1"
_symmetry_int_tables_number       1

loop_
  _symmetry_equiv_pos_as_xyz
  'x, y, z'

loop_
  _atom_site_label
  _atom_site_occupancy
  _atom_site_fract_x
  _atom_site_fract_y
  _atom_site_fract_z
  _atom_site_thermal_displace_type
  _atom_site_B_iso_or_equiv
  _atom_site_type_symbol
  Cu1      1.0000 0.50000  0.50000  0.00000  Biso   1.000  Cu
  Cu2      1.0000 0.00000  0.00000  0.50000  Biso   1.000  Cu
  K1       1.0000 0.78646  0.36682  0.51380  Biso   1.000  K
  K2       1.0000 0.71354  0.86682  0.98620  Biso   1.000  K
  K3       1.0000 0.21354  0.63318  0.48620  Biso   1.000  K
  K4       1.0000 0.28646  0.13318  0.01380  Biso   1.000  K
  O1       1.0000 0.49760  0.46968  0.17505  Biso   1.000  O
  O2       1.0000 0.00240  0.96968  0.32495  Biso   1.000  O
  O3       1.0000 0.50240  0.53032  0.82495  Biso   1.000  O
  O4       1.0000 0.99760  0.03032  0.67505  Biso   1.000  O
  O5       1.0000 0.71300  0.52127  0.35835  Biso   1.000  O
  O6       1.0000 0.78700  0.02127  0.14165  Biso   1.000  O
  O7       1.0000 0.28700  0.47873  0.64165  Biso   1.000  O
  O8       1.0000 0.21300  0.97873  0.85835  Biso   1.000  O
  O9       1.0000 0.84020  0.59098  0.05378  Biso   1.000  O
  O10      1.0000 0.65980  0.09098  0.44622  Biso   1.000  O
  O11      1.0000 0.15980  0.40902  0.94622  Biso   1.000  O
  O12      1.0000 0.34020  0.90902  0.55378  Biso   1.000  O
  O13      1.0000 0.06180  0.65354  0.22959  Biso   1.000  O
  O14      1.0000 0.43820  0.15354  0.27041  Biso   1.000  O
  O15      1.0000 0.93820  0.34646  0.77041  Biso   1.000  O
  O16      1.0000 0.56180  0.84646  0.72959  Biso   1.000  O
  O17      1.0000 0.19290  0.32989  0.31660  Biso   1.000  O
  O18      1.0000 0.30710  0.82989  0.18340  Biso   1.000  O
  O19      1.0000 0.80710  0.67011  0.68340  Biso   1.000  O
  O20      1.0000 0.69290  0.17011  0.81660  Biso   1.000  O
  O21      1.0000 0.30180  0.23305  0.57350  Biso   1.000  O
  O22      1.0000 0.19820  0.73305  0.92650  Biso   1.000  O
  O23      1.0000 0.69820  0.76695  0.42650  Biso   1.000  O
  O24      1.0000 0.80180  0.26695  0.07350  Biso   1.000  O
  C1       1.0000 0.68230  0.52426  0.24450  Biso   1.000  C
  C2       1.0000 0.81770  0.02426  0.25550  Biso   1.000  C
  C3       1.0000 0.31770  0.47574  0.75550  Biso   1.000  C
  C4       1.0000 0.18230  0.97574  0.74450  Biso   1.000  C
  C5       1.0000 0.87920  0.59728  0.17250  Biso   1.000  C
  C6       1.0000 0.62080  0.09728  0.32750  Biso   1.000  C
  C7       1.0000 0.12080  0.40272  0.82750  Biso   1.000  C
  C8       1.0000 0.37920  0.90272  0.67250  Biso   1.000  C
  H1       1.0000 0.25500  0.37280  0.26700  Biso   1.000  H
  H2       1.0000 0.24500  0.87280  0.23300  Biso   1.000  H
  H3       1.0000 0.74500  0.62720  0.73300  Biso   1.000  H
  H4       1.0000 0.75500  0.12720  0.76700  Biso   1.000  H
  H5       1.0000 0.26600  0.27580  0.29300  Biso   1.000  H
  H6       1.0000 0.23400  0.77580  0.20700  Biso   1.000  H
  H7       1.0000 0.73400  0.72420  0.70700  Biso   1.000  H
  H8       1.0000 0.76600  0.22420  0.79300  Biso   1.000  H
  H9       1.0000 0.31500  0.21700  0.64950  Biso   1.000  H
  H10      1.0000 0.18500  0.71700  0.85050  Biso   1.000  H
  H11      1.0000 0.68500  0.78300  0.35050  Biso   1.000  H
  H12      1.0000 0.81500  0.28300  0.14950  Biso   1.000  H
  H13      1.0000 0.39400  0.20000  0.51890  Biso   1.000  H
  H14      1.0000 0.10600  0.70000  0.98110  Biso   1.000  H
  H15      1.0000 0.60600  0.80000  0.48110  Biso   1.000  H
  H16      1.0000 0.89400  0.30000  0.01890  Biso   1.000  H
