data_image0
_cell_length_a       13.284
_cell_length_b       14.864
_cell_length_c       27.458
_cell_angle_alpha    90
_cell_angle_beta     90
_cell_angle_gamma    90

_symmetry_space_group_name_H-M    "P 1"
_symmetry_int_tables_number       1

loop_
  _symmetry_equiv_pos_as_xyz
  'x, y, z'

loop_
  _atom_site_label
  _atom_site_occupancy
  _atom_site_fract_x
  _atom_site_fract_y
  _atom_site_fract_z
  _atom_site_thermal_displace_type
  _atom_site_B_iso_or_equiv
  _atom_site_type_symbol
  Cu1      1.0000 0.21830  0.31780  0.36170  Biso   1.000  Cu
  Cu2      1.0000 0.28170  0.68220  0.86170  Biso   1.000  Cu
  Cu3      1.0000 0.71830  0.18220  0.63830  Biso   1.000  Cu
  Cu4      1.0000 0.78170  0.81780  0.13830  Biso   1.000  Cu
  Cu5      1.0000 0.78170  0.68220  0.63830  Biso   1.000  Cu
  Cu6      1.0000 0.71830  0.31780  0.13830  Biso   1.000  Cu
  Cu7      1.0000 0.28170  0.81780  0.36170  Biso   1.000  Cu
  Cu8      1.0000 0.21830  0.18220  0.86170  Biso   1.000  Cu
  Cl1      1.0000 0.23800  0.23450  0.49510  Biso   1.000  Cl
  Cl2      1.0000 0.26200  0.76550  0.99510  Biso   1.000  Cl
  Cl3      1.0000 0.73800  0.26550  0.50490  Biso   1.000  Cl
  Cl4      1.0000 0.76200  0.73450  0.00490  Biso   1.000  Cl
  Cl5      1.0000 0.76200  0.76550  0.50490  Biso   1.000  Cl
  Cl6      1.0000 0.73800  0.23450  0.00490  Biso   1.000  Cl
  Cl7      1.0000 0.26200  0.73450  0.49510  Biso   1.000  Cl
  Cl8      1.0000 0.23800  0.26550  0.99510  Biso   1.000  Cl
  Cl9      1.0000 0.12920  0.87850  0.21120  Biso   1.000  Cl
  Cl10     1.0000 0.37080  0.12150  0.71120  Biso   1.000  Cl
  Cl11     1.0000 0.62920  0.62150  0.78880  Biso   1.000  Cl
  Cl12     1.0000 0.87080  0.37850  0.28880  Biso   1.000  Cl
  Cl13     1.0000 0.87080  0.12150  0.78880  Biso   1.000  Cl
  Cl14     1.0000 0.62920  0.87850  0.28880  Biso   1.000  Cl
  Cl15     1.0000 0.37080  0.37850  0.21120  Biso   1.000  Cl
  Cl16     1.0000 0.12920  0.62150  0.71120  Biso   1.000  Cl
  O1       1.0000 0.32900  0.40240  0.36290  Biso   1.000  O
  O2       1.0000 0.17100  0.59760  0.86290  Biso   1.000  O
  O3       1.0000 0.82900  0.09760  0.63710  Biso   1.000  O
  O4       1.0000 0.67100  0.90240  0.13710  Biso   1.000  O
  O5       1.0000 0.67100  0.59760  0.63710  Biso   1.000  O
  O6       1.0000 0.82900  0.40240  0.13710  Biso   1.000  O
  O7       1.0000 0.17100  0.90240  0.36290  Biso   1.000  O
  O8       1.0000 0.32900  0.09760  0.86290  Biso   1.000  O
  O9       1.0000 0.12400  0.22170  0.36910  Biso   1.000  O
  O10      1.0000 0.37600  0.77830  0.86910  Biso   1.000  O
  O11      1.0000 0.62400  0.27830  0.63090  Biso   1.000  O
  O12      1.0000 0.87600  0.72170  0.13090  Biso   1.000  O
  O13      1.0000 0.87600  0.77830  0.63090  Biso   1.000  O
  O14      1.0000 0.62400  0.22170  0.13090  Biso   1.000  O
  O15      1.0000 0.37600  0.72170  0.36910  Biso   1.000  O
  O16      1.0000 0.12400  0.27830  0.86910  Biso   1.000  O
  O17      1.0000 0.29630  0.21000  0.53700  Biso   1.000  O
  O18      1.0000 0.20370  0.79000  0.03700  Biso   1.000  O
  O19      1.0000 0.79630  0.29000  0.46300  Biso   1.000  O
  O20      1.0000 0.70370  0.71000  0.96300  Biso   1.000  O
  O21      1.0000 0.70370  0.79000  0.46300  Biso   1.000  O
  O22      1.0000 0.79630  0.21000  0.96300  Biso   1.000  O
  O23      1.0000 0.20370  0.71000  0.53700  Biso   1.000  O
  O24      1.0000 0.29630  0.29000  0.03700  Biso   1.000  O
  O25      1.0000 0.16650  0.29500  0.51110  Biso   1.000  O
  O26      1.0000 0.33350  0.70500  0.01110  Biso   1.000  O
  O27      1.0000 0.66650  0.20500  0.48890  Biso   1.000  O
  O28      1.0000 0.83350  0.79500  0.98890  Biso   1.000  O
  O29      1.0000 0.83350  0.70500  0.48890  Biso   1.000  O
  O30      1.0000 0.66650  0.29500  0.98890  Biso   1.000  O
  O31      1.0000 0.33350  0.79500  0.51110  Biso   1.000  O
  O32      1.0000 0.16650  0.20500  0.01110  Biso   1.000  O
  O33      1.0000 0.29730  0.27470  0.45990  Biso   1.000  O
  O34      1.0000 0.20270  0.72530  0.95990  Biso   1.000  O
  O35      1.0000 0.79730  0.22530  0.54010  Biso   1.000  O
  O36      1.0000 0.70270  0.77470  0.04010  Biso   1.000  O
  O37      1.0000 0.70270  0.72530  0.54010  Biso   1.000  O
  O38      1.0000 0.79730  0.27470  0.04010  Biso   1.000  O
  O39      1.0000 0.20270  0.77470  0.45990  Biso   1.000  O
  O40      1.0000 0.29730  0.22530  0.95990  Biso   1.000  O
  O41      1.0000 0.19190  0.15750  0.47560  Biso   1.000  O
  O42      1.0000 0.30810  0.84250  0.97560  Biso   1.000  O
  O43      1.0000 0.69190  0.34250  0.52440  Biso   1.000  O
  O44      1.0000 0.80810  0.65750  0.02440  Biso   1.000  O
  O45      1.0000 0.80810  0.84250  0.52440  Biso   1.000  O
  O46      1.0000 0.69190  0.15750  0.02440  Biso   1.000  O
  O47      1.0000 0.30810  0.65750  0.47560  Biso   1.000  O
  O48      1.0000 0.19190  0.34250  0.97560  Biso   1.000  O
  O49      1.0000 0.21930  0.82750  0.21060  Biso   1.000  O
  O50      1.0000 0.28070  0.17250  0.71060  Biso   1.000  O
  O51      1.0000 0.71930  0.67250  0.78940  Biso   1.000  O
  O52      1.0000 0.78070  0.32750  0.28940  Biso   1.000  O
  O53      1.0000 0.78070  0.17250  0.78940  Biso   1.000  O
  O54      1.0000 0.71930  0.82750  0.28940  Biso   1.000  O
  O55      1.0000 0.28070  0.32750  0.21060  Biso   1.000  O
  O56      1.0000 0.21930  0.67250  0.71060  Biso   1.000  O
  O57      1.0000 0.14110  0.94830  0.24270  Biso   1.000  O
  O58      1.0000 0.35890  0.05170  0.74270  Biso   1.000  O
  O59      1.0000 0.64110  0.55170  0.75730  Biso   1.000  O
  O60      1.0000 0.85890  0.44830  0.25730  Biso   1.000  O
  O61      1.0000 0.85890  0.05170  0.75730  Biso   1.000  O
  O62      1.0000 0.64110  0.94830  0.25730  Biso   1.000  O
  O63      1.0000 0.35890  0.44830  0.24270  Biso   1.000  O
  O64      1.0000 0.14110  0.55170  0.74270  Biso   1.000  O
  O65      1.0000 0.05320  0.82460  0.22660  Biso   1.000  O
  O66      1.0000 0.44680  0.17540  0.72660  Biso   1.000  O
  O67      1.0000 0.55320  0.67540  0.77340  Biso   1.000  O
  O68      1.0000 0.94680  0.32460  0.27340  Biso   1.000  O
  O69      1.0000 0.94680  0.17540  0.77340  Biso   1.000  O
  O70      1.0000 0.55320  0.82460  0.27340  Biso   1.000  O
  O71      1.0000 0.44680  0.32460  0.22660  Biso   1.000  O
  O72      1.0000 0.05320  0.67540  0.72660  Biso   1.000  O
  O73      1.0000 0.10540  0.90970  0.16700  Biso   1.000  O
  O74      1.0000 0.39460  0.09030  0.66700  Biso   1.000  O
  O75      1.0000 0.60540  0.59030  0.83300  Biso   1.000  O
  O76      1.0000 0.89460  0.40970  0.33300  Biso   1.000  O
  O77      1.0000 0.89460  0.09030  0.83300  Biso   1.000  O
  O78      1.0000 0.60540  0.90970  0.33300  Biso   1.000  O
  O79      1.0000 0.39460  0.40970  0.16700  Biso   1.000  O
  O80      1.0000 0.10540  0.59030  0.66700  Biso   1.000  O
  N1       1.0000 0.04150  0.80450  0.35590  Biso   1.000  N
  N2       1.0000 0.45850  0.19550  0.85590  Biso   1.000  N
  N3       1.0000 0.54150  0.69550  0.64410  Biso   1.000  N
  N4       1.0000 0.95850  0.30450  0.14410  Biso   1.000  N
  N5       1.0000 0.95850  0.19550  0.64410  Biso   1.000  N
  N6       1.0000 0.54150  0.80450  0.14410  Biso   1.000  N
  N7       1.0000 0.45850  0.30450  0.35590  Biso   1.000  N
  N8       1.0000 0.04150  0.69550  0.85590  Biso   1.000  N
  N9       1.0000 0.31130  0.23040  0.32950  Biso   1.000  N
  N10      1.0000 0.18870  0.76960  0.82950  Biso   1.000  N
  N11      1.0000 0.81130  0.26960  0.67050  Biso   1.000  N
  N12      1.0000 0.68870  0.73040  0.17050  Biso   1.000  N
  N13      1.0000 0.68870  0.76960  0.67050  Biso   1.000  N
  N14      1.0000 0.81130  0.23040  0.17050  Biso   1.000  N
  N15      1.0000 0.18870  0.73040  0.32950  Biso   1.000  N
  N16      1.0000 0.31130  0.26960  0.82950  Biso   1.000  N
  N17      1.0000 0.00490  0.28640  0.41590  Biso   1.000  N
  N18      1.0000 0.49510  0.71360  0.91590  Biso   1.000  N
  N19      1.0000 0.50490  0.21360  0.58410  Biso   1.000  N
  N20      1.0000 0.99510  0.78640  0.08410  Biso   1.000  N
  N21      1.0000 0.99510  0.71360  0.58410  Biso   1.000  N
  N22      1.0000 0.50490  0.28640  0.08410  Biso   1.000  N
  N23      1.0000 0.49510  0.78640  0.41590  Biso   1.000  N
  N24      1.0000 0.00490  0.21360  0.91590  Biso   1.000  N
  N25      1.0000 0.12540  0.40040  0.39860  Biso   1.000  N
  N26      1.0000 0.37460  0.59960  0.89860  Biso   1.000  N
  N27      1.0000 0.62540  0.09960  0.60140  Biso   1.000  N
  N28      1.0000 0.87460  0.90040  0.10140  Biso   1.000  N
  N29      1.0000 0.87460  0.59960  0.60140  Biso   1.000  N
  N30      1.0000 0.62540  0.40040  0.10140  Biso   1.000  N
  N31      1.0000 0.37460  0.90040  0.39860  Biso   1.000  N
  N32      1.0000 0.12540  0.09960  0.89860  Biso   1.000  N
  C1       1.0000 0.00630  0.96030  0.37860  Biso   1.000  C
  C2       1.0000 0.49370  0.03970  0.87860  Biso   1.000  C
  C3       1.0000 0.50630  0.53970  0.62140  Biso   1.000  C
  C4       1.0000 0.99370  0.46030  0.12140  Biso   1.000  C
  C5       1.0000 0.99370  0.03970  0.62140  Biso   1.000  C
  C6       1.0000 0.50630  0.96030  0.12140  Biso   1.000  C
  C7       1.0000 0.49370  0.46030  0.37860  Biso   1.000  C
  C8       1.0000 0.00630  0.53970  0.87860  Biso   1.000  C
  C9       1.0000 0.06290  0.05170  0.37960  Biso   1.000  C
  C10      1.0000 0.43710  0.94830  0.87960  Biso   1.000  C
  C11      1.0000 0.56290  0.44830  0.62040  Biso   1.000  C
  C12      1.0000 0.93710  0.55170  0.12040  Biso   1.000  C
  C13      1.0000 0.93710  0.94830  0.62040  Biso   1.000  C
  C14      1.0000 0.56290  0.05170  0.12040  Biso   1.000  C
  C15      1.0000 0.43710  0.55170  0.37960  Biso   1.000  C
  C16      1.0000 0.06290  0.44830  0.87960  Biso   1.000  C
  C17      1.0000 0.98890  0.12660  0.39450  Biso   1.000  C
  C18      1.0000 0.51110  0.87340  0.89450  Biso   1.000  C
  C19      1.0000 0.48890  0.37340  0.60550  Biso   1.000  C
  C20      1.0000 0.01110  0.62660  0.10550  Biso   1.000  C
  C21      1.0000 0.01110  0.87340  0.60550  Biso   1.000  C
  C22      1.0000 0.48890  0.12660  0.10550  Biso   1.000  C
  C23      1.0000 0.51110  0.62660  0.39450  Biso   1.000  C
  C24      1.0000 0.98890  0.37340  0.89450  Biso   1.000  C
  C25      1.0000 0.90170  0.13320  0.35740  Biso   1.000  C
  C26      1.0000 0.59830  0.86680  0.85740  Biso   1.000  C
  C27      1.0000 0.40170  0.36680  0.64260  Biso   1.000  C
  C28      1.0000 0.09830  0.63320  0.14260  Biso   1.000  C
  C29      1.0000 0.09830  0.86680  0.64260  Biso   1.000  C
  C30      1.0000 0.40170  0.13320  0.14260  Biso   1.000  C
  C31      1.0000 0.59830  0.63320  0.35740  Biso   1.000  C
  C32      1.0000 0.90170  0.36680  0.85740  Biso   1.000  C
  C33      1.0000 0.84580  0.04210  0.35720  Biso   1.000  C
  C34      1.0000 0.65420  0.95790  0.85720  Biso   1.000  C
  C35      1.0000 0.34580  0.45790  0.64280  Biso   1.000  C
  C36      1.0000 0.15420  0.54210  0.14280  Biso   1.000  C
  C37      1.0000 0.15420  0.95790  0.64280  Biso   1.000  C
  C38      1.0000 0.34580  0.04210  0.14280  Biso   1.000  C
  C39      1.0000 0.65420  0.54210  0.35720  Biso   1.000  C
  C40      1.0000 0.84580  0.45790  0.85720  Biso   1.000  C
  C41      1.0000 0.80610  0.01900  0.40730  Biso   1.000  C
  C42      1.0000 0.69390  0.98100  0.90730  Biso   1.000  C
  C43      1.0000 0.30610  0.48100  0.59270  Biso   1.000  C
  C44      1.0000 0.19390  0.51900  0.09270  Biso   1.000  C
  C45      1.0000 0.19390  0.98100  0.59270  Biso   1.000  C
  C46      1.0000 0.30610  0.01900  0.09270  Biso   1.000  C
  C47      1.0000 0.69390  0.51900  0.40730  Biso   1.000  C
  C48      1.0000 0.80610  0.48100  0.90730  Biso   1.000  C
  C49      1.0000 0.89050  0.01590  0.44380  Biso   1.000  C
  C50      1.0000 0.60950  0.98410  0.94380  Biso   1.000  C
  C51      1.0000 0.39050  0.48410  0.55620  Biso   1.000  C
  C52      1.0000 0.10950  0.51590  0.05620  Biso   1.000  C
  C53      1.0000 0.10950  0.98410  0.55620  Biso   1.000  C
  C54      1.0000 0.39050  0.01590  0.05620  Biso   1.000  C
  C55      1.0000 0.60950  0.51590  0.44380  Biso   1.000  C
  C56      1.0000 0.89050  0.48410  0.94380  Biso   1.000  C
  C57      1.0000 0.96250  0.94070  0.42880  Biso   1.000  C
  C58      1.0000 0.53750  0.05930  0.92880  Biso   1.000  C
  C59      1.0000 0.46250  0.55930  0.57120  Biso   1.000  C
  C60      1.0000 0.03750  0.44070  0.07120  Biso   1.000  C
  C61      1.0000 0.03750  0.05930  0.57120  Biso   1.000  C
  C62      1.0000 0.46250  0.94070  0.07120  Biso   1.000  C
  C63      1.0000 0.53750  0.44070  0.42880  Biso   1.000  C
  C64      1.0000 0.96250  0.55930  0.92880  Biso   1.000  C
  C65      1.0000 0.91920  0.96770  0.34100  Biso   1.000  C
  C66      1.0000 0.58080  0.03230  0.84100  Biso   1.000  C
  C67      1.0000 0.41920  0.53230  0.65900  Biso   1.000  C
  C68      1.0000 0.08080  0.46770  0.15900  Biso   1.000  C
  C69      1.0000 0.08080  0.03230  0.65900  Biso   1.000  C
  C70      1.0000 0.41920  0.96770  0.15900  Biso   1.000  C
  C71      1.0000 0.58080  0.46770  0.34100  Biso   1.000  C
  C72      1.0000 0.91920  0.53230  0.84100  Biso   1.000  C
  C73      1.0000 0.94690  0.10620  0.44560  Biso   1.000  C
  C74      1.0000 0.55310  0.89380  0.94560  Biso   1.000  C
  C75      1.0000 0.44690  0.39380  0.55440  Biso   1.000  C
  C76      1.0000 0.05310  0.60620  0.05440  Biso   1.000  C
  C77      1.0000 0.05310  0.89380  0.55440  Biso   1.000  C
  C78      1.0000 0.44690  0.10620  0.05440  Biso   1.000  C
  C79      1.0000 0.55310  0.60620  0.44560  Biso   1.000  C
  C80      1.0000 0.94690  0.39380  0.94560  Biso   1.000  C
  C81      1.0000 0.07970  0.88610  0.36540  Biso   1.000  C
  C82      1.0000 0.42030  0.11390  0.86540  Biso   1.000  C
  C83      1.0000 0.57970  0.61390  0.63460  Biso   1.000  C
  C84      1.0000 0.92030  0.38610  0.13460  Biso   1.000  C
  C85      1.0000 0.92030  0.11390  0.63460  Biso   1.000  C
  C86      1.0000 0.57970  0.88610  0.13460  Biso   1.000  C
  C87      1.0000 0.42030  0.38610  0.36540  Biso   1.000  C
  C88      1.0000 0.07970  0.61390  0.86540  Biso   1.000  C
  C89      1.0000 0.08780  0.73310  0.33370  Biso   1.000  C
  C90      1.0000 0.41220  0.26690  0.83370  Biso   1.000  C
  C91      1.0000 0.58780  0.76690  0.66630  Biso   1.000  C
  C92      1.0000 0.91220  0.23310  0.16630  Biso   1.000  C
  C93      1.0000 0.91220  0.26690  0.66630  Biso   1.000  C
  C94      1.0000 0.58780  0.73310  0.16630  Biso   1.000  C
  C95      1.0000 0.41220  0.23310  0.33370  Biso   1.000  C
  C96      1.0000 0.08780  0.76690  0.83370  Biso   1.000  C
  C97      1.0000 0.02700  0.66350  0.31510  Biso   1.000  C
  C98      1.0000 0.47300  0.33650  0.81510  Biso   1.000  C
  C99      1.0000 0.52700  0.83650  0.68490  Biso   1.000  C
  C100     1.0000 0.97300  0.16350  0.18490  Biso   1.000  C
  C101     1.0000 0.97300  0.33650  0.68490  Biso   1.000  C
  C102     1.0000 0.52700  0.66350  0.18490  Biso   1.000  C
  C103     1.0000 0.47300  0.16350  0.31510  Biso   1.000  C
  C104     1.0000 0.02700  0.83650  0.81510  Biso   1.000  C
  C105     1.0000 0.07130  0.59470  0.29120  Biso   1.000  C
  C106     1.0000 0.42870  0.40530  0.79120  Biso   1.000  C
  C107     1.0000 0.57130  0.90530  0.70880  Biso   1.000  C
  C108     1.0000 0.92870  0.09470  0.20880  Biso   1.000  C
  C109     1.0000 0.92870  0.40530  0.70880  Biso   1.000  C
  C110     1.0000 0.57130  0.59470  0.20880  Biso   1.000  C
  C111     1.0000 0.42870  0.09470  0.29120  Biso   1.000  C
  C112     1.0000 0.07130  0.90530  0.79120  Biso   1.000  C
  C113     1.0000 0.17260  0.59390  0.28320  Biso   1.000  C
  C114     1.0000 0.32740  0.40610  0.78320  Biso   1.000  C
  C115     1.0000 0.67260  0.90610  0.71680  Biso   1.000  C
  C116     1.0000 0.82740  0.09390  0.21680  Biso   1.000  C
  C117     1.0000 0.82740  0.40610  0.71680  Biso   1.000  C
  C118     1.0000 0.67260  0.59390  0.21680  Biso   1.000  C
  C119     1.0000 0.32740  0.09390  0.28320  Biso   1.000  C
  C120     1.0000 0.17260  0.90610  0.78320  Biso   1.000  C
  C121     1.0000 0.22910  0.66270  0.30240  Biso   1.000  C
  C122     1.0000 0.27090  0.33730  0.80240  Biso   1.000  C
  C123     1.0000 0.72910  0.83730  0.69760  Biso   1.000  C
  C124     1.0000 0.77090  0.16270  0.19760  Biso   1.000  C
  C125     1.0000 0.77090  0.33730  0.69760  Biso   1.000  C
  C126     1.0000 0.72910  0.66270  0.19760  Biso   1.000  C
  C127     1.0000 0.27090  0.16270  0.30240  Biso   1.000  C
  C128     1.0000 0.22910  0.83730  0.80240  Biso   1.000  C
  C129     1.0000 0.04510  0.21540  0.39280  Biso   1.000  C
  C130     1.0000 0.45490  0.78460  0.89280  Biso   1.000  C
  C131     1.0000 0.54510  0.28460  0.60720  Biso   1.000  C
  C132     1.0000 0.95490  0.71540  0.10720  Biso   1.000  C
  C133     1.0000 0.95490  0.78460  0.60720  Biso   1.000  C
  C134     1.0000 0.54510  0.21540  0.10720  Biso   1.000  C
  C135     1.0000 0.45490  0.71540  0.39280  Biso   1.000  C
  C136     1.0000 0.04510  0.28460  0.89280  Biso   1.000  C
  C137     1.0000 0.03560  0.37730  0.41670  Biso   1.000  C
  C138     1.0000 0.46440  0.62270  0.91670  Biso   1.000  C
  C139     1.0000 0.53560  0.12270  0.58330  Biso   1.000  C
  C140     1.0000 0.96440  0.87730  0.08330  Biso   1.000  C
  C141     1.0000 0.96440  0.62270  0.58330  Biso   1.000  C
  C142     1.0000 0.53560  0.37730  0.08330  Biso   1.000  C
  C143     1.0000 0.46440  0.87730  0.41670  Biso   1.000  C
  C144     1.0000 0.03560  0.12270  0.91670  Biso   1.000  C
  C145     1.0000 0.97100  0.43710  0.43820  Biso   1.000  C
  C146     1.0000 0.52900  0.56290  0.93820  Biso   1.000  C
  C147     1.0000 0.47100  0.06290  0.56180  Biso   1.000  C
  C148     1.0000 0.02900  0.93710  0.06180  Biso   1.000  C
  C149     1.0000 0.02900  0.56290  0.56180  Biso   1.000  C
  C150     1.0000 0.47100  0.43710  0.06180  Biso   1.000  C
  C151     1.0000 0.52900  0.93710  0.43820  Biso   1.000  C
  C152     1.0000 0.97100  0.06290  0.93820  Biso   1.000  C
  C153     1.0000 0.99850  0.52750  0.43980  Biso   1.000  C
  C154     1.0000 0.50150  0.47250  0.93980  Biso   1.000  C
  C155     1.0000 0.49850  0.97250  0.56020  Biso   1.000  C
  C156     1.0000 0.00150  0.02750  0.06020  Biso   1.000  C
  C157     1.0000 0.00150  0.47250  0.56020  Biso   1.000  C
  C158     1.0000 0.49850  0.52750  0.06020  Biso   1.000  C
  C159     1.0000 0.50150  0.02750  0.43980  Biso   1.000  C
  C160     1.0000 0.99850  0.97250  0.93980  Biso   1.000  C
  C161     1.0000 0.09280  0.55030  0.42270  Biso   1.000  C
  C162     1.0000 0.40720  0.44970  0.92270  Biso   1.000  C
  C163     1.0000 0.59280  0.94970  0.57730  Biso   1.000  C
  C164     1.0000 0.90720  0.05030  0.07730  Biso   1.000  C
  C165     1.0000 0.90720  0.44970  0.57730  Biso   1.000  C
  C166     1.0000 0.59280  0.55030  0.07730  Biso   1.000  C
  C167     1.0000 0.40720  0.05030  0.42270  Biso   1.000  C
  C168     1.0000 0.09280  0.94970  0.92270  Biso   1.000  C
  C169     1.0000 0.15240  0.48710  0.40290  Biso   1.000  C
  C170     1.0000 0.34760  0.51290  0.90290  Biso   1.000  C
  C171     1.0000 0.65240  0.01290  0.59710  Biso   1.000  C
  C172     1.0000 0.84760  0.98710  0.09710  Biso   1.000  C
  C173     1.0000 0.84760  0.51290  0.59710  Biso   1.000  C
  C174     1.0000 0.65240  0.48710  0.09710  Biso   1.000  C
  C175     1.0000 0.34760  0.98710  0.40290  Biso   1.000  C
  C176     1.0000 0.15240  0.01290  0.90290  Biso   1.000  C
  O81      1.0000 0.66680  0.25120  0.37190  Biso   1.000  O
  O82      1.0000 0.83320  0.74880  0.87190  Biso   1.000  O
  O83      1.0000 0.16680  0.24880  0.62810  Biso   1.000  O
  O84      1.0000 0.33320  0.75120  0.12810  Biso   1.000  O
  O85      1.0000 0.33320  0.74880  0.62810  Biso   1.000  O
  O86      1.0000 0.16680  0.25120  0.12810  Biso   1.000  O
  O87      1.0000 0.83320  0.75120  0.37190  Biso   1.000  O
  O88      1.0000 0.66680  0.24880  0.87190  Biso   1.000  O
  O89      1.0000 0.15030  0.36250  0.28980  Biso   1.000  O
  O90      1.0000 0.34970  0.63750  0.78980  Biso   1.000  O
  O91      1.0000 0.65030  0.13750  0.71020  Biso   1.000  O
  O92      1.0000 0.84970  0.86250  0.21020  Biso   1.000  O
  O93      1.0000 0.84970  0.63750  0.71020  Biso   1.000  O
  O94      1.0000 0.65030  0.36250  0.21020  Biso   1.000  O
  O95      1.0000 0.34970  0.86250  0.28980  Biso   1.000  O
  O96      1.0000 0.15030  0.13750  0.78980  Biso   1.000  O
  H1       1.0000 0.97760  0.79550  0.36570  Biso   1.000  H
  H2       1.0000 0.52240  0.20450  0.86570  Biso   1.000  H
  H3       1.0000 0.47760  0.70450  0.63430  Biso   1.000  H
  H4       1.0000 0.02240  0.29550  0.13430  Biso   1.000  H
  H5       1.0000 0.02240  0.20450  0.63430  Biso   1.000  H
  H6       1.0000 0.47760  0.79550  0.13430  Biso   1.000  H
  H7       1.0000 0.52240  0.29550  0.36570  Biso   1.000  H
  H8       1.0000 0.97760  0.70450  0.86570  Biso   1.000  H
  H9       1.0000 0.95050  0.27350  0.43410  Biso   1.000  H
  H10      1.0000 0.54950  0.72650  0.93410  Biso   1.000  H
  H11      1.0000 0.45050  0.22650  0.56590  Biso   1.000  H
  H12      1.0000 0.04950  0.77350  0.06590  Biso   1.000  H
  H13      1.0000 0.04950  0.72650  0.56590  Biso   1.000  H
  H14      1.0000 0.45050  0.27350  0.06590  Biso   1.000  H
  H15      1.0000 0.54950  0.77350  0.43410  Biso   1.000  H
  H16      1.0000 0.95050  0.22650  0.93410  Biso   1.000  H
  H17      1.0000 0.11710  0.04860  0.40260  Biso   1.000  H
  H18      1.0000 0.38290  0.95140  0.90260  Biso   1.000  H
  H19      1.0000 0.61710  0.45140  0.59740  Biso   1.000  H
  H20      1.0000 0.88290  0.54860  0.09740  Biso   1.000  H
  H21      1.0000 0.88290  0.95140  0.59740  Biso   1.000  H
  H22      1.0000 0.61710  0.04860  0.09740  Biso   1.000  H
  H23      1.0000 0.38290  0.54860  0.40260  Biso   1.000  H
  H24      1.0000 0.11710  0.45140  0.90260  Biso   1.000  H
  H25      1.0000 0.09060  0.06470  0.34800  Biso   1.000  H
  H26      1.0000 0.40940  0.93530  0.84800  Biso   1.000  H
  H27      1.0000 0.59060  0.43530  0.65200  Biso   1.000  H
  H28      1.0000 0.90940  0.56470  0.15200  Biso   1.000  H
  H29      1.0000 0.90940  0.93530  0.65200  Biso   1.000  H
  H30      1.0000 0.59060  0.06470  0.15200  Biso   1.000  H
  H31      1.0000 0.40940  0.56470  0.34800  Biso   1.000  H
  H32      1.0000 0.09060  0.43530  0.84800  Biso   1.000  H
  H33      1.0000 0.85610  0.18030  0.36670  Biso   1.000  H
  H34      1.0000 0.64390  0.81970  0.86670  Biso   1.000  H
  H35      1.0000 0.35610  0.31970  0.63330  Biso   1.000  H
  H36      1.0000 0.14390  0.68030  0.13330  Biso   1.000  H
  H37      1.0000 0.14390  0.81970  0.63330  Biso   1.000  H
  H38      1.0000 0.35610  0.18030  0.13330  Biso   1.000  H
  H39      1.0000 0.64390  0.68030  0.36670  Biso   1.000  H
  H40      1.0000 0.85610  0.31970  0.86670  Biso   1.000  H
  H41      1.0000 0.92760  0.14620  0.32550  Biso   1.000  H
  H42      1.0000 0.57240  0.85380  0.82550  Biso   1.000  H
  H43      1.0000 0.42760  0.35380  0.67450  Biso   1.000  H
  H44      1.0000 0.07240  0.64620  0.17450  Biso   1.000  H
  H45      1.0000 0.07240  0.85380  0.67450  Biso   1.000  H
  H46      1.0000 0.42760  0.14620  0.17450  Biso   1.000  H
  H47      1.0000 0.57240  0.64620  0.32550  Biso   1.000  H
  H48      1.0000 0.92760  0.35380  0.82550  Biso   1.000  H
  H49      1.0000 0.79090  0.04420  0.33450  Biso   1.000  H
  H50      1.0000 0.70910  0.95580  0.83450  Biso   1.000  H
  H51      1.0000 0.29090  0.45580  0.66550  Biso   1.000  H
  H52      1.0000 0.20910  0.54420  0.16550  Biso   1.000  H
  H53      1.0000 0.20910  0.95580  0.66550  Biso   1.000  H
  H54      1.0000 0.29090  0.04420  0.16550  Biso   1.000  H
  H55      1.0000 0.70910  0.54420  0.33450  Biso   1.000  H
  H56      1.0000 0.79090  0.45580  0.83450  Biso   1.000  H
  H57      1.0000 0.75900  0.06450  0.41700  Biso   1.000  H
  H58      1.0000 0.74100  0.93550  0.91700  Biso   1.000  H
  H59      1.0000 0.25900  0.43550  0.58300  Biso   1.000  H
  H60      1.0000 0.24100  0.56450  0.08300  Biso   1.000  H
  H61      1.0000 0.24100  0.93550  0.58300  Biso   1.000  H
  H62      1.0000 0.25900  0.06450  0.08300  Biso   1.000  H
  H63      1.0000 0.74100  0.56450  0.41700  Biso   1.000  H
  H64      1.0000 0.75900  0.43550  0.91700  Biso   1.000  H
  H65      1.0000 0.77160  0.96220  0.40670  Biso   1.000  H
  H66      1.0000 0.72840  0.03780  0.90670  Biso   1.000  H
  H67      1.0000 0.27160  0.53780  0.59330  Biso   1.000  H
  H68      1.0000 0.22840  0.46220  0.09330  Biso   1.000  H
  H69      1.0000 0.22840  0.03780  0.59330  Biso   1.000  H
  H70      1.0000 0.27160  0.96220  0.09330  Biso   1.000  H
  H71      1.0000 0.72840  0.46220  0.40670  Biso   1.000  H
  H72      1.0000 0.77160  0.53780  0.90670  Biso   1.000  H
  H73      1.0000 0.86430  0.00340  0.47570  Biso   1.000  H
  H74      1.0000 0.63570  0.99660  0.97570  Biso   1.000  H
  H75      1.0000 0.36430  0.49660  0.52430  Biso   1.000  H
  H76      1.0000 0.13570  0.50340  0.02430  Biso   1.000  H
  H77      1.0000 0.13570  0.99660  0.52430  Biso   1.000  H
  H78      1.0000 0.36430  0.00340  0.02430  Biso   1.000  H
  H79      1.0000 0.63570  0.50340  0.47570  Biso   1.000  H
  H80      1.0000 0.86430  0.49660  0.97570  Biso   1.000  H
  H81      1.0000 0.92690  0.88460  0.42820  Biso   1.000  H
  H82      1.0000 0.57310  0.11540  0.92820  Biso   1.000  H
  H83      1.0000 0.42690  0.61540  0.57180  Biso   1.000  H
  H84      1.0000 0.07310  0.38460  0.07180  Biso   1.000  H
  H85      1.0000 0.07310  0.11540  0.57180  Biso   1.000  H
  H86      1.0000 0.42690  0.88460  0.07180  Biso   1.000  H
  H87      1.0000 0.57310  0.38460  0.42820  Biso   1.000  H
  H88      1.0000 0.92690  0.61540  0.92820  Biso   1.000  H
  H89      1.0000 0.01660  0.93580  0.45180  Biso   1.000  H
  H90      1.0000 0.48340  0.06420  0.95180  Biso   1.000  H
  H91      1.0000 0.51660  0.56420  0.54820  Biso   1.000  H
  H92      1.0000 0.98340  0.43580  0.04820  Biso   1.000  H
  H93      1.0000 0.98340  0.06420  0.54820  Biso   1.000  H
  H94      1.0000 0.51660  0.93580  0.04820  Biso   1.000  H
  H95      1.0000 0.48340  0.43580  0.45180  Biso   1.000  H
  H96      1.0000 0.01660  0.56420  0.95180  Biso   1.000  H
  H97      1.0000 0.94640  0.98160  0.30950  Biso   1.000  H
  H98      1.0000 0.55360  0.01840  0.80950  Biso   1.000  H
  H99      1.0000 0.44640  0.51840  0.69050  Biso   1.000  H
  H100     1.0000 0.05360  0.48160  0.19050  Biso   1.000  H
  H101     1.0000 0.05360  0.01840  0.69050  Biso   1.000  H
  H102     1.0000 0.44640  0.98160  0.19050  Biso   1.000  H
  H103     1.0000 0.55360  0.48160  0.30950  Biso   1.000  H
  H104     1.0000 0.94640  0.51840  0.80950  Biso   1.000  H
  H105     1.0000 0.88440  0.91120  0.33890  Biso   1.000  H
  H106     1.0000 0.61560  0.08880  0.83890  Biso   1.000  H
  H107     1.0000 0.38440  0.58880  0.66110  Biso   1.000  H
  H108     1.0000 0.11560  0.41120  0.16110  Biso   1.000  H
  H109     1.0000 0.11560  0.08880  0.66110  Biso   1.000  H
  H110     1.0000 0.38440  0.91120  0.16110  Biso   1.000  H
  H111     1.0000 0.61560  0.41120  0.33890  Biso   1.000  H
  H112     1.0000 0.88440  0.58880  0.83890  Biso   1.000  H
  H113     1.0000 0.00000  0.10520  0.46930  Biso   1.000  H
  H114     1.0000 0.50000  0.89480  0.96930  Biso   1.000  H
  H115     1.0000 0.50000  0.39480  0.53070  Biso   1.000  H
  H116     1.0000 0.00000  0.60520  0.03070  Biso   1.000  H
  H117     1.0000 0.00000  0.89480  0.53070  Biso   1.000  H
  H118     1.0000 0.50000  0.10520  0.03070  Biso   1.000  H
  H119     1.0000 0.50000  0.60520  0.46930  Biso   1.000  H
  H120     1.0000 0.00000  0.39480  0.96930  Biso   1.000  H
  H121     1.0000 0.90030  0.15290  0.45440  Biso   1.000  H
  H122     1.0000 0.59970  0.84710  0.95440  Biso   1.000  H
  H123     1.0000 0.40030  0.34710  0.54560  Biso   1.000  H
  H124     1.0000 0.09970  0.65290  0.04560  Biso   1.000  H
  H125     1.0000 0.09970  0.84710  0.54560  Biso   1.000  H
  H126     1.0000 0.40030  0.15290  0.04560  Biso   1.000  H
  H127     1.0000 0.59970  0.65290  0.45440  Biso   1.000  H
  H128     1.0000 0.90030  0.34710  0.95440  Biso   1.000  H
  H129     1.0000 0.95540  0.66470  0.31960  Biso   1.000  H
  H130     1.0000 0.54460  0.33530  0.81960  Biso   1.000  H
  H131     1.0000 0.45540  0.83530  0.68040  Biso   1.000  H
  H132     1.0000 0.04460  0.16470  0.18040  Biso   1.000  H
  H133     1.0000 0.04460  0.33530  0.68040  Biso   1.000  H
  H134     1.0000 0.45540  0.66470  0.18040  Biso   1.000  H
  H135     1.0000 0.54460  0.16470  0.31960  Biso   1.000  H
  H136     1.0000 0.95540  0.83530  0.81960  Biso   1.000  H
  H137     1.0000 0.03100  0.54530  0.27980  Biso   1.000  H
  H138     1.0000 0.46900  0.45470  0.77980  Biso   1.000  H
  H139     1.0000 0.53100  0.95470  0.72020  Biso   1.000  H
  H140     1.0000 0.96900  0.04530  0.22020  Biso   1.000  H
  H141     1.0000 0.96900  0.45470  0.72020  Biso   1.000  H
  H142     1.0000 0.53100  0.54530  0.22020  Biso   1.000  H
  H143     1.0000 0.46900  0.04530  0.27980  Biso   1.000  H
  H144     1.0000 0.03100  0.95470  0.77980  Biso   1.000  H
  H145     1.0000 0.20330  0.54630  0.26480  Biso   1.000  H
  H146     1.0000 0.29670  0.45370  0.76480  Biso   1.000  H
  H147     1.0000 0.70330  0.95370  0.73520  Biso   1.000  H
  H148     1.0000 0.79670  0.04630  0.23520  Biso   1.000  H
  H149     1.0000 0.79670  0.45370  0.73520  Biso   1.000  H
  H150     1.0000 0.70330  0.54630  0.23520  Biso   1.000  H
  H151     1.0000 0.29670  0.04630  0.26480  Biso   1.000  H
  H152     1.0000 0.20330  0.95370  0.76480  Biso   1.000  H
  H153     1.0000 0.30030  0.66380  0.29630  Biso   1.000  H
  H154     1.0000 0.19970  0.33620  0.79630  Biso   1.000  H
  H155     1.0000 0.80030  0.83620  0.70370  Biso   1.000  H
  H156     1.0000 0.69970  0.16380  0.20370  Biso   1.000  H
  H157     1.0000 0.69970  0.33620  0.70370  Biso   1.000  H
  H158     1.0000 0.80030  0.66380  0.20370  Biso   1.000  H
  H159     1.0000 0.19970  0.16380  0.29630  Biso   1.000  H
  H160     1.0000 0.30030  0.83620  0.79630  Biso   1.000  H
  H161     1.0000 0.90860  0.41700  0.45210  Biso   1.000  H
  H162     1.0000 0.59140  0.58300  0.95210  Biso   1.000  H
  H163     1.0000 0.40860  0.08300  0.54790  Biso   1.000  H
  H164     1.0000 0.09140  0.91700  0.04790  Biso   1.000  H
  H165     1.0000 0.09140  0.58300  0.54790  Biso   1.000  H
  H166     1.0000 0.40860  0.41700  0.04790  Biso   1.000  H
  H167     1.0000 0.59140  0.91700  0.45210  Biso   1.000  H
  H168     1.0000 0.90860  0.08300  0.95210  Biso   1.000  H
  H169     1.0000 0.95420  0.57280  0.45250  Biso   1.000  H
  H170     1.0000 0.54580  0.42720  0.95250  Biso   1.000  H
  H171     1.0000 0.45420  0.92720  0.54750  Biso   1.000  H
  H172     1.0000 0.04580  0.07280  0.04750  Biso   1.000  H
  H173     1.0000 0.04580  0.42720  0.54750  Biso   1.000  H
  H174     1.0000 0.45420  0.57280  0.04750  Biso   1.000  H
  H175     1.0000 0.54580  0.07280  0.45250  Biso   1.000  H
  H176     1.0000 0.95420  0.92720  0.95250  Biso   1.000  H
  H177     1.0000 0.11570  0.61140  0.42460  Biso   1.000  H
  H178     1.0000 0.38430  0.38860  0.92460  Biso   1.000  H
  H179     1.0000 0.61570  0.88860  0.57540  Biso   1.000  H
  H180     1.0000 0.88430  0.11140  0.07540  Biso   1.000  H
  H181     1.0000 0.88430  0.38860  0.57540  Biso   1.000  H
  H182     1.0000 0.61570  0.61140  0.07540  Biso   1.000  H
  H183     1.0000 0.38430  0.11140  0.42460  Biso   1.000  H
  H184     1.0000 0.11570  0.88860  0.92460  Biso   1.000  H
  H185     1.0000 0.21720  0.50530  0.39100  Biso   1.000  H
  H186     1.0000 0.28280  0.49470  0.89100  Biso   1.000  H
  H187     1.0000 0.71720  0.99470  0.60900  Biso   1.000  H
  H188     1.0000 0.78280  0.00530  0.10900  Biso   1.000  H
  H189     1.0000 0.78280  0.49470  0.60900  Biso   1.000  H
  H190     1.0000 0.71720  0.50530  0.10900  Biso   1.000  H
  H191     1.0000 0.28280  0.00530  0.39100  Biso   1.000  H
  H192     1.0000 0.21720  0.99470  0.89100  Biso   1.000  H
