data_image0
_cell_length_a       7.9154
_cell_length_b       10.025
_cell_length_c       13.447
_cell_angle_alpha    88.038
_cell_angle_beta     89.073
_cell_angle_gamma    70.501

_symmetry_space_group_name_H-M    "P 1"
_symmetry_int_tables_number       1

loop_
  _symmetry_equiv_pos_as_xyz
  'x, y, z'

loop_
  _atom_site_label
  _atom_site_occupancy
  _atom_site_fract_x
  _atom_site_fract_y
  _atom_site_fract_z
  _atom_site_thermal_displace_type
  _atom_site_B_iso_or_equiv
  _atom_site_type_symbol
  Cu1      1.0000 0.73267  0.31977  0.76327  Biso   1.000  Cu
  Cu2      1.0000 0.26733  0.68023  0.23673  Biso   1.000  Cu
  O1       1.0000 0.92470  0.07530  0.64200  Biso   1.000  O
  O2       1.0000 0.07530  0.92470  0.35800  Biso   1.000  O
  O3       1.0000 0.73280  0.12680  0.76770  Biso   1.000  O
  O4       1.0000 0.26720  0.87320  0.23230  Biso   1.000  O
  O5       1.0000 0.75660  0.50740  0.76110  Biso   1.000  O
  O6       1.0000 0.24340  0.49260  0.23890  Biso   1.000  O
  O7       1.0000 0.72060  0.55880  0.92250  Biso   1.000  O
  O8       1.0000 0.27940  0.44120  0.07750  Biso   1.000  O
  O9       1.0000 0.59610  0.92400  0.64640  Biso   1.000  O
  O10      1.0000 0.40390  0.07600  0.35360  Biso   1.000  O
  H1       1.0000 0.49038  0.94748  0.60769  Biso   1.000  H
  H2       1.0000 0.50962  0.05252  0.39231  Biso   1.000  H
  O11      1.0000 0.50670  0.81690  0.77090  Biso   1.000  O
  O12      1.0000 0.49330  0.18310  0.22910  Biso   1.000  O
  N1       1.0000 0.96940  0.24550  0.83340  Biso   1.000  N
  N2       1.0000 0.03060  0.75450  0.16660  Biso   1.000  N
  N3       1.0000 0.53360  0.38640  0.66570  Biso   1.000  N
  N4       1.0000 0.46640  0.61360  0.33430  Biso   1.000  N
  C1       1.0000 0.85440  0.04060  0.71360  Biso   1.000  C
  C2       1.0000 0.14560  0.95940  0.28640  Biso   1.000  C
  C3       1.0000 0.91850  0.88880  0.75460  Biso   1.000  C
  C4       1.0000 0.08150  0.11120  0.24540  Biso   1.000  C
  C5       1.0000 0.08800  0.84150  0.79170  Biso   1.000  C
  C6       1.0000 0.91200  0.15850  0.20830  Biso   1.000  C
  H3       1.0000 0.16158  0.89638  0.78227  Biso   1.000  H
  H4       1.0000 0.83842  0.10362  0.21773  Biso   1.000  H
  C7       1.0000 0.15150  0.71400  0.84270  Biso   1.000  C
  C8       1.0000 0.84850  0.28600  0.15730  Biso   1.000  C
  H5       1.0000 0.26719  0.68424  0.86802  Biso   1.000  H
  H6       1.0000 0.73281  0.31576  0.13198  Biso   1.000  H
  C9       1.0000 0.05010  0.63180  0.85670  Biso   1.000  C
  C10      1.0000 0.94990  0.36820  0.14330  Biso   1.000  C
  H7       1.0000 0.09603  0.54508  0.89068  Biso   1.000  H
  H8       1.0000 0.90397  0.45492  0.10932  Biso   1.000  H
  C11      1.0000 0.87840  0.67510  0.82090  Biso   1.000  C
  C12      1.0000 0.12160  0.32490  0.17910  Biso   1.000  C
  C13      1.0000 0.77420  0.57490  0.83740  Biso   1.000  C
  C14      1.0000 0.22580  0.42510  0.16260  Biso   1.000  C
  C15      1.0000 0.11320  0.25030  0.79010  Biso   1.000  C
  C16      1.0000 0.88680  0.74970  0.20990  Biso   1.000  C
  H9       1.0000 0.10404  0.29216  0.72671  Biso   1.000  H
  H10      1.0000 0.89596  0.70784  0.27329  Biso   1.000  H
  C17      1.0000 0.28140  0.19610  0.83310  Biso   1.000  C
  C18      1.0000 0.71860  0.80390  0.16690  Biso   1.000  C
  H11      1.0000 0.38207  0.20389  0.80028  Biso   1.000  H
  H12      1.0000 0.61793  0.79611  0.19972  Biso   1.000  H
  C19      1.0000 0.29570  0.12970  0.92670  Biso   1.000  C
  C20      1.0000 0.70430  0.87030  0.07330  Biso   1.000  C
  C21      1.0000 0.14160  0.12080  0.96870  Biso   1.000  C
  C22      1.0000 0.85840  0.87920  0.03130  Biso   1.000  C
  H13      1.0000 0.14514  0.07337  0.02974  Biso   1.000  H
  H14      1.0000 0.85486  0.92663  0.97026  Biso   1.000  H
  C23      1.0000 0.98340  0.18140  0.92130  Biso   1.000  C
  C24      1.0000 0.01660  0.81860  0.07870  Biso   1.000  C
  H15      1.0000 0.87941  0.17745  0.95252  Biso   1.000  H
  H16      1.0000 0.12059  0.82255  0.04748  Biso   1.000  H
  C25      1.0000 0.47700  0.07440  0.98000  Biso   1.000  C
  C26      1.0000 0.52300  0.92560  0.02000  Biso   1.000  C
  H17      1.0000 0.57027  0.07945  0.93383  Biso   1.000  H
  H18      1.0000 0.42973  0.92055  0.06617  Biso   1.000  H
  H19      1.0000 0.47532  0.13567  0.03455  Biso   1.000  H
  H20      1.0000 0.52468  0.86433  0.96545  Biso   1.000  H
  C27      1.0000 0.49400  0.30070  0.60250  Biso   1.000  C
  C28      1.0000 0.50600  0.69930  0.39750  Biso   1.000  C
  H21      1.0000 0.57147  0.20788  0.59897  Biso   1.000  H
  H22      1.0000 0.42853  0.79212  0.40103  Biso   1.000  H
  C29      1.0000 0.34930  0.34130  0.54420  Biso   1.000  C
  C30      1.0000 0.65070  0.65870  0.45580  Biso   1.000  C
  H23      1.0000 0.32740  0.27483  0.50441  Biso   1.000  H
  H24      1.0000 0.67260  0.72517  0.49559  Biso   1.000  H
  C31      1.0000 0.23090  0.47870  0.54100  Biso   1.000  C
  C32      1.0000 0.76910  0.52130  0.45900  Biso   1.000  C
  C33      1.0000 0.27390  0.56660  0.60220  Biso   1.000  C
  C34      1.0000 0.72610  0.43340  0.39780  Biso   1.000  C
  H25      1.0000 0.20181  0.66125  0.60296  Biso   1.000  H
  H26      1.0000 0.79819  0.33875  0.39704  Biso   1.000  H
  C35      1.0000 0.42110  0.52030  0.66360  Biso   1.000  C
  C36      1.0000 0.57890  0.47970  0.33640  Biso   1.000  C
  H27      1.0000 0.44323  0.58458  0.70535  Biso   1.000  H
  H28      1.0000 0.55677  0.41542  0.29465  Biso   1.000  H
  C37      1.0000 0.06860  0.52240  0.47740  Biso   1.000  C
  C38      1.0000 0.93140  0.47760  0.52260  Biso   1.000  C
  H29      1.0000 0.02537  0.62460  0.46799  Biso   1.000  H
  H30      1.0000 0.97463  0.37540  0.53201  Biso   1.000  H
  H31      1.0000 0.09876  0.48092  0.41264  Biso   1.000  H
  H32      1.0000 0.90124  0.51908  0.58736  Biso   1.000  H
  C39      1.0000 0.62100  0.84900  0.72940  Biso   1.000  C
  C40      1.0000 0.37900  0.15100  0.27060  Biso   1.000  C
  C41      1.0000 0.81150  0.80450  0.76980  Biso   1.000  C
  C42      1.0000 0.18850  0.19550  0.23020  Biso   1.000  C
  O13      1.0000 0.55490  0.36850  0.91080  Biso   1.000  O
  O14      1.0000 0.44510  0.63150  0.08920  Biso   1.000  O
  H33      1.0000 0.44887  0.37615  0.94246  Biso   1.000  H
  H34      1.0000 0.55113  0.62385  0.05754  Biso   1.000  H
  H35      1.0000 0.55889  0.45925  0.90108  Biso   1.000  H
  H36      1.0000 0.44111  0.54075  0.09892  Biso   1.000  H
  O15      1.0000 0.27290  0.99070  0.56560  Biso   1.000  O
  O16      1.0000 0.72710  0.00930  0.43440  Biso   1.000  O
  H37      1.0000 0.28081  0.02388  0.49933  Biso   1.000  H
  H38      1.0000 0.71919  0.97612  0.50067  Biso   1.000  H
  H39      1.0000 0.15157  0.01442  0.58243  Biso   1.000  H
  H40      1.0000 0.84843  0.98558  0.41757  Biso   1.000  H
