data_image0
_cell_length_a       6.2168
_cell_length_b       16.4734
_cell_length_c       21.668
_cell_angle_alpha    90
_cell_angle_beta     90
_cell_angle_gamma    90

_symmetry_space_group_name_H-M    "P 1"
_symmetry_int_tables_number       1

loop_
  _symmetry_equiv_pos_as_xyz
  'x, y, z'

loop_
  _atom_site_label
  _atom_site_occupancy
  _atom_site_fract_x
  _atom_site_fract_y
  _atom_site_fract_z
  _atom_site_thermal_displace_type
  _atom_site_B_iso_or_equiv
  _atom_site_type_symbol
  Cu1      1.0000 0.99098  0.73105  0.07182  Biso   1.000  Cu
  Cu2      1.0000 0.50902  0.26895  0.57182  Biso   1.000  Cu
  Cu3      1.0000 0.00902  0.23105  0.42818  Biso   1.000  Cu
  Cu4      1.0000 0.49098  0.76895  0.92818  Biso   1.000  Cu
  C1       1.0000 0.17020  0.72271  0.19334  Biso   1.000  C
  C2       1.0000 0.32980  0.27729  0.69334  Biso   1.000  C
  C3       1.0000 0.82980  0.22271  0.30666  Biso   1.000  C
  C4       1.0000 0.67020  0.77729  0.80666  Biso   1.000  C
  C5       1.0000 0.05210  0.79153  0.21242  Biso   1.000  C
  C6       1.0000 0.44790  0.20847  0.71242  Biso   1.000  C
  C7       1.0000 0.94790  0.29153  0.28758  Biso   1.000  C
  C8       1.0000 0.55210  0.70847  0.78758  Biso   1.000  C
  C9       1.0000 0.19310  0.78217  0.31708  Biso   1.000  C
  C10      1.0000 0.30690  0.21783  0.81708  Biso   1.000  C
  C11      1.0000 0.80690  0.28217  0.18292  Biso   1.000  C
  C12      1.0000 0.69310  0.71783  0.68292  Biso   1.000  C
  C13      1.0000 0.30670  0.68331  0.23717  Biso   1.000  C
  C14      1.0000 0.19330  0.31669  0.73717  Biso   1.000  C
  C15      1.0000 0.69330  0.18331  0.26283  Biso   1.000  C
  C16      1.0000 0.80670  0.81669  0.76283  Biso   1.000  C
  C17      1.0000 0.21270  0.81065  0.38387  Biso   1.000  C
  C18      1.0000 0.28730  0.18935  0.88387  Biso   1.000  C
  C19      1.0000 0.78730  0.31065  0.11613  Biso   1.000  C
  C20      1.0000 0.71270  0.68935  0.61613  Biso   1.000  C
  C21      1.0000 0.06440  0.81930  0.27461  Biso   1.000  C
  C22      1.0000 0.43560  0.18070  0.77461  Biso   1.000  C
  C23      1.0000 0.93560  0.31930  0.22539  Biso   1.000  C
  C24      1.0000 0.56440  0.68070  0.72539  Biso   1.000  C
  H1       1.0000 0.98250  0.86390  0.28650  Biso   1.000  H
  H2       1.0000 0.51750  0.13610  0.78650  Biso   1.000  H
  H3       1.0000 0.01750  0.36390  0.21350  Biso   1.000  H
  H4       1.0000 0.48250  0.63610  0.71350  Biso   1.000  H
  C25      1.0000 0.44210  0.60941  0.21838  Biso   1.000  C
  C26      1.0000 0.05790  0.39059  0.71838  Biso   1.000  C
  C27      1.0000 0.55790  0.10941  0.28162  Biso   1.000  C
  C28      1.0000 0.94210  0.89059  0.78162  Biso   1.000  C
  C29      1.0000 0.31040  0.71413  0.29668  Biso   1.000  C
  C30      1.0000 0.18960  0.28587  0.79668  Biso   1.000  C
  C31      1.0000 0.68960  0.21413  0.20332  Biso   1.000  C
  C32      1.0000 0.81040  0.78587  0.70332  Biso   1.000  C
  H5       1.0000 0.39710  0.68780  0.32540  Biso   1.000  H
  H6       1.0000 0.10290  0.31220  0.82540  Biso   1.000  H
  H7       1.0000 0.60290  0.18780  0.17460  Biso   1.000  H
  H8       1.0000 0.89710  0.81220  0.67460  Biso   1.000  H
  O1       1.0000 0.16230  0.69397  0.13658  Biso   1.000  O
  O2       1.0000 0.33770  0.30603  0.63658  Biso   1.000  O
  O3       1.0000 0.83770  0.19397  0.36342  Biso   1.000  O
  O4       1.0000 0.66230  0.80603  0.86342  Biso   1.000  O
  C33      1.0000 0.92050  0.83886  0.17182  Biso   1.000  C
  C34      1.0000 0.57950  0.16114  0.67182  Biso   1.000  C
  C35      1.0000 0.07950  0.33886  0.32818  Biso   1.000  C
  C36      1.0000 0.42050  0.66114  0.82818  Biso   1.000  C
  H9       1.0000 0.84150  0.88080  0.18940  Biso   1.000  H
  H10      1.0000 0.65850  0.11920  0.68940  Biso   1.000  H
  H11      1.0000 0.15850  0.38080  0.31060  Biso   1.000  H
  H12      1.0000 0.34150  0.61920  0.81060  Biso   1.000  H
  N1       1.0000 0.90140  0.82862  0.11308  Biso   1.000  N
  N2       1.0000 0.59860  0.17138  0.61308  Biso   1.000  N
  N3       1.0000 0.09860  0.32862  0.38692  Biso   1.000  N
  N4       1.0000 0.40140  0.67138  0.88692  Biso   1.000  N
  O5       1.0000 0.55890  0.86253  0.98391  Biso   1.000  O
  O6       1.0000 0.94110  0.13747  0.48391  Biso   1.000  O
  O7       1.0000 0.44110  0.36253  0.51609  Biso   1.000  O
  O8       1.0000 0.05890  0.63747  0.01609  Biso   1.000  O
  O9       1.0000 0.77870  0.76497  0.01170  Biso   1.000  O
  O10      1.0000 0.72130  0.23503  0.51170  Biso   1.000  O
  O11      1.0000 0.22130  0.26497  0.48830  Biso   1.000  O
  O12      1.0000 0.27870  0.73503  0.98830  Biso   1.000  O
  C37      1.0000 0.59840  0.63230  0.16702  Biso   1.000  C
  C38      1.0000 0.90160  0.36770  0.66702  Biso   1.000  C
  C39      1.0000 0.40160  0.13230  0.33298  Biso   1.000  C
  C40      1.0000 0.09840  0.86770  0.83298  Biso   1.000  C
  H13      1.0000 0.51980  0.65400  0.13270  Biso   1.000  H
  H14      1.0000 0.98020  0.34600  0.63270  Biso   1.000  H
  H15      1.0000 0.48020  0.15400  0.36730  Biso   1.000  H
  H16      1.0000 0.01980  0.84600  0.86730  Biso   1.000  H
  H17      1.0000 0.67600  0.58490  0.15410  Biso   1.000  H
  H18      1.0000 0.82400  0.41510  0.65410  Biso   1.000  H
  H19      1.0000 0.32400  0.08490  0.34590  Biso   1.000  H
  H20      1.0000 0.17600  0.91510  0.84590  Biso   1.000  H
  H21      1.0000 0.69790  0.67220  0.18200  Biso   1.000  H
  H22      1.0000 0.80210  0.32780  0.68200  Biso   1.000  H
  H23      1.0000 0.30210  0.17220  0.31800  Biso   1.000  H
  H24      1.0000 0.19790  0.82780  0.81800  Biso   1.000  H
  C41      1.0000 0.77280  0.88449  0.07522  Biso   1.000  C
  C42      1.0000 0.72720  0.11551  0.57522  Biso   1.000  C
  C43      1.0000 0.22720  0.38449  0.42478  Biso   1.000  C
  C44      1.0000 0.27280  0.61551  0.92478  Biso   1.000  C
  H25      1.0000 0.64720  0.90200  0.09910  Biso   1.000  H
  H26      1.0000 0.85280  0.09800  0.59910  Biso   1.000  H
  H27      1.0000 0.35280  0.40200  0.40090  Biso   1.000  H
  H28      1.0000 0.14720  0.59800  0.90090  Biso   1.000  H
  C45      1.0000 0.29270  0.54068  0.19675  Biso   1.000  C
  C46      1.0000 0.20730  0.45932  0.69675  Biso   1.000  C
  C47      1.0000 0.70730  0.04068  0.30325  Biso   1.000  C
  C48      1.0000 0.79270  0.95932  0.80325  Biso   1.000  C
  H29      1.0000 0.18580  0.53050  0.22780  Biso   1.000  H
  H30      1.0000 0.31420  0.46950  0.72780  Biso   1.000  H
  H31      1.0000 0.81420  0.03050  0.27220  Biso   1.000  H
  H32      1.0000 0.68580  0.96950  0.77220  Biso   1.000  H
  H33      1.0000 0.37550  0.49230  0.19000  Biso   1.000  H
  H34      1.0000 0.12450  0.50770  0.69000  Biso   1.000  H
  H35      1.0000 0.62450  0.99230  0.31000  Biso   1.000  H
  H36      1.0000 0.87550  0.00770  0.81000  Biso   1.000  H
  H37      1.0000 0.22330  0.55630  0.15900  Biso   1.000  H
  H38      1.0000 0.27670  0.44370  0.65900  Biso   1.000  H
  H39      1.0000 0.77670  0.05630  0.34100  Biso   1.000  H
  H40      1.0000 0.72330  0.94370  0.84100  Biso   1.000  H
  C49      1.0000 0.57770  0.57680  0.27232  Biso   1.000  C
  C50      1.0000 0.92230  0.42320  0.77232  Biso   1.000  C
  C51      1.0000 0.42230  0.07680  0.22768  Biso   1.000  C
  C52      1.0000 0.07770  0.92320  0.72768  Biso   1.000  C
  H41      1.0000 0.67440  0.61830  0.28630  Biso   1.000  H
  H42      1.0000 0.82560  0.38170  0.78630  Biso   1.000  H
  H43      1.0000 0.32560  0.11830  0.21370  Biso   1.000  H
  H44      1.0000 0.17440  0.88170  0.71370  Biso   1.000  H
  H45      1.0000 0.65890  0.53050  0.25880  Biso   1.000  H
  H46      1.0000 0.84110  0.46950  0.75880  Biso   1.000  H
  H47      1.0000 0.34110  0.03050  0.24120  Biso   1.000  H
  H48      1.0000 0.15890  0.96950  0.74120  Biso   1.000  H
  H49      1.0000 0.48450  0.56110  0.30560  Biso   1.000  H
  H50      1.0000 0.01550  0.43890  0.80560  Biso   1.000  H
  H51      1.0000 0.51550  0.06110  0.19440  Biso   1.000  H
  H52      1.0000 0.98450  0.93890  0.69440  Biso   1.000  H
  C53      1.0000 0.12380  0.74660  0.42631  Biso   1.000  C
  C54      1.0000 0.37620  0.25340  0.92631  Biso   1.000  C
  C55      1.0000 0.87620  0.24660  0.07369  Biso   1.000  C
  C56      1.0000 0.62380  0.75340  0.57369  Biso   1.000  C
  H53      1.0000 0.97730  0.73530  0.41530  Biso   1.000  H
  H54      1.0000 0.52270  0.26470  0.91530  Biso   1.000  H
  H55      1.0000 0.02270  0.23530  0.08470  Biso   1.000  H
  H56      1.0000 0.47730  0.76470  0.58470  Biso   1.000  H
  H57      1.0000 0.12950  0.76580  0.46810  Biso   1.000  H
  H58      1.0000 0.37050  0.23420  0.96810  Biso   1.000  H
  H59      1.0000 0.87050  0.26580  0.03190  Biso   1.000  H
  H60      1.0000 0.62950  0.73420  0.53190  Biso   1.000  H
  H61      1.0000 0.20790  0.69800  0.42260  Biso   1.000  H
  H62      1.0000 0.29210  0.30200  0.92260  Biso   1.000  H
  H63      1.0000 0.79210  0.19800  0.07740  Biso   1.000  H
  H64      1.0000 0.70790  0.80200  0.57740  Biso   1.000  H
  C57      1.0000 0.00240  0.00372  0.10967  Biso   1.000  C
  C58      1.0000 0.49760  0.99628  0.60967  Biso   1.000  C
  C59      1.0000 0.99760  0.50372  0.39033  Biso   1.000  C
  C60      1.0000 0.50240  0.49628  0.89033  Biso   1.000  C
  H65      1.0000 0.10730  0.96860  0.12820  Biso   1.000  H
  H66      1.0000 0.39270  0.03140  0.62820  Biso   1.000  H
  H67      1.0000 0.89270  0.46860  0.37180  Biso   1.000  H
  H68      1.0000 0.60730  0.53140  0.87180  Biso   1.000  H
  H69      1.0000 0.89270  0.01640  0.13930  Biso   1.000  H
  H70      1.0000 0.60730  0.98360  0.63930  Biso   1.000  H
  H71      1.0000 0.10730  0.51640  0.36070  Biso   1.000  H
  H72      1.0000 0.39270  0.48360  0.86070  Biso   1.000  H
  H73      1.0000 0.07080  0.05290  0.09630  Biso   1.000  H
  H74      1.0000 0.42920  0.94710  0.59630  Biso   1.000  H
  H75      1.0000 0.92920  0.55290  0.40370  Biso   1.000  H
  H76      1.0000 0.57080  0.44710  0.90370  Biso   1.000  H
  C61      1.0000 0.90060  0.96105  0.05402  Biso   1.000  C
  C62      1.0000 0.59940  0.03895  0.55402  Biso   1.000  C
  C63      1.0000 0.09940  0.46105  0.44598  Biso   1.000  C
  C64      1.0000 0.40060  0.53895  0.94598  Biso   1.000  C
  C65      1.0000 0.74370  0.02071  0.02469  Biso   1.000  C
  C66      1.0000 0.75630  0.97929  0.52469  Biso   1.000  C
  C67      1.0000 0.25630  0.52071  0.47531  Biso   1.000  C
  C68      1.0000 0.24370  0.47929  0.97531  Biso   1.000  C
  H77      1.0000 0.81590  0.07120  0.01680  Biso   1.000  H
  H78      1.0000 0.68410  0.92880  0.51680  Biso   1.000  H
  H79      1.0000 0.18410  0.57120  0.48320  Biso   1.000  H
  H80      1.0000 0.31590  0.42880  0.98320  Biso   1.000  H
  H81      1.0000 0.62520  0.02990  0.05230  Biso   1.000  H
  H82      1.0000 0.87480  0.97010  0.55230  Biso   1.000  H
  H83      1.0000 0.37480  0.52990  0.44770  Biso   1.000  H
  H84      1.0000 0.12520  0.47010  0.94770  Biso   1.000  H
  H85      1.0000 0.69100  0.99870  0.98660  Biso   1.000  H
  H86      1.0000 0.80900  0.00130  0.48660  Biso   1.000  H
  H87      1.0000 0.30900  0.49870  0.51340  Biso   1.000  H
  H88      1.0000 0.19100  0.50130  0.01340  Biso   1.000  H
  C69      1.0000 0.09800  0.89150  0.39415  Biso   1.000  C
  C70      1.0000 0.40200  0.10850  0.89415  Biso   1.000  C
  C71      1.0000 0.90200  0.39150  0.10585  Biso   1.000  C
  C72      1.0000 0.59800  0.60850  0.60585  Biso   1.000  C
  H89      1.0000 0.94840  0.88570  0.38410  Biso   1.000  H
  H90      1.0000 0.55160  0.11430  0.88410  Biso   1.000  H
  H91      1.0000 0.05160  0.38570  0.11590  Biso   1.000  H
  H92      1.0000 0.44840  0.61430  0.61590  Biso   1.000  H
  H93      1.0000 0.16120  0.93220  0.36820  Biso   1.000  H
  H94      1.0000 0.33880  0.06780  0.86820  Biso   1.000  H
  H95      1.0000 0.83880  0.43220  0.13180  Biso   1.000  H
  H96      1.0000 0.66120  0.56780  0.63180  Biso   1.000  H
  H97      1.0000 0.11230  0.90730  0.43660  Biso   1.000  H
  H98      1.0000 0.38770  0.09270  0.93660  Biso   1.000  H
  H99      1.0000 0.88770  0.40730  0.06340  Biso   1.000  H
  H100     1.0000 0.61230  0.59270  0.56340  Biso   1.000  H
  C73      1.0000 0.45050  0.82500  0.39951  Biso   1.000  C
  C74      1.0000 0.04950  0.17500  0.89951  Biso   1.000  C
  C75      1.0000 0.54950  0.32500  0.10049  Biso   1.000  C
  C76      1.0000 0.95050  0.67500  0.60049  Biso   1.000  C
  H101     1.0000 0.46240  0.84490  0.44100  Biso   1.000  H
  H102     1.0000 0.03760  0.15510  0.94100  Biso   1.000  H
  H103     1.0000 0.53760  0.34490  0.05900  Biso   1.000  H
  H104     1.0000 0.96240  0.65510  0.55900  Biso   1.000  H
  H105     1.0000 0.50970  0.86430  0.37150  Biso   1.000  H
  H106     1.0000 0.99030  0.13570  0.87150  Biso   1.000  H
  H107     1.0000 0.49030  0.36430  0.12850  Biso   1.000  H
  H108     1.0000 0.00970  0.63570  0.62850  Biso   1.000  H
  H109     1.0000 0.52820  0.77490  0.39580  Biso   1.000  H
  H110     1.0000 0.97180  0.22510  0.89580  Biso   1.000  H
  H111     1.0000 0.47180  0.27490  0.10420  Biso   1.000  H
  H112     1.0000 0.02820  0.72510  0.60420  Biso   1.000  H
  C77      1.0000 0.07370  0.93750  0.00837  Biso   1.000  C
  C78      1.0000 0.42630  0.06250  0.50837  Biso   1.000  C
  C79      1.0000 0.92630  0.43750  0.49163  Biso   1.000  C
  C80      1.0000 0.57370  0.56250  0.99163  Biso   1.000  C
  H113     1.0000 0.00900  0.91140  0.97340  Biso   1.000  H
  H114     1.0000 0.49100  0.08860  0.47340  Biso   1.000  H
  H115     1.0000 0.99100  0.41140  0.52660  Biso   1.000  H
  H116     1.0000 0.50900  0.58860  0.02660  Biso   1.000  H
  H117     1.0000 0.17310  0.90090  0.02770  Biso   1.000  H
  H118     1.0000 0.32690  0.09910  0.52770  Biso   1.000  H
  H119     1.0000 0.82690  0.40090  0.47230  Biso   1.000  H
  H120     1.0000 0.67310  0.59910  0.97230  Biso   1.000  H
  H121     1.0000 0.14890  0.98530  0.99500  Biso   1.000  H
  H122     1.0000 0.35110  0.01470  0.49500  Biso   1.000  H
  H123     1.0000 0.85110  0.48530  0.50500  Biso   1.000  H
  H124     1.0000 0.64890  0.51470  0.00500  Biso   1.000  H
  C81      1.0000 0.69590  0.83444  0.01982  Biso   1.000  C
  C82      1.0000 0.80410  0.16556  0.51982  Biso   1.000  C
  C83      1.0000 0.30410  0.33444  0.48018  Biso   1.000  C
  C84      1.0000 0.19590  0.66556  0.98018  Biso   1.000  C
