data_image0
_cell_length_a       10.9225
_cell_length_b       6.4718
_cell_length_c       13.8434
_cell_angle_alpha    90
_cell_angle_beta     100.006
_cell_angle_gamma    90

_symmetry_space_group_name_H-M    "P 1"
_symmetry_int_tables_number       1

loop_
  _symmetry_equiv_pos_as_xyz
  'x, y, z'

loop_
  _atom_site_label
  _atom_site_occupancy
  _atom_site_fract_x
  _atom_site_fract_y
  _atom_site_fract_z
  _atom_site_thermal_displace_type
  _atom_site_B_iso_or_equiv
  _atom_site_type_symbol
  Cu1      1.0000 0.06353  0.86477  0.10838  Biso   1.000  Cu
  Cu2      1.0000 0.93647  0.36477  0.89162  Biso   1.000  Cu
  O1       1.0000 0.98029  0.66620  0.01421  Biso   1.000  O
  O2       1.0000 0.01971  0.16620  0.98579  Biso   1.000  O
  O3       1.0000 0.82674  0.44260  0.98526  Biso   1.000  O
  O4       1.0000 0.17326  0.94260  0.01474  Biso   1.000  O
  N1       1.0000 0.94371  0.76980  0.18471  Biso   1.000  N
  N2       1.0000 0.05629  0.26980  0.81529  Biso   1.000  N
  O5       1.0000 0.15421  0.01910  0.21190  Biso   1.000  O
  O6       1.0000 0.84579  0.51910  0.78810  Biso   1.000  O
  C1       1.0000 0.25140  0.42660  0.27530  Biso   1.000  C
  C2       1.0000 0.74860  0.92660  0.72470  Biso   1.000  C
  H1       1.0000 0.30500  0.53290  0.25800  Biso   1.000  H
  H2       1.0000 0.69500  0.03290  0.74200  Biso   1.000  H
  H3       1.0000 0.19290  0.48610  0.31160  Biso   1.000  H
  H4       1.0000 0.80710  0.98610  0.68840  Biso   1.000  H
  H5       1.0000 0.20750  0.36310  0.21670  Biso   1.000  H
  H6       1.0000 0.79250  0.86310  0.78330  Biso   1.000  H
  C3       1.0000 0.06620  0.86560  0.34109  Biso   1.000  C
  C4       1.0000 0.93380  0.36560  0.65891  Biso   1.000  C
  C5       1.0000 0.24470  0.10610  0.37370  Biso   1.000  C
  C6       1.0000 0.75530  0.60610  0.62630  Biso   1.000  C
  C7       1.0000 0.15320  0.99510  0.30520  Biso   1.000  C
  C8       1.0000 0.84680  0.49510  0.69480  Biso   1.000  C
  C9       1.0000 0.17280  0.91580  0.50470  Biso   1.000  C
  C10      1.0000 0.82720  0.41580  0.49530  Biso   1.000  C
  C11      1.0000 0.96420  0.76570  0.27900  Biso   1.000  C
  C12      1.0000 0.03580  0.26570  0.72100  Biso   1.000  C
  H7       1.0000 0.90840  0.69220  0.30940  Biso   1.000  H
  H8       1.0000 0.09160  0.19220  0.69060  Biso   1.000  H
  C13      1.0000 0.07770  0.82760  0.44190  Biso   1.000  C
  C14      1.0000 0.92230  0.32760  0.55810  Biso   1.000  C
  H9       1.0000 0.02090  0.74280  0.46560  Biso   1.000  H
  H10      1.0000 0.97910  0.24280  0.53440  Biso   1.000  H
  N3       1.0000 0.18910  0.86720  0.60933  Biso   1.000  N
  N4       1.0000 0.81090  0.36720  0.39067  Biso   1.000  N
  C15      1.0000 0.41090  0.37970  0.42370  Biso   1.000  C
  C16      1.0000 0.58910  0.87970  0.57630  Biso   1.000  C
  H11      1.0000 0.45740  0.48600  0.39790  Biso   1.000  H
  H12      1.0000 0.54260  0.98600  0.60210  Biso   1.000  H
  H13      1.0000 0.46730  0.28420  0.46130  Biso   1.000  H
  H14      1.0000 0.53270  0.78420  0.53870  Biso   1.000  H
  H15      1.0000 0.35880  0.44090  0.46500  Biso   1.000  H
  H16      1.0000 0.64120  0.94090  0.53500  Biso   1.000  H
  O7       1.0000 0.11240  0.76090  0.63810  Biso   1.000  O
  O8       1.0000 0.88760  0.26090  0.36190  Biso   1.000  O
  O9       1.0000 0.27780  0.93820  0.66392  Biso   1.000  O
  O10      1.0000 0.72220  0.43820  0.33608  Biso   1.000  O
  C17      1.0000 0.32930  0.26390  0.33810  Biso   1.000  C
  C18      1.0000 0.67070  0.76390  0.66190  Biso   1.000  C
  C19      1.0000 0.25220  0.05710  0.47200  Biso   1.000  C
  C20      1.0000 0.74780  0.55710  0.52800  Biso   1.000  C
  H17      1.0000 0.31260  0.12120  0.51780  Biso   1.000  H
  H18      1.0000 0.68740  0.62120  0.48220  Biso   1.000  H
  C21      1.0000 0.41750  0.15420  0.27860  Biso   1.000  C
  C22      1.0000 0.58250  0.65420  0.72140  Biso   1.000  C
  H19      1.0000 0.36940  0.08120  0.22460  Biso   1.000  H
  H20      1.0000 0.63060  0.58120  0.77540  Biso   1.000  H
  H21      1.0000 0.46910  0.05830  0.32020  Biso   1.000  H
  H22      1.0000 0.53090  0.55830  0.67980  Biso   1.000  H
  H23      1.0000 0.46880  0.25500  0.25400  Biso   1.000  H
  H24      1.0000 0.53120  0.75500  0.74600  Biso   1.000  H
  C23      1.0000 0.83720  0.65870  0.12770  Biso   1.000  C
  C24      1.0000 0.16280  0.15870  0.87230  Biso   1.000  C
  H25      1.0000 0.81700  0.53940  0.16560  Biso   1.000  H
  H26      1.0000 0.18300  0.03940  0.83440  Biso   1.000  H
  C25      1.0000 0.71870  0.79850  0.10110  Biso   1.000  C
  C26      1.0000 0.28130  0.29850  0.89890  Biso   1.000  C
  C27      1.0000 0.68780  0.89610  0.19290  Biso   1.000  C
  C28      1.0000 0.31220  0.39610  0.80710  Biso   1.000  C
  H27      1.0000 0.60460  0.94990  0.17960  Biso   1.000  H
  H28      1.0000 0.39540  0.44990  0.82040  Biso   1.000  H
  H29      1.0000 0.74510  0.00640  0.21370  Biso   1.000  H
  H30      1.0000 0.25490  0.50640  0.78630  Biso   1.000  H
  H31      1.0000 0.69390  0.79400  0.24380  Biso   1.000  H
  H32      1.0000 0.30610  0.29400  0.75620  Biso   1.000  H
  C29      1.0000 0.61070  0.66230  0.05690  Biso   1.000  C
  C30      1.0000 0.38930  0.16230  0.94310  Biso   1.000  C
  H33      1.0000 0.53580  0.74280  0.04520  Biso   1.000  H
  H34      1.0000 0.46420  0.24280  0.95480  Biso   1.000  H
  H35      1.0000 0.60170  0.55190  0.10150  Biso   1.000  H
  H36      1.0000 0.39830  0.05190  0.89850  Biso   1.000  H
  H37      1.0000 0.62610  0.60570  0.99600  Biso   1.000  H
  H38      1.0000 0.37390  0.10570  0.00400  Biso   1.000  H
  C31      1.0000 0.74030  0.96420  0.02940  Biso   1.000  C
  C32      1.0000 0.25970  0.46420  0.97060  Biso   1.000  C
  H39      1.0000 0.76030  0.90120  0.97130  Biso   1.000  H
  H40      1.0000 0.23970  0.40120  0.02870  Biso   1.000  H
  H41      1.0000 0.80800  0.05090  0.05880  Biso   1.000  H
  H42      1.0000 0.19200  0.55090  0.94120  Biso   1.000  H
  H43      1.0000 0.66650  0.04620  0.01240  Biso   1.000  H
  H44      1.0000 0.33350  0.54620  0.98760  Biso   1.000  H
  C33      1.0000 0.88290  0.58290  0.03646  Biso   1.000  C
  C34      1.0000 0.11710  0.08290  0.96354  Biso   1.000  C
