data_image0
_cell_length_a       11.6599
_cell_length_b       7.2927
_cell_length_c       12.0335
_cell_angle_alpha    90
_cell_angle_beta     113.928
_cell_angle_gamma    90

_symmetry_space_group_name_H-M    "P 1"
_symmetry_int_tables_number       1

loop_
  _symmetry_equiv_pos_as_xyz
  'x, y, z'

loop_
  _atom_site_label
  _atom_site_occupancy
  _atom_site_fract_x
  _atom_site_fract_y
  _atom_site_fract_z
  _atom_site_thermal_displace_type
  _atom_site_B_iso_or_equiv
  _atom_site_type_symbol
  O1       1.0000 0.41120  0.97570  0.08170  Biso   1.000  O
  O2       1.0000 0.58880  0.47570  0.91830  Biso   1.000  O
  Cu1      1.0000 0.36316  0.88440  0.91660  Biso   1.000  Cu
  Cu2      1.0000 0.63684  0.38440  0.08340  Biso   1.000  Cu
  Br1      1.0000 0.25906  0.27140  0.56302  Biso   1.000  Br
  Br2      1.0000 0.74094  0.77140  0.43698  Biso   1.000  Br
  C1       1.0000 0.88490  0.48200  0.24570  Biso   1.000  C
  C2       1.0000 0.11510  0.98200  0.75430  Biso   1.000  C
  C3       1.0000 0.88470  0.33850  0.33230  Biso   1.000  C
  C4       1.0000 0.11530  0.83850  0.66770  Biso   1.000  C
  C5       1.0000 0.76900  0.25100  0.32250  Biso   1.000  C
  C6       1.0000 0.23100  0.75100  0.67750  Biso   1.000  C
  H1       1.0000 0.77370  0.17260  0.38500  Biso   1.000  H
  H2       1.0000 0.22630  0.67260  0.61500  Biso   1.000  H
  C7       1.0000 0.99520  0.28700  0.42940  Biso   1.000  C
  C8       1.0000 0.00480  0.78700  0.57060  Biso   1.000  C
  H3       1.0000 0.99220  0.20440  0.48720  Biso   1.000  H
  H4       1.0000 0.00780  0.70440  0.51280  Biso   1.000  H
  C9       1.0000 0.10660  0.35600  0.43980  Biso   1.000  C
  C10      1.0000 0.89340  0.85600  0.56020  Biso   1.000  C
  N1       1.0000 0.66320  0.27300  0.23710  Biso   1.000  N
  N2       1.0000 0.33680  0.77300  0.76290  Biso   1.000  N
  O3       1.0000 0.78930  0.51600  0.14960  Biso   1.000  O
  O4       1.0000 0.21070  0.01600  0.85040  Biso   1.000  O
  C11      1.0000 0.00770  0.73900  0.19520  Biso   1.000  C
  C12      1.0000 0.99230  0.23900  0.80480  Biso   1.000  C
  C13      1.0000 0.10720  0.50980  0.36440  Biso   1.000  C
  C14      1.0000 0.89280  0.00980  0.63560  Biso   1.000  C
  H5       1.0000 0.18110  0.57510  0.38220  Biso   1.000  H
  H6       1.0000 0.81890  0.07510  0.61780  Biso   1.000  H
  C15      1.0000 0.00550  0.55850  0.27160  Biso   1.000  C
  C16      1.0000 0.99450  0.05850  0.72840  Biso   1.000  C
  C17      1.0000 0.13350  0.82800  0.24500  Biso   1.000  C
  C18      1.0000 0.86650  0.32800  0.75500  Biso   1.000  C
  H7       1.0000 0.12420  0.95700  0.22770  Biso   1.000  H
  H8       1.0000 0.87580  0.45700  0.77230  Biso   1.000  H
  H9       1.0000 0.18440  0.77490  0.20720  Biso   1.000  H
  H10      1.0000 0.81560  0.27490  0.79280  Biso   1.000  H
  H11      1.0000 0.17310  0.80910  0.33100  Biso   1.000  H
  H12      1.0000 0.82690  0.30910  0.66900  Biso   1.000  H
  C19      1.0000 0.91000  0.87600  0.19000  Biso   1.000  C
  C20      1.0000 0.09000  0.37600  0.81000  Biso   1.000  C
  H13      1.0000 0.90610  0.88410  0.26790  Biso   1.000  H
  H14      1.0000 0.09390  0.38410  0.73210  Biso   1.000  H
  H15      1.0000 0.82970  0.83800  0.13010  Biso   1.000  H
  H16      1.0000 0.17030  0.33800  0.86990  Biso   1.000  H
  H17      1.0000 0.93100  0.99390  0.16780  Biso   1.000  H
  H18      1.0000 0.06900  0.49390  0.83220  Biso   1.000  H
  C21      1.0000 0.97900  0.66900  0.06360  Biso   1.000  C
  C22      1.0000 0.02100  0.16900  0.93640  Biso   1.000  C
  H19      1.0000 0.89970  0.71640  0.00830  Biso   1.000  H
  H20      1.0000 0.10030  0.21640  0.99170  Biso   1.000  H
  H21      1.0000 0.97730  0.53790  0.06240  Biso   1.000  H
  H22      1.0000 0.02270  0.03790  0.93760  Biso   1.000  H
  H23      1.0000 0.04390  0.71160  0.03950  Biso   1.000  H
  H24      1.0000 0.95610  0.21160  0.96050  Biso   1.000  H
  C23      1.0000 0.54300  0.33600  0.41480  Biso   1.000  C
  C24      1.0000 0.45700  0.83600  0.58520  Biso   1.000  C
  H25      1.0000 0.62520  0.37880  0.42530  Biso   1.000  H
  H26      1.0000 0.37480  0.87880  0.57470  Biso   1.000  H
  H27      1.0000 0.55150  0.22560  0.46040  Biso   1.000  H
  H28      1.0000 0.44850  0.72560  0.53960  Biso   1.000  H
  H29      1.0000 0.50290  0.42840  0.44320  Biso   1.000  H
  H30      1.0000 0.49710  0.92840  0.55680  Biso   1.000  H
  C25      1.0000 0.55050  0.17600  0.23550  Biso   1.000  C
  C26      1.0000 0.44950  0.67600  0.76450  Biso   1.000  C
  H31      1.0000 0.57720  0.06620  0.28700  Biso   1.000  H
  H32      1.0000 0.42280  0.56620  0.71300  Biso   1.000  H
  C27      1.0000 0.46530  0.29900  0.28080  Biso   1.000  C
  C28      1.0000 0.53470  0.79900  0.71920  Biso   1.000  C
  C29      1.0000 0.43700  0.47400  0.20900  Biso   1.000  C
  C30      1.0000 0.56300  0.97400  0.79100  Biso   1.000  C
  H33      1.0000 0.41980  0.56970  0.25480  Biso   1.000  H
  H34      1.0000 0.58020  0.06970  0.74520  Biso   1.000  H
  H35      1.0000 0.36600  0.45670  0.13360  Biso   1.000  H
  H36      1.0000 0.63400  0.95670  0.86640  Biso   1.000  H
  H37      1.0000 0.50880  0.50820  0.19290  Biso   1.000  H
  H38      1.0000 0.49120  0.00820  0.80710  Biso   1.000  H
  O5       1.0000 0.49990  0.20640  0.01990  Biso   1.000  O
  O6       1.0000 0.50010  0.70640  0.98010  Biso   1.000  O
  C31      1.0000 0.34860  0.18600  0.27100  Biso   1.000  C
  C32      1.0000 0.65140  0.68600  0.72900  Biso   1.000  C
  H39      1.0000 0.32950  0.21080  0.33970  Biso   1.000  H
  H40      1.0000 0.67050  0.71080  0.66030  Biso   1.000  H
  H41      1.0000 0.36590  0.05750  0.26860  Biso   1.000  H
  H42      1.0000 0.63410  0.55750  0.73140  Biso   1.000  H
  H43      1.0000 0.27820  0.21910  0.19750  Biso   1.000  H
  H44      1.0000 0.72180  0.71910  0.80250  Biso   1.000  H
  C33      1.0000 0.48170  0.11600  0.10180  Biso   1.000  C
  C34      1.0000 0.51830  0.61600  0.89820  Biso   1.000  C
