data_image0
_cell_length_a       8.98
_cell_length_b       7.569
_cell_length_c       10.393
_cell_angle_alpha    90
_cell_angle_beta     90
_cell_angle_gamma    90

_symmetry_space_group_name_H-M    "P 1"
_symmetry_int_tables_number       1

loop_
  _symmetry_equiv_pos_as_xyz
  'x, y, z'

loop_
  _atom_site_label
  _atom_site_occupancy
  _atom_site_fract_x
  _atom_site_fract_y
  _atom_site_fract_z
  _atom_site_thermal_displace_type
  _atom_site_B_iso_or_equiv
  _atom_site_type_symbol
  Cu1      1.0000 0.42000  0.25000  0.84180  Biso   1.000  Cu
  Cu2      1.0000 0.08000  0.75000  0.34180  Biso   1.000  Cu
  Cu3      1.0000 0.92000  0.25000  0.65820  Biso   1.000  Cu
  Cu4      1.0000 0.58000  0.75000  0.15820  Biso   1.000  Cu
  Br1      1.0000 0.75450  0.25000  0.42330  Biso   1.000  Br
  Br2      1.0000 0.74550  0.75000  0.92330  Biso   1.000  Br
  Br3      1.0000 0.25450  0.25000  0.07670  Biso   1.000  Br
  Br4      1.0000 0.24550  0.75000  0.57670  Biso   1.000  Br
  O1       1.0000 0.23650  0.25000  0.73710  Biso   1.000  O
  O2       1.0000 0.26350  0.75000  0.23710  Biso   1.000  O
  O3       1.0000 0.73650  0.25000  0.76290  Biso   1.000  O
  O4       1.0000 0.76350  0.75000  0.26290  Biso   1.000  O
  O5       1.0000 0.10770  0.25000  0.55480  Biso   1.000  O
  O6       1.0000 0.39230  0.75000  0.05480  Biso   1.000  O
  O7       1.0000 0.60770  0.25000  0.94520  Biso   1.000  O
  O8       1.0000 0.89230  0.75000  0.44520  Biso   1.000  O
  O9       1.0000 0.93570  0.51080  0.67630  Biso   1.000  O
  O10      1.0000 0.56430  0.48920  0.17630  Biso   1.000  O
  O11      1.0000 0.43570  0.98920  0.82370  Biso   1.000  O
  O12      1.0000 0.06430  0.01080  0.32370  Biso   1.000  O
  O13      1.0000 0.06430  0.48920  0.32370  Biso   1.000  O
  O14      1.0000 0.43570  0.51080  0.82370  Biso   1.000  O
  O15      1.0000 0.56430  0.01080  0.17630  Biso   1.000  O
  O16      1.0000 0.93570  0.98920  0.67630  Biso   1.000  O
  C1       1.0000 0.23060  0.25000  0.61240  Biso   1.000  C
  C2       1.0000 0.26940  0.75000  0.11240  Biso   1.000  C
  C3       1.0000 0.73060  0.25000  0.88760  Biso   1.000  C
  C4       1.0000 0.76940  0.75000  0.38760  Biso   1.000  C
  C5       1.0000 0.36440  0.25000  0.53620  Biso   1.000  C
  C6       1.0000 0.13560  0.75000  0.03620  Biso   1.000  C
  C7       1.0000 0.86440  0.25000  0.96380  Biso   1.000  C
  C8       1.0000 0.63560  0.75000  0.46380  Biso   1.000  C
