data_image0
_cell_length_a       14.341
_cell_length_b       14.341
_cell_length_c       24.282
_cell_angle_alpha    90
_cell_angle_beta     90
_cell_angle_gamma    90

_symmetry_space_group_name_H-M    "P 1"
_symmetry_int_tables_number       1

loop_
  _symmetry_equiv_pos_as_xyz
  'x, y, z'

loop_
  _atom_site_label
  _atom_site_occupancy
  _atom_site_fract_x
  _atom_site_fract_y
  _atom_site_fract_z
  _atom_site_thermal_displace_type
  _atom_site_B_iso_or_equiv
  _atom_site_type_symbol
  Cu1      1.0000 0.42250  0.02910  0.02782  Biso   1.000  Cu
  Cu2      1.0000 0.47090  0.92250  0.77782  Biso   1.000  Cu
  Cu3      1.0000 0.92250  0.47090  0.22218  Biso   1.000  Cu
  Cu4      1.0000 0.57750  0.97090  0.52782  Biso   1.000  Cu
  Cu5      1.0000 0.02910  0.42250  0.97218  Biso   1.000  Cu
  Cu6      1.0000 0.52910  0.07750  0.27782  Biso   1.000  Cu
  Cu7      1.0000 0.07750  0.52910  0.72218  Biso   1.000  Cu
  Cu8      1.0000 0.97090  0.57750  0.47218  Biso   1.000  Cu
  P1       1.0000 0.22630  0.22630  0.00000  Biso   1.000  P
  P2       1.0000 0.27370  0.72630  0.75000  Biso   1.000  P
  P3       1.0000 0.72630  0.27370  0.25000  Biso   1.000  P
  P4       1.0000 0.77370  0.77370  0.50000  Biso   1.000  P
  P5       1.0000 0.10920  0.10920  0.50000  Biso   1.000  P
  P6       1.0000 0.39080  0.60920  0.25000  Biso   1.000  P
  P7       1.0000 0.60920  0.39080  0.75000  Biso   1.000  P
  P8       1.0000 0.89080  0.89080  0.00000  Biso   1.000  P
  F1       1.0000 0.30290  0.30290  0.00000  Biso   1.000  F
  F2       1.0000 0.19710  0.80290  0.75000  Biso   1.000  F
  F3       1.0000 0.80290  0.19710  0.25000  Biso   1.000  F
  F4       1.0000 0.69710  0.69710  0.50000  Biso   1.000  F
  F5       1.0000 0.14820  0.14820  0.00000  Biso   1.000  F
  F6       1.0000 0.35180  0.64820  0.75000  Biso   1.000  F
  F7       1.0000 0.64820  0.35180  0.25000  Biso   1.000  F
  F8       1.0000 0.85180  0.85180  0.50000  Biso   1.000  F
  F9       1.0000 0.15980  0.29120  0.96370  Biso   1.000  F
  F10      1.0000 0.20880  0.65980  0.71370  Biso   1.000  F
  F11      1.0000 0.65980  0.20880  0.28630  Biso   1.000  F
  F12      1.0000 0.84020  0.70880  0.46370  Biso   1.000  F
  F13      1.0000 0.29120  0.15980  0.03630  Biso   1.000  F
  F14      1.0000 0.79120  0.34020  0.21370  Biso   1.000  F
  F15      1.0000 0.34020  0.79120  0.78630  Biso   1.000  F
  F16      1.0000 0.70880  0.84020  0.53630  Biso   1.000  F
  F17      1.0000 0.26820  0.18270  0.94550  Biso   1.000  F
  F18      1.0000 0.31730  0.76820  0.69550  Biso   1.000  F
  F19      1.0000 0.76820  0.31730  0.30450  Biso   1.000  F
  F20      1.0000 0.73180  0.81730  0.44550  Biso   1.000  F
  F21      1.0000 0.18270  0.26820  0.05450  Biso   1.000  F
  F22      1.0000 0.68270  0.23180  0.19550  Biso   1.000  F
  F23      1.0000 0.23180  0.68270  0.80450  Biso   1.000  F
  F24      1.0000 0.81730  0.73180  0.55450  Biso   1.000  F
  F25      1.0000 0.03060  0.03060  0.50000  Biso   1.000  F
  F26      1.0000 0.46940  0.53060  0.25000  Biso   1.000  F
  F27      1.0000 0.53060  0.46940  0.75000  Biso   1.000  F
  F28      1.0000 0.96940  0.96940  0.00000  Biso   1.000  F
  F29      1.0000 0.18360  0.18360  0.50000  Biso   1.000  F
  F30      1.0000 0.31640  0.68360  0.25000  Biso   1.000  F
  F31      1.0000 0.68360  0.31640  0.75000  Biso   1.000  F
  F32      1.0000 0.81640  0.81640  0.00000  Biso   1.000  F
  F33      1.0000 0.18420  0.02900  0.49670  Biso   1.000  F
  F34      1.0000 0.47100  0.68420  0.24670  Biso   1.000  F
  F35      1.0000 0.68420  0.47100  0.75330  Biso   1.000  F
  F36      1.0000 0.81580  0.97100  0.99670  Biso   1.000  F
  F37      1.0000 0.02900  0.18420  0.50330  Biso   1.000  F
  F38      1.0000 0.52900  0.31580  0.74670  Biso   1.000  F
  F39      1.0000 0.31580  0.52900  0.25330  Biso   1.000  F
  F40      1.0000 0.97100  0.81580  0.00330  Biso   1.000  F
  F41      1.0000 0.11150  0.11150  0.56480  Biso   1.000  F
  F42      1.0000 0.38850  0.61150  0.31480  Biso   1.000  F
  F43      1.0000 0.61150  0.38850  0.68520  Biso   1.000  F
  F44      1.0000 0.88850  0.88850  0.06480  Biso   1.000  F
  F45      1.0000 0.11150  0.11150  0.43520  Biso   1.000  F
  F46      1.0000 0.61150  0.38850  0.81480  Biso   1.000  F
  F47      1.0000 0.38850  0.61150  0.18520  Biso   1.000  F
  F48      1.0000 0.88850  0.88850  0.93520  Biso   1.000  F
  O1       1.0000 0.36580  0.98070  0.09390  Biso   1.000  O
  O2       1.0000 0.51930  0.86580  0.84390  Biso   1.000  O
  O3       1.0000 0.86580  0.51930  0.15610  Biso   1.000  O
  O4       1.0000 0.63420  0.01930  0.59390  Biso   1.000  O
  O5       1.0000 0.98070  0.36580  0.90610  Biso   1.000  O
  O6       1.0000 0.48070  0.13420  0.34390  Biso   1.000  O
  O7       1.0000 0.13420  0.48070  0.65610  Biso   1.000  O
  O8       1.0000 0.01930  0.63420  0.40610  Biso   1.000  O
  O9       1.0000 0.52710  0.07890  0.06730  Biso   1.000  O
  O10      1.0000 0.42110  0.02710  0.81730  Biso   1.000  O
  O11      1.0000 0.02710  0.42110  0.18270  Biso   1.000  O
  O12      1.0000 0.47290  0.92110  0.56730  Biso   1.000  O
  O13      1.0000 0.07890  0.52710  0.93270  Biso   1.000  O
  O14      1.0000 0.57890  0.97290  0.31730  Biso   1.000  O
  O15      1.0000 0.97290  0.57890  0.68270  Biso   1.000  O
  O16      1.0000 0.92110  0.47290  0.43270  Biso   1.000  O
  N1       1.0000 0.32160  0.97000  0.98040  Biso   1.000  N
  N2       1.0000 0.53000  0.82160  0.73040  Biso   1.000  N
  N3       1.0000 0.82160  0.53000  0.26960  Biso   1.000  N
  N4       1.0000 0.67840  0.03000  0.48040  Biso   1.000  N
  N5       1.0000 0.97000  0.32160  0.01960  Biso   1.000  N
  N6       1.0000 0.47000  0.17840  0.23040  Biso   1.000  N
  N7       1.0000 0.17840  0.47000  0.76960  Biso   1.000  N
  N8       1.0000 0.03000  0.67840  0.51960  Biso   1.000  N
  N9       1.0000 0.27570  0.96190  0.09540  Biso   1.000  N
  N10      1.0000 0.53810  0.77570  0.84540  Biso   1.000  N
  N11      1.0000 0.77570  0.53810  0.15460  Biso   1.000  N
  N12      1.0000 0.72430  0.03810  0.59540  Biso   1.000  N
  N13      1.0000 0.96190  0.27570  0.90460  Biso   1.000  N
  N14      1.0000 0.46190  0.22430  0.34540  Biso   1.000  N
  N15      1.0000 0.22430  0.46190  0.65460  Biso   1.000  N
  N16      1.0000 0.03810  0.72430  0.40460  Biso   1.000  N
  N17      1.0000 0.13310  0.91070  0.07450  Biso   1.000  N
  N18      1.0000 0.58930  0.63310  0.82450  Biso   1.000  N
  N19      1.0000 0.63310  0.58930  0.17550  Biso   1.000  N
  N20      1.0000 0.86690  0.08930  0.57450  Biso   1.000  N
  N21      1.0000 0.91070  0.13310  0.92550  Biso   1.000  N
  N22      1.0000 0.41070  0.36690  0.32450  Biso   1.000  N
  N23      1.0000 0.36690  0.41070  0.67550  Biso   1.000  N
  N24      1.0000 0.08930  0.86690  0.42550  Biso   1.000  N
  N25      1.0000 0.47200  0.06820  0.95570  Biso   1.000  N
  N26      1.0000 0.43180  0.97200  0.70570  Biso   1.000  N
  N27      1.0000 0.97200  0.43180  0.29430  Biso   1.000  N
  N28      1.0000 0.52800  0.93180  0.45570  Biso   1.000  N
  N29      1.0000 0.06820  0.47200  0.04430  Biso   1.000  N
  N30      1.0000 0.56820  0.02800  0.20570  Biso   1.000  N
  N31      1.0000 0.02800  0.56820  0.79430  Biso   1.000  N
  N32      1.0000 0.93180  0.52800  0.54430  Biso   1.000  N
  N33      1.0000 0.46640  0.04550  0.86600  Biso   1.000  N
  N34      1.0000 0.45450  0.96640  0.61600  Biso   1.000  N
  N35      1.0000 0.96640  0.45450  0.38400  Biso   1.000  N
  N36      1.0000 0.53360  0.95450  0.36600  Biso   1.000  N
  N37      1.0000 0.04550  0.46640  0.13400  Biso   1.000  N
  N38      1.0000 0.54550  0.03360  0.11600  Biso   1.000  N
  N39      1.0000 0.03360  0.54550  0.88400  Biso   1.000  N
  N40      1.0000 0.95450  0.53360  0.63400  Biso   1.000  N
  C1       1.0000 0.34240  0.97250  0.92600  Biso   1.000  C
  C2       1.0000 0.52750  0.84240  0.67600  Biso   1.000  C
  C3       1.0000 0.84240  0.52750  0.32400  Biso   1.000  C
  C4       1.0000 0.65760  0.02750  0.42600  Biso   1.000  C
  C5       1.0000 0.97250  0.34240  0.07400  Biso   1.000  C
  C6       1.0000 0.47250  0.15760  0.17600  Biso   1.000  C
  C7       1.0000 0.15760  0.47250  0.82400  Biso   1.000  C
  C8       1.0000 0.02750  0.65760  0.57400  Biso   1.000  C
  C9       1.0000 0.28870  0.92850  0.88670  Biso   1.000  C
  C10      1.0000 0.57150  0.78870  0.63670  Biso   1.000  C
  C11      1.0000 0.78870  0.57150  0.36330  Biso   1.000  C
  C12      1.0000 0.71130  0.07150  0.38670  Biso   1.000  C
  C13      1.0000 0.92850  0.28870  0.11330  Biso   1.000  C
  C14      1.0000 0.42850  0.21130  0.13670  Biso   1.000  C
  C15      1.0000 0.21130  0.42850  0.86330  Biso   1.000  C
  C16      1.0000 0.07150  0.71130  0.61330  Biso   1.000  C
  C17      1.0000 0.20660  0.88040  0.90510  Biso   1.000  C
  C18      1.0000 0.61960  0.70660  0.65510  Biso   1.000  C
  C19      1.0000 0.70660  0.61960  0.34490  Biso   1.000  C
  C20      1.0000 0.79340  0.11960  0.40510  Biso   1.000  C
  C21      1.0000 0.88040  0.20660  0.09490  Biso   1.000  C
  C22      1.0000 0.38040  0.29340  0.15510  Biso   1.000  C
  C23      1.0000 0.29340  0.38040  0.84490  Biso   1.000  C
  C24      1.0000 0.11960  0.79340  0.59490  Biso   1.000  C
  C25      1.0000 0.18410  0.87900  0.96110  Biso   1.000  C
  C26      1.0000 0.62100  0.68410  0.71110  Biso   1.000  C
  C27      1.0000 0.68410  0.62100  0.28890  Biso   1.000  C
  C28      1.0000 0.81590  0.12100  0.46110  Biso   1.000  C
  C29      1.0000 0.87900  0.18410  0.03890  Biso   1.000  C
  C30      1.0000 0.37900  0.31590  0.21110  Biso   1.000  C
  C31      1.0000 0.31590  0.37900  0.78890  Biso   1.000  C
  C32      1.0000 0.12100  0.81590  0.53890  Biso   1.000  C
  C33      1.0000 0.24550  0.92770  0.99680  Biso   1.000  C
  C34      1.0000 0.57230  0.74550  0.74680  Biso   1.000  C
  C35      1.0000 0.74550  0.57230  0.25320  Biso   1.000  C
  C36      1.0000 0.75450  0.07230  0.49680  Biso   1.000  C
  C37      1.0000 0.92770  0.24550  0.00320  Biso   1.000  C
  C38      1.0000 0.42770  0.25450  0.24680  Biso   1.000  C
  C39      1.0000 0.25450  0.42770  0.75320  Biso   1.000  C
  C40      1.0000 0.07230  0.75450  0.50320  Biso   1.000  C
  C41      1.0000 0.22120  0.93390  0.05640  Biso   1.000  C
  C42      1.0000 0.56610  0.72120  0.80640  Biso   1.000  C
  C43      1.0000 0.72120  0.56610  0.19360  Biso   1.000  C
  C44      1.0000 0.77880  0.06610  0.55640  Biso   1.000  C
  C45      1.0000 0.93390  0.22120  0.94360  Biso   1.000  C
  C46      1.0000 0.43390  0.27880  0.30640  Biso   1.000  C
  C47      1.0000 0.27880  0.43390  0.69360  Biso   1.000  C
  C48      1.0000 0.06610  0.77880  0.44360  Biso   1.000  C
  C49      1.0000 0.22990  0.94880  0.15110  Biso   1.000  C
  C50      1.0000 0.55120  0.72990  0.90110  Biso   1.000  C
  C51      1.0000 0.72990  0.55120  0.09890  Biso   1.000  C
  C52      1.0000 0.77010  0.05120  0.65110  Biso   1.000  C
  C53      1.0000 0.94880  0.22990  0.84890  Biso   1.000  C
  C54      1.0000 0.44880  0.27010  0.40110  Biso   1.000  C
  C55      1.0000 0.27010  0.44880  0.59890  Biso   1.000  C
  C56      1.0000 0.05120  0.77010  0.34890  Biso   1.000  C
  C57      1.0000 0.12340  0.95160  0.13230  Biso   1.000  C
  C58      1.0000 0.54840  0.62340  0.88230  Biso   1.000  C
  C59      1.0000 0.62340  0.54840  0.11770  Biso   1.000  C
  C60      1.0000 0.87660  0.04840  0.63230  Biso   1.000  C
  C61      1.0000 0.95160  0.12340  0.86770  Biso   1.000  C
  C62      1.0000 0.45160  0.37660  0.38230  Biso   1.000  C
  C63      1.0000 0.37660  0.45160  0.61770  Biso   1.000  C
  C64      1.0000 0.04840  0.87660  0.36770  Biso   1.000  C
  C65      1.0000 0.26110  0.85480  0.17300  Biso   1.000  C
  C66      1.0000 0.64520  0.76110  0.92300  Biso   1.000  C
  C67      1.0000 0.76110  0.64520  0.07700  Biso   1.000  C
  C68      1.0000 0.73890  0.14520  0.67300  Biso   1.000  C
  C69      1.0000 0.85480  0.26110  0.82700  Biso   1.000  C
  C70      1.0000 0.35480  0.23890  0.42300  Biso   1.000  C
  C71      1.0000 0.23890  0.35480  0.57700  Biso   1.000  C
  C72      1.0000 0.14520  0.73890  0.32700  Biso   1.000  C
  C73      1.0000 0.25800  0.03000  0.18790  Biso   1.000  C
  C74      1.0000 0.47000  0.75800  0.93790  Biso   1.000  C
  C75      1.0000 0.75800  0.47000  0.06210  Biso   1.000  C
  C76      1.0000 0.74200  0.97000  0.68790  Biso   1.000  C
  C77      1.0000 0.03000  0.25800  0.81210  Biso   1.000  C
  C78      1.0000 0.53000  0.24200  0.43790  Biso   1.000  C
  C79      1.0000 0.24200  0.53000  0.56210  Biso   1.000  C
  C80      1.0000 0.97000  0.74200  0.31210  Biso   1.000  C
  C81      1.0000 0.06060  0.88900  0.16560  Biso   1.000  C
  C82      1.0000 0.61100  0.56060  0.91560  Biso   1.000  C
  C83      1.0000 0.56060  0.61100  0.08440  Biso   1.000  C
  C84      1.0000 0.93940  0.11100  0.66560  Biso   1.000  C
  C85      1.0000 0.88900  0.06060  0.83440  Biso   1.000  C
  C86      1.0000 0.38900  0.43940  0.41560  Biso   1.000  C
  C87      1.0000 0.43940  0.38900  0.58440  Biso   1.000  C
  C88      1.0000 0.11100  0.93940  0.33440  Biso   1.000  C
  C89      1.0000 0.08100  0.05100  0.12690  Biso   1.000  C
  C90      1.0000 0.44900  0.58100  0.87690  Biso   1.000  C
  C91      1.0000 0.58100  0.44900  0.12310  Biso   1.000  C
  C92      1.0000 0.91900  0.94900  0.62690  Biso   1.000  C
  C93      1.0000 0.05100  0.08100  0.87310  Biso   1.000  C
  C94      1.0000 0.55100  0.41900  0.37690  Biso   1.000  C
  C95      1.0000 0.41900  0.55100  0.62310  Biso   1.000  C
  C96      1.0000 0.94900  0.91900  0.37310  Biso   1.000  C
  C97      1.0000 0.42570  0.02630  0.91500  Biso   1.000  C
  C98      1.0000 0.47370  0.92570  0.66500  Biso   1.000  C
  C99      1.0000 0.92570  0.47370  0.33500  Biso   1.000  C
  C100     1.0000 0.57430  0.97370  0.41500  Biso   1.000  C
  C101     1.0000 0.02630  0.42570  0.08500  Biso   1.000  C
  C102     1.0000 0.52630  0.07430  0.16500  Biso   1.000  C
  C103     1.0000 0.07430  0.52630  0.83500  Biso   1.000  C
  C104     1.0000 0.97370  0.57430  0.58500  Biso   1.000  C
  C105     1.0000 0.55730  0.11450  0.93480  Biso   1.000  C
  C106     1.0000 0.38550  0.05730  0.68480  Biso   1.000  C
  C107     1.0000 0.05730  0.38550  0.31520  Biso   1.000  C
  C108     1.0000 0.44270  0.88550  0.43480  Biso   1.000  C
  C109     1.0000 0.11450  0.55730  0.06520  Biso   1.000  C
  C110     1.0000 0.61450  0.94270  0.18480  Biso   1.000  C
  C111     1.0000 0.94270  0.61450  0.81520  Biso   1.000  C
  C112     1.0000 0.88550  0.44270  0.56520  Biso   1.000  C
  C113     1.0000 0.52470  0.13000  0.87080  Biso   1.000  C
  C114     1.0000 0.37000  0.02470  0.62080  Biso   1.000  C
  C115     1.0000 0.02470  0.37000  0.37920  Biso   1.000  C
  C116     1.0000 0.47530  0.87000  0.37080  Biso   1.000  C
  C117     1.0000 0.13000  0.52470  0.12920  Biso   1.000  C
  C118     1.0000 0.63000  0.97530  0.12080  Biso   1.000  C
  C119     1.0000 0.97530  0.63000  0.87920  Biso   1.000  C
  C120     1.0000 0.87000  0.47530  0.62920  Biso   1.000  C
  C121     1.0000 0.63830  0.05050  0.94140  Biso   1.000  C
  C122     1.0000 0.44950  0.13830  0.69140  Biso   1.000  C
  C123     1.0000 0.13830  0.44950  0.30860  Biso   1.000  C
  C124     1.0000 0.36170  0.94950  0.44140  Biso   1.000  C
  C125     1.0000 0.05050  0.63830  0.05860  Biso   1.000  C
  C126     1.0000 0.55050  0.86170  0.19140  Biso   1.000  C
  C127     1.0000 0.86170  0.55050  0.80860  Biso   1.000  C
  C128     1.0000 0.94950  0.36170  0.55860  Biso   1.000  C
  C129     1.0000 0.57120  0.20950  0.96280  Biso   1.000  C
  C130     1.0000 0.29050  0.07120  0.71280  Biso   1.000  C
  C131     1.0000 0.07120  0.29050  0.28720  Biso   1.000  C
  C132     1.0000 0.42880  0.79050  0.46280  Biso   1.000  C
  C133     1.0000 0.20950  0.57120  0.03720  Biso   1.000  C
  C134     1.0000 0.70950  0.92880  0.21280  Biso   1.000  C
  C135     1.0000 0.92880  0.70950  0.78720  Biso   1.000  C
  C136     1.0000 0.79050  0.42880  0.53720  Biso   1.000  C
  C137     1.0000 0.60860  0.12050  0.83030  Biso   1.000  C
  C138     1.0000 0.37950  0.10860  0.58030  Biso   1.000  C
  C139     1.0000 0.10860  0.37950  0.41970  Biso   1.000  C
  C140     1.0000 0.39140  0.87950  0.33030  Biso   1.000  C
  C141     1.0000 0.12050  0.60860  0.16970  Biso   1.000  C
  C142     1.0000 0.62050  0.89140  0.08030  Biso   1.000  C
  C143     1.0000 0.89140  0.62050  0.91970  Biso   1.000  C
  C144     1.0000 0.87950  0.39140  0.66970  Biso   1.000  C
  C145     1.0000 0.46760  0.21510  0.86100  Biso   1.000  C
  C146     1.0000 0.28490  0.96760  0.61100  Biso   1.000  C
  C147     1.0000 0.96760  0.28490  0.38900  Biso   1.000  C
  C148     1.0000 0.53240  0.78490  0.36100  Biso   1.000  C
  C149     1.0000 0.21510  0.46760  0.13900  Biso   1.000  C
  C150     1.0000 0.71510  0.03240  0.11100  Biso   1.000  C
  C151     1.0000 0.03240  0.71510  0.88900  Biso   1.000  C
  C152     1.0000 0.78490  0.53240  0.63900  Biso   1.000  C
