data_image0
_cell_length_a       16.6272
_cell_length_b       20.0062
_cell_length_c       20.7656
_cell_angle_alpha    110.938
_cell_angle_beta     106.381
_cell_angle_gamma    102.628

_symmetry_space_group_name_H-M    "P 1"
_symmetry_int_tables_number       1

loop_
  _symmetry_equiv_pos_as_xyz
  'x, y, z'

loop_
  _atom_site_label
  _atom_site_occupancy
  _atom_site_fract_x
  _atom_site_fract_y
  _atom_site_fract_z
  _atom_site_thermal_displace_type
  _atom_site_B_iso_or_equiv
  _atom_site_type_symbol
  Cu1      1.0000 0.63517  0.21186  0.20415  Biso   1.000  Cu
  Cu2      1.0000 0.36483  0.78814  0.79585  Biso   1.000  Cu
  Cu3      1.0000 0.76644  0.19108  0.28969  Biso   1.000  Cu
  Cu4      1.0000 0.23356  0.80892  0.71031  Biso   1.000  Cu
  O1       1.0000 0.65826  0.29960  0.29620  Biso   1.000  O
  O2       1.0000 0.34174  0.70040  0.70380  Biso   1.000  O
  O3       1.0000 0.74634  0.26416  0.37150  Biso   1.000  O
  O4       1.0000 0.25366  0.73584  0.62850  Biso   1.000  O
  O5       1.0000 0.76241  0.12101  0.19412  Biso   1.000  O
  O6       1.0000 0.23759  0.87899  0.80588  Biso   1.000  O
  O7       1.0000 0.56060  0.14346  0.23054  Biso   1.000  O
  O8       1.0000 0.43940  0.85654  0.76946  Biso   1.000  O
  O9       1.0000 0.84185  0.28025  0.28744  Biso   1.000  O
  O10      1.0000 0.15815  0.71975  0.71256  Biso   1.000  O
  O11      1.0000 0.63287  0.12302  0.12338  Biso   1.000  O
  O12      1.0000 0.36713  0.87698  0.87662  Biso   1.000  O
  O13      1.0000 0.75343  0.56425  0.67767  Biso   1.000  O
  O14      1.0000 0.24657  0.43575  0.32233  Biso   1.000  O
  O15      1.0000 0.73066  0.28064  0.19539  Biso   1.000  O
  O16      1.0000 0.26934  0.71936  0.80461  Biso   1.000  O
  O17      1.0000 0.67134  0.10715  0.28196  Biso   1.000  O
  O18      1.0000 0.32866  0.89285  0.71804  Biso   1.000  O
  O19      1.0000 0.25835  0.85685  0.23674  Biso   1.000  O
  O20      1.0000 0.74165  0.14315  0.76326  Biso   1.000  O
  O21      1.0000 0.01197  0.60263  0.21588  Biso   1.000  O
  O22      1.0000 0.98803  0.39737  0.78412  Biso   1.000  O
  O23      1.0000 0.69326  0.79117  0.88908  Biso   1.000  O
  O24      1.0000 0.30674  0.20883  0.11092  Biso   1.000  O
  O25      1.0000 0.52908  0.22343  0.12530  Biso   1.000  O
  O26      1.0000 0.47092  0.77657  0.87470  Biso   1.000  O
  H1       1.0000 0.52270  0.26650  0.13530  Biso   1.000  H
  H2       1.0000 0.47730  0.73350  0.86470  Biso   1.000  H
  H3       1.0000 0.49800  0.19270  0.07410  Biso   1.000  H
  H4       1.0000 0.50200  0.80730  0.92590  Biso   1.000  H
  O27      1.0000 0.87680  0.17682  0.35757  Biso   1.000  O
  O28      1.0000 0.12320  0.82318  0.64243  Biso   1.000  O
  H5       1.0000 0.90300  0.19840  0.40760  Biso   1.000  H
  H6       1.0000 0.09700  0.80160  0.59240  Biso   1.000  H
  H7       1.0000 0.90830  0.14820  0.34240  Biso   1.000  H
  H8       1.0000 0.09170  0.85180  0.65760  Biso   1.000  H
  C1       1.0000 0.19570  0.79330  0.23080  Biso   1.000  C
  C2       1.0000 0.80430  0.20670  0.76920  Biso   1.000  C
  C3       1.0000 0.31790  0.66730  0.22640  Biso   1.000  C
  C4       1.0000 0.68210  0.33270  0.77360  Biso   1.000  C
  C5       1.0000 0.63000  0.01042  0.99401  Biso   1.000  C
  C6       1.0000 0.37000  0.98958  0.00599  Biso   1.000  C
  H9       1.0000 0.58700  0.03320  0.98790  Biso   1.000  H
  H10      1.0000 0.41300  0.96680  0.01210  Biso   1.000  H
  C7       1.0000 0.49510  0.53800  0.67155  Biso   1.000  C
  C8       1.0000 0.50490  0.46200  0.32845  Biso   1.000  C
  C9       1.0000 0.16070  0.58516  0.16615  Biso   1.000  C
  C10      1.0000 0.83930  0.41484  0.83385  Biso   1.000  C
  H11      1.0000 0.11650  0.54030  0.16130  Biso   1.000  H
  H12      1.0000 0.88350  0.45970  0.83870  Biso   1.000  H
  C11      1.0000 0.81020  0.30817  0.24350  Biso   1.000  C
  C12      1.0000 0.18980  0.69183  0.75650  Biso   1.000  C
  C13      1.0000 0.27620  0.70330  0.17883  Biso   1.000  C
  C14      1.0000 0.72380  0.29670  0.82117  Biso   1.000  C
  H13      1.0000 0.32050  0.74830  0.18390  Biso   1.000  H
  H14      1.0000 0.67950  0.25170  0.81610  Biso   1.000  H
  C15      1.0000 0.76050  0.58058  0.61819  Biso   1.000  C
  C16      1.0000 0.23950  0.41942  0.38181  Biso   1.000  C
  H15      1.0000 0.81930  0.61820  0.63500  Biso   1.000  H
  H16      1.0000 0.18070  0.38180  0.36500  Biso   1.000  H
  H17      1.0000 0.71570  0.60190  0.60290  Biso   1.000  H
  H18      1.0000 0.28430  0.39810  0.39710  Biso   1.000  H
  C17      1.0000 0.52610  0.68099  0.66732  Biso   1.000  C
  C18      1.0000 0.47390  0.31901  0.33268  Biso   1.000  C
  C19      1.0000 0.98220  0.51910  0.27170  Biso   1.000  C
  C20      1.0000 0.01780  0.48090  0.72830  Biso   1.000  C
  C21      1.0000 0.53280  0.62050  0.54800  Biso   1.000  C
  C22      1.0000 0.46720  0.37950  0.45200  Biso   1.000  C
  H19      1.0000 0.54120  0.58090  0.51330  Biso   1.000  H
  H20      1.0000 0.45880  0.41910  0.48670  Biso   1.000  H
  C23      1.0000 0.95900  0.75620  0.02060  Biso   1.000  C
  C24      1.0000 0.04100  0.24380  0.97940  Biso   1.000  C
  H21      1.0000 0.94790  0.79200  0.05690  Biso   1.000  H
  H22      1.0000 0.05210  0.20800  0.94310  Biso   1.000  H
  C25      1.0000 0.75700  0.99940  0.07260  Biso   1.000  C
  C26      1.0000 0.24300  0.00060  0.92740  Biso   1.000  C
  H23      1.0000 0.80010  0.01450  0.11980  Biso   1.000  H
  H24      1.0000 0.19990  0.98550  0.88020  Biso   1.000  H
  C27      1.0000 0.96080  0.90210  0.89500  Biso   1.000  C
  C28      1.0000 0.03920  0.09790  0.10500  Biso   1.000  C
  H25      1.0000 0.95020  0.93830  0.93120  Biso   1.000  H
  H26      1.0000 0.04980  0.06170  0.06880  Biso   1.000  H
  C29      1.0000 0.44150  0.05570  0.26580  Biso   1.000  C
  C30      1.0000 0.55850  0.94430  0.73420  Biso   1.000  C
  H27      1.0000 0.42570  0.09180  0.25190  Biso   1.000  H
  H28      1.0000 0.57430  0.90820  0.74810  Biso   1.000  H
  C31      1.0000 0.04300  0.81630  0.35360  Biso   1.000  C
  C32      1.0000 0.95700  0.18370  0.64640  Biso   1.000  C
  C33      1.0000 0.01760  0.47669  0.30340  Biso   1.000  C
  C34      1.0000 0.98240  0.52331  0.69660  Biso   1.000  C
  H29      1.0000 0.07920  0.49390  0.33050  Biso   1.000  H
  H30      1.0000 0.92080  0.50610  0.66950  Biso   1.000  H
  C35      1.0000 0.49860  0.73470  0.58220  Biso   1.000  C
  C36      1.0000 0.50140  0.26530  0.41780  Biso   1.000  C
  H31      1.0000 0.48450  0.77260  0.57050  Biso   1.000  H
  H32      1.0000 0.51550  0.22740  0.42950  Biso   1.000  H
  C37      1.0000 0.11050  0.87590  0.28830  Biso   1.000  C
  C38      1.0000 0.88950  0.12410  0.71170  Biso   1.000  C
  H33      1.0000 0.15510  0.92110  0.29410  Biso   1.000  H
  H34      1.0000 0.84490  0.07890  0.70590  Biso   1.000  H
  C39      1.0000 0.95130  0.79740  0.23230  Biso   1.000  C
  C40      1.0000 0.04870  0.20260  0.76770  Biso   1.000  C
  C41      1.0000 0.83650  0.42230  0.21978  Biso   1.000  C
  C42      1.0000 0.16350  0.57770  0.78022  Biso   1.000  C
  H35      1.0000 0.77550  0.40360  0.19010  Biso   1.000  H
  H36      1.0000 0.22450  0.59640  0.80990  Biso   1.000  H
  C43      1.0000 0.89120  0.49240  0.22980  Biso   1.000  C
  C44      1.0000 0.10880  0.50760  0.77020  Biso   1.000  C
  H37      1.0000 0.86640  0.52060  0.20840  Biso   1.000  H
  H38      1.0000 0.13360  0.47940  0.79160  Biso   1.000  H
  C45      1.0000 0.99260  0.75570  0.27320  Biso   1.000  C
  C46      1.0000 0.00740  0.24430  0.72680  Biso   1.000  C
  H39      1.0000 0.94820  0.71050  0.26760  Biso   1.000  H
  H40      1.0000 0.05180  0.28950  0.73240  Biso   1.000  H
  C47      1.0000 0.40750  0.69170  0.27170  Biso   1.000  C
  C48      1.0000 0.59250  0.30830  0.72830  Biso   1.000  C
  H41      1.0000 0.44970  0.73320  0.27500  Biso   1.000  H
  H42      1.0000 0.55030  0.26680  0.72500  Biso   1.000  H
  C49      1.0000 0.38050  0.44710  0.67540  Biso   1.000  C
  C50      1.0000 0.61950  0.55290  0.32460  Biso   1.000  C
  H43      1.0000 0.34560  0.39630  0.65860  Biso   1.000  H
  H44      1.0000 0.65440  0.60370  0.34140  Biso   1.000  H
  C51      1.0000 0.42070  0.58080  0.75370  Biso   1.000  C
  C52      1.0000 0.57930  0.41920  0.24630  Biso   1.000  C
  H45      1.0000 0.41370  0.62010  0.79000  Biso   1.000  H
  H46      1.0000 0.58630  0.37990  0.21000  Biso   1.000  H
  C53      1.0000 0.24860  0.63960  0.03750  Biso   1.000  C
  C54      1.0000 0.75140  0.36040  0.96250  Biso   1.000  C
  H47      1.0000 0.29130  0.68180  0.04220  Biso   1.000  H
  H48      1.0000 0.70870  0.31820  0.95780  Biso   1.000  H
  C55      1.0000 0.70690  0.30836  0.36020  Biso   1.000  C
  C56      1.0000 0.29310  0.69164  0.63980  Biso   1.000  C
  C57      1.0000 0.01290  0.86180  0.23980  Biso   1.000  C
  C58      1.0000 0.98710  0.13820  0.76020  Biso   1.000  C
  C59      1.0000 0.75580  0.94260  0.01060  Biso   1.000  C
  C60      1.0000 0.24420  0.05740  0.98940  Biso   1.000  C
  H49      1.0000 0.79900  0.92010  0.01680  Biso   1.000  H
  H50      1.0000 0.20100  0.07990  0.98320  Biso   1.000  H
  C61      1.0000 0.33590  0.89650  0.30740  Biso   1.000  C
  C62      1.0000 0.66410  0.10350  0.69260  Biso   1.000  C
  H51      1.0000 0.36030  0.86050  0.31920  Biso   1.000  H
  H52      1.0000 0.63970  0.13950  0.68080  Biso   1.000  H
  H53      1.0000 0.31980  0.92420  0.34780  Biso   1.000  H
  H54      1.0000 0.68020  0.07580  0.65220  Biso   1.000  H
  C63      1.0000 0.98690  0.90790  0.20890  Biso   1.000  C
  C64      1.0000 0.01310  0.09210  0.79110  Biso   1.000  C
  H55      1.0000 0.02930  0.95180  0.21620  Biso   1.000  H
  H56      1.0000 0.97070  0.04820  0.78380  Biso   1.000  H
  C65      1.0000 0.51300  0.67810  0.53120  Biso   1.000  C
  C66      1.0000 0.48700  0.32190  0.46880  Biso   1.000  C
  H57      1.0000 0.50970  0.67790  0.48570  Biso   1.000  H
  H58      1.0000 0.49030  0.32210  0.51430  Biso   1.000  H
  C67      1.0000 0.99420  0.79520  0.78640  Biso   1.000  C
  C68      1.0000 0.00580  0.20480  0.21360  Biso   1.000  C
  H59      1.0000 0.00500  0.75960  0.74980  Biso   1.000  H
  H60      1.0000 0.99500  0.24040  0.25020  Biso   1.000  H
  C69      1.0000 0.12060  0.51240  0.02200  Biso   1.000  C
  C70      1.0000 0.87940  0.48760  0.97800  Biso   1.000  C
  H61      1.0000 0.07780  0.46970  0.01630  Biso   1.000  H
  H62      1.0000 0.92220  0.53030  0.98370  Biso   1.000  H
  C71      1.0000 0.48450  0.94470  0.30100  Biso   1.000  C
  C72      1.0000 0.51550  0.05530  0.69900  Biso   1.000  C
  H63      1.0000 0.49890  0.90600  0.31080  Biso   1.000  H
  H64      1.0000 0.50110  0.09400  0.68920  Biso   1.000  H
  C73      1.0000 0.54600  0.99440  0.29080  Biso   1.000  C
  C74      1.0000 0.45400  0.00560  0.70920  Biso   1.000  C
  H65      1.0000 0.60200  0.99040  0.29620  Biso   1.000  H
  H66      1.0000 0.39800  0.00960  0.70380  Biso   1.000  H
  C75      1.0000 0.36940  0.59040  0.30780  Biso   1.000  C
  C76      1.0000 0.63060  0.40960  0.69220  Biso   1.000  C
  H67      1.0000 0.38620  0.56540  0.33660  Biso   1.000  H
  H68      1.0000 0.61380  0.43460  0.66340  Biso   1.000  H
  C77      1.0000 0.10670  0.88040  0.36290  Biso   1.000  C
  C78      1.0000 0.89330  0.11960  0.63710  Biso   1.000  C
  C79      1.0000 0.02500  0.66040  0.98460  Biso   1.000  C
  C80      1.0000 0.97500  0.33960  0.01540  Biso   1.000  C
  H69      1.0000 0.05890  0.63240  0.99760  Biso   1.000  H
  H70      1.0000 0.94110  0.36760  0.00240  Biso   1.000  H
  C81      1.0000 0.13910  0.51370  0.96230  Biso   1.000  C
  C82      1.0000 0.86090  0.48630  0.03770  Biso   1.000  C
  H71      1.0000 0.10850  0.47120  0.91560  Biso   1.000  H
  H72      1.0000 0.89150  0.52880  0.08440  Biso   1.000  H
  C83      1.0000 0.20200  0.57670  0.96960  Biso   1.000  C
  C84      1.0000 0.79800  0.42330  0.03040  Biso   1.000  C
  H73      1.0000 0.21270  0.57620  0.92790  Biso   1.000  H
  H74      1.0000 0.78730  0.42380  0.07210  Biso   1.000  H
  C85      1.0000 0.36930  0.50460  0.72930  Biso   1.000  C
  C86      1.0000 0.63070  0.49540  0.27070  Biso   1.000  C
  H75      1.0000 0.32770  0.49270  0.74920  Biso   1.000  H
  H76      1.0000 0.67230  0.50730  0.25080  Biso   1.000  H
  C87      1.0000 0.00640  0.71200  0.03920  Biso   1.000  C
  C88      1.0000 0.99360  0.28800  0.96080  Biso   1.000  C
  H77      1.0000 0.02550  0.71660  0.08780  Biso   1.000  H
  H78      1.0000 0.97450  0.28340  0.91220  Biso   1.000  H
  C89      1.0000 0.03090  0.81170  0.41620  Biso   1.000  C
  C90      1.0000 0.96910  0.18830  0.58380  Biso   1.000  C
  H79      1.0000 0.98770  0.76960  0.41110  Biso   1.000  H
  H80      1.0000 0.01230  0.23040  0.58890  Biso   1.000  H
  C91      1.0000 0.00510  0.92340  0.85440  Biso   1.000  C
  C92      1.0000 0.99490  0.07660  0.14560  Biso   1.000  C
  H81      1.0000 0.02410  0.97430  0.86330  Biso   1.000  H
  H82      1.0000 0.97590  0.02570  0.13670  Biso   1.000  H
  C93      1.0000 0.43300  0.65090  0.31320  Biso   1.000  C
  C94      1.0000 0.56700  0.34910  0.68680  Biso   1.000  C
  H83      1.0000 0.49290  0.66540  0.34390  Biso   1.000  H
  H84      1.0000 0.50710  0.33460  0.65610  Biso   1.000  H
  C95      1.0000 0.86280  0.77790  0.19100  Biso   1.000  C
  C96      1.0000 0.13720  0.22210  0.80900  Biso   1.000  C
  H85      1.0000 0.82060  0.73410  0.18410  Biso   1.000  H
  H86      1.0000 0.17940  0.26590  0.81590  Biso   1.000  H
  C97      1.0000 0.02170  0.86930  0.80010  Biso   1.000  C
  C98      1.0000 0.97830  0.13070  0.19990  Biso   1.000  C
  H87      1.0000 0.05190  0.88450  0.77340  Biso   1.000  H
  H88      1.0000 0.94810  0.11550  0.22660  Biso   1.000  H
  C99      1.0000 0.89710  0.88840  0.16680  Biso   1.000  C
  C100     1.0000 0.10290  0.11160  0.83320  Biso   1.000  C
  H89      1.0000 0.87880  0.91820  0.14420  Biso   1.000  H
  H90      1.0000 0.12120  0.08180  0.85580  Biso   1.000  H
  C101     1.0000 0.71990  0.44560  0.42200  Biso   1.000  C
  C102     1.0000 0.28010  0.55440  0.57800  Biso   1.000  C
  H91      1.0000 0.70980  0.44660  0.37600  Biso   1.000  H
  H92      1.0000 0.29020  0.55340  0.62400  Biso   1.000  H
  C103     1.0000 0.83540  0.82510  0.15850  Biso   1.000  C
  C104     1.0000 0.16460  0.17490  0.84150  Biso   1.000  C
  H93      1.0000 0.77480  0.81270  0.13140  Biso   1.000  H
  H94      1.0000 0.22520  0.18730  0.86860  Biso   1.000  H
  C105     1.0000 0.14800  0.93520  0.49560  Biso   1.000  C
  C106     1.0000 0.85200  0.06480  0.50440  Biso   1.000  C
  H95      1.0000 0.18220  0.97570  0.54320  Biso   1.000  H
  H96      1.0000 0.81780  0.02430  0.45680  Biso   1.000  H
  C107     1.0000 0.74720  0.50905  0.55295  Biso   1.000  C
  C108     1.0000 0.25280  0.49095  0.44705  Biso   1.000  C
  C109     1.0000 0.50440  0.73700  0.65090  Biso   1.000  C
  C110     1.0000 0.49560  0.26300  0.34910  Biso   1.000  C
  H97      1.0000 0.49400  0.77550  0.68500  Biso   1.000  H
  H98      1.0000 0.50600  0.22450  0.31500  Biso   1.000  H
  C111     1.0000 0.90900  0.69020  0.81631  Biso   1.000  C
  C112     1.0000 0.09100  0.30980  0.18369  Biso   1.000  C
  H99      1.0000 0.92030  0.65170  0.77840  Biso   1.000  H
  H100     1.0000 0.07970  0.34830  0.22160  Biso   1.000  H
  C113     1.0000 0.73100  0.37710  0.49538  Biso   1.000  C
  C114     1.0000 0.26900  0.62290  0.50462  Biso   1.000  C
  H101     1.0000 0.73060  0.33240  0.49970  Biso   1.000  H
  H102     1.0000 0.26940  0.66760  0.50030  Biso   1.000  H
  C115     1.0000 0.69650  0.09719  0.13230  Biso   1.000  C
  C116     1.0000 0.30350  0.90281  0.86770  Biso   1.000  C
  C117     1.0000 0.20330  0.72210  0.20251  Biso   1.000  C
  C118     1.0000 0.79670  0.27790  0.79749  Biso   1.000  C
  C119     1.0000 0.87040  0.38106  0.25232  Biso   1.000  C
  C120     1.0000 0.12960  0.61894  0.74768  Biso   1.000  C
  C121     1.0000 0.54120  0.67734  0.74259  Biso   1.000  C
  C122     1.0000 0.45880  0.32266  0.25741  Biso   1.000  C
  H103     1.0000 0.53100  0.71850  0.77870  Biso   1.000  H
  H104     1.0000 0.46900  0.28150  0.22130  Biso   1.000  H
  C123     1.0000 0.25560  0.60450  0.22010  Biso   1.000  C
  C124     1.0000 0.74440  0.39550  0.77990  Biso   1.000  C
  C125     1.0000 0.95010  0.77180  0.82640  Biso   1.000  C
  C126     1.0000 0.04990  0.22820  0.17360  Biso   1.000  C
  C127     1.0000 0.59000  0.10430  0.25992  Biso   1.000  C
  C128     1.0000 0.41000  0.89570  0.74008  Biso   1.000  C
  C129     1.0000 0.79230  0.73208  0.84943  Biso   1.000  C
  C130     1.0000 0.20770  0.26792  0.15057  Biso   1.000  C
  C131     1.0000 0.14060  0.65935  0.19607  Biso   1.000  C
  C132     1.0000 0.85940  0.34065  0.80393  Biso   1.000  C
  C133     1.0000 0.73830  0.62055  0.73057  Biso   1.000  C
  C134     1.0000 0.26170  0.37945  0.26943  Biso   1.000  C
  C135     1.0000 0.07200  0.66650  0.21947  Biso   1.000  C
  C136     1.0000 0.92800  0.33350  0.78053  Biso   1.000  C
  C137     1.0000 0.63720  0.67928  0.76916  Biso   1.000  C
  C138     1.0000 0.36280  0.32072  0.23084  Biso   1.000  C
  C139     1.0000 0.70910  0.73427  0.83618  Biso   1.000  C
  C140     1.0000 0.29090  0.26573  0.16382  Biso   1.000  C
  C141     1.0000 0.69380  0.03457  0.06480  Biso   1.000  C
  C142     1.0000 0.30620  0.96543  0.93520  Biso   1.000  C
  C143     1.0000 0.53980  0.62269  0.61650  Biso   1.000  C
  C144     1.0000 0.46020  0.37731  0.38350  Biso   1.000  C
  C145     1.0000 0.80900  0.67677  0.79623  Biso   1.000  C
  C146     1.0000 0.19100  0.32323  0.20377  Biso   1.000  C
  C147     1.0000 0.65120  0.62170  0.71855  Biso   1.000  C
  C148     1.0000 0.34880  0.37830  0.28145  Biso   1.000  C
  C149     1.0000 0.56720  0.56802  0.64655  Biso   1.000  C
  C150     1.0000 0.43280  0.43198  0.35345  Biso   1.000  C
  H105     1.0000 0.57800  0.52720  0.61070  Biso   1.000  H
  H106     1.0000 0.42200  0.47280  0.38930  Biso   1.000  H
  C151     1.0000 0.48200  0.59720  0.72364  Biso   1.000  C
  C152     1.0000 0.51800  0.40280  0.27636  Biso   1.000  C
  C153     1.0000 0.74300  0.44130  0.55740  Biso   1.000  C
  C154     1.0000 0.25700  0.55870  0.44260  Biso   1.000  C
  H107     1.0000 0.74830  0.43880  0.60220  Biso   1.000  H
  H108     1.0000 0.25170  0.56120  0.39780  Biso   1.000  H
  C155     1.0000 0.69350  0.85514  0.87278  Biso   1.000  C
  C156     1.0000 0.30650  0.14486  0.12722  Biso   1.000  C
  H109     1.0000 0.64090  0.84040  0.82830  Biso   1.000  H
  H110     1.0000 0.35910  0.15960  0.17170  Biso   1.000  H
  H111     1.0000 0.74650  0.87270  0.86380  Biso   1.000  H
  H112     1.0000 0.25350  0.12730  0.13620  Biso   1.000  H
  C157     1.0000 0.06220  0.73810  0.24630  Biso   1.000  C
  C158     1.0000 0.93780  0.26190  0.75370  Biso   1.000  C
  C159     1.0000 0.88030  0.79180  0.91725  Biso   1.000  C
  C160     1.0000 0.11970  0.20820  0.08275  Biso   1.000  C
  H113     1.0000 0.86940  0.82990  0.95590  Biso   1.000  H
  H114     1.0000 0.13060  0.17010  0.04410  Biso   1.000  H
  C161     1.0000 0.62940  0.95227  0.93174  Biso   1.000  C
  C162     1.0000 0.37060  0.04773  0.06826  Biso   1.000  C
  H115     1.0000 0.58600  0.93650  0.88440  Biso   1.000  H
  H116     1.0000 0.41400  0.06350  0.11560  Biso   1.000  H
  C163     1.0000 0.71980  0.37760  0.42793  Biso   1.000  C
  C164     1.0000 0.28020  0.62240  0.57207  Biso   1.000  C
  C165     1.0000 0.69300  0.91760  0.93949  Biso   1.000  C
  C166     1.0000 0.30700  0.08240  0.06051  Biso   1.000  C
  C167     1.0000 0.92820  0.74590  0.94640  Biso   1.000  C
  C168     1.0000 0.07180  0.25410  0.05360  Biso   1.000  C
  C169     1.0000 0.38140  0.00840  0.27950  Biso   1.000  C
  C170     1.0000 0.61860  0.99160  0.72050  Biso   1.000  C
  H117     1.0000 0.32700  0.01460  0.27700  Biso   1.000  H
  H118     1.0000 0.67300  0.98540  0.72300  Biso   1.000  H
  C171     1.0000 0.12620  0.80170  0.25275  Biso   1.000  C
  C172     1.0000 0.87380  0.19830  0.74725  Biso   1.000  C
  C173     1.0000 0.73490  0.50970  0.48340  Biso   1.000  C
  C174     1.0000 0.26510  0.49030  0.51660  Biso   1.000  C
  H119     1.0000 0.73700  0.55480  0.47940  Biso   1.000  H
  H120     1.0000 0.26300  0.44520  0.52060  Biso   1.000  H
  C175     1.0000 0.93270  0.82660  0.88100  Biso   1.000  C
  C176     1.0000 0.06730  0.17340  0.11900  Biso   1.000  C
  C177     1.0000 0.04240  0.59460  0.28350  Biso   1.000  C
  C178     1.0000 0.95760  0.40540  0.71650  Biso   1.000  C
  H121     1.0000 0.04060  0.63640  0.32450  Biso   1.000  H
  H122     1.0000 0.95940  0.36360  0.67550  Biso   1.000  H
  H123     1.0000 0.10380  0.59620  0.29630  Biso   1.000  H
  H124     1.0000 0.89620  0.40380  0.70370  Biso   1.000  H
  C179     1.0000 0.23160  0.63990  0.09930  Biso   1.000  C
  C180     1.0000 0.76840  0.36010  0.90070  Biso   1.000  C
  C181     1.0000 0.40260  0.95070  0.29710  Biso   1.000  C
  C182     1.0000 0.59740  0.04930  0.70290  Biso   1.000  C
  C183     1.0000 0.16060  0.93910  0.43170  Biso   1.000  C
  C184     1.0000 0.83940  0.06090  0.56830  Biso   1.000  C
  H125     1.0000 0.20470  0.98070  0.43700  Biso   1.000  H
  H126     1.0000 0.79530  0.01930  0.56300  Biso   1.000  H
  C185     1.0000 0.44270  0.46380  0.64610  Biso   1.000  C
  C186     1.0000 0.55730  0.53620  0.35390  Biso   1.000  C
  H127     1.0000 0.44900  0.42450  0.60920  Biso   1.000  H
  H128     1.0000 0.55100  0.57550  0.39080  Biso   1.000  H
  C187     1.0000 0.94510  0.69250  0.89255  Biso   1.000  C
  C188     1.0000 0.05490  0.30750  0.10745  Biso   1.000  C
  C189     1.0000 0.52420  0.05030  0.27237  Biso   1.000  C
  C190     1.0000 0.47580  0.94970  0.72763  Biso   1.000  C
  C191     1.0000 0.16760  0.57680  0.09200  Biso   1.000  C
  C192     1.0000 0.83240  0.42320  0.90800  Biso   1.000  C
  C193     1.0000 0.28190  0.56620  0.26120  Biso   1.000  C
  C194     1.0000 0.71810  0.43380  0.73880  Biso   1.000  C
  H129     1.0000 0.23990  0.52400  0.25700  Biso   1.000  H
  H130     1.0000 0.76010  0.47600  0.74300  Biso   1.000  H
  C195     1.0000 0.96210  0.40820  0.29520  Biso   1.000  C
  C196     1.0000 0.03790  0.59180  0.70480  Biso   1.000  C
  H131     1.0000 0.98620  0.38080  0.31830  Biso   1.000  H
  H132     1.0000 0.01380  0.61920  0.68170  Biso   1.000  H
  C197     1.0000 0.99480  0.65070  0.91350  Biso   1.000  C
  C198     1.0000 0.00520  0.34930  0.08650  Biso   1.000  C
  H133     1.0000 0.00740  0.61560  0.87780  Biso   1.000  H
  H134     1.0000 0.99260  0.38440  0.12220  Biso   1.000  H
  C199     1.0000 0.08670  0.87300  0.48710  Biso   1.000  C
  C200     1.0000 0.91330  0.12700  0.51290  Biso   1.000  C
  H135     1.0000 0.08110  0.87040  0.52950  Biso   1.000  H
  H136     1.0000 0.91890  0.12960  0.47050  Biso   1.000  H
