data_image0
_cell_length_a       14.899
_cell_length_b       15.565
_cell_length_c       15.638
_cell_angle_alpha    90
_cell_angle_beta     115.357
_cell_angle_gamma    90

_symmetry_space_group_name_H-M    "P 1"
_symmetry_int_tables_number       1

loop_
  _symmetry_equiv_pos_as_xyz
  'x, y, z'

loop_
  _atom_site_label
  _atom_site_occupancy
  _atom_site_fract_x
  _atom_site_fract_y
  _atom_site_fract_z
  _atom_site_thermal_displace_type
  _atom_site_B_iso_or_equiv
  _atom_site_type_symbol
  Cu1      1.0000 0.33245  0.06399  0.69033  Biso   1.000  Cu
  Cu2      1.0000 0.16755  0.56399  0.80967  Biso   1.000  Cu
  Cu3      1.0000 0.66755  0.93601  0.30967  Biso   1.000  Cu
  Cu4      1.0000 0.83245  0.43601  0.19033  Biso   1.000  Cu
  O1       1.0000 0.31000  0.12290  0.57350  Biso   1.000  O
  O2       1.0000 0.19000  0.62290  0.92650  Biso   1.000  O
  O3       1.0000 0.69000  0.87710  0.42650  Biso   1.000  O
  O4       1.0000 0.81000  0.37710  0.07350  Biso   1.000  O
  C1       1.0000 0.22880  0.19420  0.42800  Biso   1.000  C
  C2       1.0000 0.27120  0.69420  0.07200  Biso   1.000  C
  C3       1.0000 0.77120  0.80580  0.57200  Biso   1.000  C
  C4       1.0000 0.72880  0.30580  0.92800  Biso   1.000  C
  F1       1.0000 0.25500  0.14190  0.37900  Biso   1.000  F
  F2       1.0000 0.24500  0.64190  0.12100  Biso   1.000  F
  F3       1.0000 0.74500  0.85810  0.62100  Biso   1.000  F
  F4       1.0000 0.75500  0.35810  0.87900  Biso   1.000  F
  F5       1.0000 0.29000  0.25530  0.44940  Biso   1.000  F
  F6       1.0000 0.21000  0.75530  0.05060  Biso   1.000  F
  F7       1.0000 0.71000  0.74470  0.55060  Biso   1.000  F
  F8       1.0000 0.79000  0.24470  0.94940  Biso   1.000  F
  F9       1.0000 0.14270  0.22700  0.37000  Biso   1.000  F
  F10      1.0000 0.35730  0.72700  0.13000  Biso   1.000  F
  F11      1.0000 0.85730  0.77300  0.63000  Biso   1.000  F
  F12      1.0000 0.64270  0.27300  0.87000  Biso   1.000  F
  F13      1.0000 0.18100  0.15400  0.35700  Biso   1.000  F
  F14      1.0000 0.31900  0.65400  0.14300  Biso   1.000  F
  F15      1.0000 0.81900  0.84600  0.64300  Biso   1.000  F
  F16      1.0000 0.68100  0.34600  0.85700  Biso   1.000  F
  F17      1.0000 0.18900  0.26600  0.41800  Biso   1.000  F
  F18      1.0000 0.31100  0.76600  0.08200  Biso   1.000  F
  F19      1.0000 0.81100  0.73400  0.58200  Biso   1.000  F
  F20      1.0000 0.68900  0.23400  0.91800  Biso   1.000  F
  F21      1.0000 0.31000  0.20600  0.43200  Biso   1.000  F
  F22      1.0000 0.19000  0.70600  0.06800  Biso   1.000  F
  F23      1.0000 0.69000  0.79400  0.56800  Biso   1.000  F
  F24      1.0000 0.81000  0.29400  0.93200  Biso   1.000  F
  C5       1.0000 0.22900  0.14940  0.51650  Biso   1.000  C
  C6       1.0000 0.27100  0.64940  0.98350  Biso   1.000  C
  C7       1.0000 0.77100  0.85060  0.48350  Biso   1.000  C
  C8       1.0000 0.72900  0.35060  0.01650  Biso   1.000  C
  C9       1.0000 0.13950  0.14550  0.52210  Biso   1.000  C
  C10      1.0000 0.36050  0.64550  0.97790  Biso   1.000  C
  C11      1.0000 0.86050  0.85450  0.47790  Biso   1.000  C
  C12      1.0000 0.63950  0.35450  0.02210  Biso   1.000  C
  H1       1.0000 0.09500  0.15600  0.47900  Biso   1.000  H
  H2       1.0000 0.40500  0.65600  0.02100  Biso   1.000  H
  H3       1.0000 0.90500  0.84400  0.52100  Biso   1.000  H
  H4       1.0000 0.59500  0.34400  0.97900  Biso   1.000  H
  C13      1.0000 0.12890  0.10380  0.59680  Biso   1.000  C
  C14      1.0000 0.37110  0.60380  0.90320  Biso   1.000  C
  C15      1.0000 0.87110  0.89620  0.40320  Biso   1.000  C
  C16      1.0000 0.62890  0.39620  0.09680  Biso   1.000  C
  C17      1.0000 0.02830  0.10560  0.59970  Biso   1.000  C
  C18      1.0000 0.47170  0.60560  0.90030  Biso   1.000  C
  C19      1.0000 0.97170  0.89440  0.40030  Biso   1.000  C
  C20      1.0000 0.52830  0.39440  0.09970  Biso   1.000  C
  F25      1.0000 0.96190  0.14710  0.53430  Biso   1.000  F
  F26      1.0000 0.53810  0.64710  0.96570  Biso   1.000  F
  F27      1.0000 0.03810  0.85290  0.46570  Biso   1.000  F
  F28      1.0000 0.46190  0.35290  0.03430  Biso   1.000  F
  F29      1.0000 0.03350  0.13600  0.67730  Biso   1.000  F
  F30      1.0000 0.46650  0.63600  0.82270  Biso   1.000  F
  F31      1.0000 0.96650  0.86400  0.32270  Biso   1.000  F
  F32      1.0000 0.53350  0.36400  0.17730  Biso   1.000  F
  F33      1.0000 0.99440  0.02820  0.59770  Biso   1.000  F
  F34      1.0000 0.50560  0.52820  0.90230  Biso   1.000  F
  F35      1.0000 0.00560  0.97180  0.40230  Biso   1.000  F
  F36      1.0000 0.49440  0.47180  0.09770  Biso   1.000  F
  O5       1.0000 0.19320  0.06670  0.66440  Biso   1.000  O
  O6       1.0000 0.30680  0.56670  0.83560  Biso   1.000  O
  O7       1.0000 0.80680  0.93330  0.33560  Biso   1.000  O
  O8       1.0000 0.69320  0.43330  0.16440  Biso   1.000  O
  O9       1.0000 0.47220  0.05770  0.71930  Biso   1.000  O
  O10      1.0000 0.02780  0.55770  0.78070  Biso   1.000  O
  O11      1.0000 0.52780  0.94230  0.28070  Biso   1.000  O
  O12      1.0000 0.97220  0.44230  0.21930  Biso   1.000  O
  C21      1.0000 0.63950  0.02020  0.79240  Biso   1.000  C
  C22      1.0000 0.86050  0.52020  0.70760  Biso   1.000  C
  C23      1.0000 0.36050  0.97980  0.20760  Biso   1.000  C
  C24      1.0000 0.13950  0.47980  0.29240  Biso   1.000  C
  F37      1.0000 0.70900  0.99000  0.86600  Biso   1.000  F
  F38      1.0000 0.79100  0.49000  0.63400  Biso   1.000  F
  F39      1.0000 0.29100  0.01000  0.13400  Biso   1.000  F
  F40      1.0000 0.20900  0.51000  0.36600  Biso   1.000  F
  F41      1.0000 0.63700  0.97400  0.71400  Biso   1.000  F
  F42      1.0000 0.86300  0.47400  0.78600  Biso   1.000  F
  F43      1.0000 0.36300  0.02600  0.28600  Biso   1.000  F
  F44      1.0000 0.13700  0.52600  0.21400  Biso   1.000  F
  F45      1.0000 0.66480  0.09790  0.77300  Biso   1.000  F
  F46      1.0000 0.83520  0.59790  0.72700  Biso   1.000  F
  F47      1.0000 0.33520  0.90210  0.22700  Biso   1.000  F
  F48      1.0000 0.16480  0.40210  0.27300  Biso   1.000  F
  F49      1.0000 0.67100  0.96000  0.76400  Biso   1.000  F
  F50      1.0000 0.82900  0.46000  0.73600  Biso   1.000  F
  F51      1.0000 0.32900  0.04000  0.23600  Biso   1.000  F
  F52      1.0000 0.17100  0.54000  0.26400  Biso   1.000  F
  F53      1.0000 0.64900  0.09200  0.75500  Biso   1.000  F
  F54      1.0000 0.85100  0.59200  0.74500  Biso   1.000  F
  F55      1.0000 0.35100  0.90800  0.24500  Biso   1.000  F
  F56      1.0000 0.14900  0.40800  0.25500  Biso   1.000  F
  F57      1.0000 0.70200  0.02800  0.88400  Biso   1.000  F
  F58      1.0000 0.79800  0.52800  0.61600  Biso   1.000  F
  F59      1.0000 0.29800  0.97200  0.11600  Biso   1.000  F
  F60      1.0000 0.20200  0.47200  0.38400  Biso   1.000  F
  C25      1.0000 0.53530  0.01320  0.78530  Biso   1.000  C
  C26      1.0000 0.96470  0.51320  0.71470  Biso   1.000  C
  C27      1.0000 0.46470  0.98680  0.21470  Biso   1.000  C
  C28      1.0000 0.03530  0.48680  0.28530  Biso   1.000  C
  C29      1.0000 0.51720  0.96030  0.84700  Biso   1.000  C
  C30      1.0000 0.98280  0.46030  0.65300  Biso   1.000  C
  C31      1.0000 0.48280  0.03970  0.15300  Biso   1.000  C
  C32      1.0000 0.01720  0.53970  0.34700  Biso   1.000  C
  H5       1.0000 0.56100  0.92300  0.88500  Biso   1.000  H
  H6       1.0000 0.93900  0.42300  0.61500  Biso   1.000  H
  H7       1.0000 0.43900  0.07700  0.11500  Biso   1.000  H
  H8       1.0000 0.06100  0.57700  0.38500  Biso   1.000  H
  C33      1.0000 0.42600  0.95350  0.84750  Biso   1.000  C
  C34      1.0000 0.07400  0.45350  0.65250  Biso   1.000  C
  C35      1.0000 0.57400  0.04650  0.15250  Biso   1.000  C
  C36      1.0000 0.92600  0.54650  0.34750  Biso   1.000  C
  C37      1.0000 0.41550  0.89240  0.91730  Biso   1.000  C
  C38      1.0000 0.08450  0.39240  0.58270  Biso   1.000  C
  C39      1.0000 0.58450  0.10760  0.08270  Biso   1.000  C
  C40      1.0000 0.91550  0.60760  0.41730  Biso   1.000  C
  F61      1.0000 0.49350  0.87730  0.99200  Biso   1.000  F
  F62      1.0000 0.00650  0.37730  0.50800  Biso   1.000  F
  F63      1.0000 0.50650  0.12270  0.00800  Biso   1.000  F
  F64      1.0000 0.99350  0.62270  0.49200  Biso   1.000  F
  F65      1.0000 0.35130  0.92040  0.94810  Biso   1.000  F
  F66      1.0000 0.14870  0.42040  0.55190  Biso   1.000  F
  F67      1.0000 0.64870  0.07960  0.05190  Biso   1.000  F
  F68      1.0000 0.85130  0.57960  0.44810  Biso   1.000  F
  F69      1.0000 0.37840  0.82100  0.87900  Biso   1.000  F
  F70      1.0000 0.12160  0.32100  0.62100  Biso   1.000  F
  F71      1.0000 0.62160  0.17900  0.12100  Biso   1.000  F
  F72      1.0000 0.87840  0.67900  0.37900  Biso   1.000  F
  O13      1.0000 0.34850  0.99140  0.79680  Biso   1.000  O
  O14      1.0000 0.15150  0.49140  0.70320  Biso   1.000  O
  O15      1.0000 0.65150  0.00860  0.20320  Biso   1.000  O
  O16      1.0000 0.84850  0.50860  0.29680  Biso   1.000  O
  O17      1.0000 0.27550  0.93540  0.59820  Biso   1.000  O
  O18      1.0000 0.22450  0.43540  0.90180  Biso   1.000  O
  O19      1.0000 0.72450  0.06460  0.40180  Biso   1.000  O
  O20      1.0000 0.77550  0.56460  0.09820  Biso   1.000  O
  N1       1.0000 0.28840  0.86650  0.55970  Biso   1.000  N
  N2       1.0000 0.21160  0.36650  0.94030  Biso   1.000  N
  N3       1.0000 0.71160  0.13350  0.44030  Biso   1.000  N
  N4       1.0000 0.78840  0.63350  0.05970  Biso   1.000  N
  C41      1.0000 0.32020  0.86970  0.48080  Biso   1.000  C
  C42      1.0000 0.17980  0.36970  0.01920  Biso   1.000  C
  C43      1.0000 0.67980  0.13030  0.51920  Biso   1.000  C
  C44      1.0000 0.82020  0.63030  0.98080  Biso   1.000  C
  C45      1.0000 0.22660  0.90270  0.39040  Biso   1.000  C
  C46      1.0000 0.27340  0.40270  0.10960  Biso   1.000  C
  C47      1.0000 0.77340  0.09730  0.60960  Biso   1.000  C
  C48      1.0000 0.72660  0.59730  0.89040  Biso   1.000  C
  H9       1.0000 0.21610  0.96260  0.39770  Biso   1.000  H
  H10      1.0000 0.28390  0.46260  0.10230  Biso   1.000  H
  H11      1.0000 0.78390  0.03740  0.60230  Biso   1.000  H
  H12      1.0000 0.71610  0.53740  0.89770  Biso   1.000  H
  H13      1.0000 0.16890  0.87070  0.38380  Biso   1.000  H
  H14      1.0000 0.33110  0.37070  0.11620  Biso   1.000  H
  H15      1.0000 0.83110  0.12930  0.61620  Biso   1.000  H
  H16      1.0000 0.66890  0.62930  0.88380  Biso   1.000  H
  H17      1.0000 0.23810  0.89470  0.33500  Biso   1.000  H
  H18      1.0000 0.26190  0.39470  0.16500  Biso   1.000  H
  H19      1.0000 0.76190  0.10530  0.66500  Biso   1.000  H
  H20      1.0000 0.73810  0.60530  0.83500  Biso   1.000  H
  C49      1.0000 0.40290  0.92960  0.50150  Biso   1.000  C
  C50      1.0000 0.09710  0.42960  0.99850  Biso   1.000  C
  C51      1.0000 0.59710  0.07040  0.49850  Biso   1.000  C
  C52      1.0000 0.90290  0.57040  0.00150  Biso   1.000  C
  H21      1.0000 0.46000  0.90970  0.55580  Biso   1.000  H
  H22      1.0000 0.04000  0.40970  0.94420  Biso   1.000  H
  H23      1.0000 0.54000  0.09030  0.44420  Biso   1.000  H
  H24      1.0000 0.96000  0.59030  0.05580  Biso   1.000  H
  H25      1.0000 0.38430  0.98550  0.51440  Biso   1.000  H
  H26      1.0000 0.11570  0.48550  0.98560  Biso   1.000  H
  H27      1.0000 0.61570  0.01450  0.48560  Biso   1.000  H
  H28      1.0000 0.88430  0.51450  0.01440  Biso   1.000  H
  H29      1.0000 0.41840  0.93280  0.44800  Biso   1.000  H
  H30      1.0000 0.08160  0.43280  0.05200  Biso   1.000  H
  H31      1.0000 0.58160  0.06720  0.55200  Biso   1.000  H
  H32      1.0000 0.91840  0.56720  0.94800  Biso   1.000  H
  C53      1.0000 0.33390  0.77640  0.46710  Biso   1.000  C
  C54      1.0000 0.16610  0.27640  0.03290  Biso   1.000  C
  C55      1.0000 0.66610  0.22360  0.53290  Biso   1.000  C
  C56      1.0000 0.83390  0.72360  0.96710  Biso   1.000  C
  C57      1.0000 0.45200  0.75300  0.54000  Biso   1.000  C
  C58      1.0000 0.04800  0.25300  0.96000  Biso   1.000  C
  C59      1.0000 0.54800  0.24700  0.46000  Biso   1.000  C
  C60      1.0000 0.95200  0.74700  0.04000  Biso   1.000  C
  H33      1.0000 0.46460  0.69360  0.53350  Biso   1.000  H
  H34      1.0000 0.03540  0.19360  0.96650  Biso   1.000  H
  H35      1.0000 0.53540  0.30640  0.46650  Biso   1.000  H
  H36      1.0000 0.96460  0.80640  0.03350  Biso   1.000  H
  H37      1.0000 0.46320  0.76460  0.60410  Biso   1.000  H
  H38      1.0000 0.03680  0.26460  0.89590  Biso   1.000  H
  H39      1.0000 0.53680  0.23540  0.39590  Biso   1.000  H
  H40      1.0000 0.96320  0.73540  0.10410  Biso   1.000  H
  H41      1.0000 0.49570  0.78810  0.52390  Biso   1.000  H
  H42      1.0000 0.00430  0.28810  0.97610  Biso   1.000  H
  H43      1.0000 0.50430  0.21190  0.47610  Biso   1.000  H
  H44      1.0000 0.99570  0.71190  0.02390  Biso   1.000  H
  C61      1.0000 0.31600  0.73670  0.37960  Biso   1.000  C
  C62      1.0000 0.18400  0.23670  0.12040  Biso   1.000  C
  C63      1.0000 0.68400  0.26330  0.62040  Biso   1.000  C
  C64      1.0000 0.81600  0.76330  0.87960  Biso   1.000  C
  H45      1.0000 0.24930  0.74800  0.33450  Biso   1.000  H
  H46      1.0000 0.25070  0.24800  0.16550  Biso   1.000  H
  H47      1.0000 0.75070  0.25200  0.66550  Biso   1.000  H
  H48      1.0000 0.74930  0.75200  0.83450  Biso   1.000  H
  H49      1.0000 0.32610  0.67590  0.38870  Biso   1.000  H
  H50      1.0000 0.17390  0.17590  0.11130  Biso   1.000  H
  H51      1.0000 0.67390  0.32410  0.61130  Biso   1.000  H
  H52      1.0000 0.82610  0.82410  0.88870  Biso   1.000  H
  H53      1.0000 0.36170  0.75950  0.35650  Biso   1.000  H
  H54      1.0000 0.13830  0.25950  0.14350  Biso   1.000  H
  H55      1.0000 0.63830  0.24050  0.64350  Biso   1.000  H
  H56      1.0000 0.86170  0.74050  0.85650  Biso   1.000  H
  N5       1.0000 0.27720  0.73470  0.51490  Biso   1.000  N
  N6       1.0000 0.22280  0.23470  0.98510  Biso   1.000  N
  N7       1.0000 0.72280  0.26530  0.48510  Biso   1.000  N
  N8       1.0000 0.77720  0.76530  0.01490  Biso   1.000  N
  O21      1.0000 0.25740  0.65490  0.50790  Biso   1.000  O
  O22      1.0000 0.24260  0.15490  0.99210  Biso   1.000  O
  O23      1.0000 0.74260  0.34510  0.49210  Biso   1.000  O
  O24      1.0000 0.75740  0.84510  0.00790  Biso   1.000  O
  C65      1.0000 0.25900  0.78920  0.57180  Biso   1.000  C
  C66      1.0000 0.24100  0.28920  0.92820  Biso   1.000  C
  C67      1.0000 0.74100  0.21080  0.42820  Biso   1.000  C
  C68      1.0000 0.75900  0.71080  0.07180  Biso   1.000  C
  C69      1.0000 0.21550  0.76680  0.63500  Biso   1.000  C
  C70      1.0000 0.28450  0.26680  0.86500  Biso   1.000  C
  C71      1.0000 0.78450  0.23320  0.36500  Biso   1.000  C
  C72      1.0000 0.71550  0.73320  0.13500  Biso   1.000  C
  C73      1.0000 0.19620  0.68640  0.66030  Biso   1.000  C
  C74      1.0000 0.30380  0.18640  0.83970  Biso   1.000  C
  C75      1.0000 0.80380  0.31360  0.33970  Biso   1.000  C
  C76      1.0000 0.69620  0.81360  0.16030  Biso   1.000  C
  H57      1.0000 0.21600  0.63100  0.65600  Biso   1.000  H
  H58      1.0000 0.28400  0.13100  0.84400  Biso   1.000  H
  H59      1.0000 0.78400  0.36900  0.34400  Biso   1.000  H
  H60      1.0000 0.71600  0.86900  0.15600  Biso   1.000  H
  N9       1.0000 0.15650  0.69040  0.72040  Biso   1.000  N
  N10      1.0000 0.34350  0.19040  0.77960  Biso   1.000  N
  N11      1.0000 0.84350  0.30960  0.27960  Biso   1.000  N
  N12      1.0000 0.65650  0.80960  0.22040  Biso   1.000  N
  N13      1.0000 0.14820  0.77490  0.73330  Biso   1.000  N
  N14      1.0000 0.35180  0.27490  0.76670  Biso   1.000  N
  N15      1.0000 0.85180  0.22510  0.26670  Biso   1.000  N
  N16      1.0000 0.64820  0.72510  0.23330  Biso   1.000  N
  C77      1.0000 0.10650  0.80330  0.79810  Biso   1.000  C
  C78      1.0000 0.39350  0.30330  0.70190  Biso   1.000  C
  C79      1.0000 0.89350  0.19670  0.20190  Biso   1.000  C
  C80      1.0000 0.60650  0.69670  0.29810  Biso   1.000  C
  H61      1.0000 0.04730  0.76960  0.78520  Biso   1.000  H
  H62      1.0000 0.45270  0.26960  0.71480  Biso   1.000  H
  H63      1.0000 0.95270  0.23040  0.21480  Biso   1.000  H
  H64      1.0000 0.54730  0.73040  0.28520  Biso   1.000  H
  H65      1.0000 0.15410  0.79010  0.86220  Biso   1.000  H
  H66      1.0000 0.34590  0.29010  0.63780  Biso   1.000  H
  H67      1.0000 0.84590  0.20990  0.13780  Biso   1.000  H
  H68      1.0000 0.65410  0.70990  0.36220  Biso   1.000  H
  C81      1.0000 0.08020  0.89410  0.79420  Biso   1.000  C
  C82      1.0000 0.41980  0.39410  0.70580  Biso   1.000  C
  C83      1.0000 0.91980  0.10590  0.20580  Biso   1.000  C
  C84      1.0000 0.58020  0.60590  0.29420  Biso   1.000  C
  H69      1.0000 0.03360  0.90880  0.73020  Biso   1.000  H
  H70      1.0000 0.46640  0.40880  0.76980  Biso   1.000  H
  H71      1.0000 0.96640  0.09120  0.26980  Biso   1.000  H
  H72      1.0000 0.53360  0.59120  0.23020  Biso   1.000  H
  H73      1.0000 0.13940  0.92880  0.81060  Biso   1.000  H
  H74      1.0000 0.36060  0.42880  0.68940  Biso   1.000  H
  H75      1.0000 0.86060  0.07120  0.18940  Biso   1.000  H
  H76      1.0000 0.63940  0.57120  0.31060  Biso   1.000  H
  C85      1.0000 0.03440  0.91420  0.86140  Biso   1.000  C
  C86      1.0000 0.46560  0.41420  0.63860  Biso   1.000  C
  C87      1.0000 0.96560  0.08580  0.13860  Biso   1.000  C
  C88      1.0000 0.53440  0.58580  0.36140  Biso   1.000  C
  H77      1.0000 0.96590  0.89550  0.82850  Biso   1.000  H
  H78      1.0000 0.53410  0.39550  0.67150  Biso   1.000  H
  H79      1.0000 0.03410  0.10450  0.17150  Biso   1.000  H
  H80      1.0000 0.46590  0.60450  0.32850  Biso   1.000  H
  H81      1.0000 0.06560  0.87430  0.91350  Biso   1.000  H
  H82      1.0000 0.43440  0.37430  0.58650  Biso   1.000  H
  H83      1.0000 0.93440  0.12570  0.08650  Biso   1.000  H
  H84      1.0000 0.56560  0.62570  0.41350  Biso   1.000  H
  C89      1.0000 0.03050  0.97530  0.89530  Biso   1.000  C
  C90      1.0000 0.46950  0.47530  0.60470  Biso   1.000  C
  C91      1.0000 0.96950  0.02470  0.10470  Biso   1.000  C
  C92      1.0000 0.53050  0.52470  0.39530  Biso   1.000  C
  H85      1.0000 0.01440  0.01720  0.84500  Biso   1.000  H
  H86      1.0000 0.48560  0.51720  0.65500  Biso   1.000  H
  H87      1.0000 0.98560  0.98280  0.15500  Biso   1.000  H
  H88      1.0000 0.51440  0.48280  0.34500  Biso   1.000  H
  H89      1.0000 0.09910  0.98660  0.93860  Biso   1.000  H
  H90      1.0000 0.40090  0.48660  0.56140  Biso   1.000  H
  H91      1.0000 0.90090  0.01340  0.06140  Biso   1.000  H
  H92      1.0000 0.59910  0.51340  0.43860  Biso   1.000  H
  C93      1.0000 0.97120  0.00630  0.95010  Biso   1.000  C
  C94      1.0000 0.52880  0.50630  0.54990  Biso   1.000  C
  C95      1.0000 0.02880  0.99370  0.04990  Biso   1.000  C
  C96      1.0000 0.47120  0.49370  0.45010  Biso   1.000  C
  H93      1.0000 0.95530  0.06680  0.93730  Biso   1.000  H
  H94      1.0000 0.54470  0.56680  0.56270  Biso   1.000  H
  H95      1.0000 0.04470  0.93320  0.06270  Biso   1.000  H
  H96      1.0000 0.45530  0.43320  0.43730  Biso   1.000  H
  H97      1.0000 0.90950  0.97450  0.92900  Biso   1.000  H
  H98      1.0000 0.59050  0.47450  0.57100  Biso   1.000  H
  H99      1.0000 0.09050  0.02550  0.07100  Biso   1.000  H
  H100     1.0000 0.40950  0.52550  0.42900  Biso   1.000  H
  C97      1.0000 0.18250  0.82240  0.68340  Biso   1.000  C
  C98      1.0000 0.31750  0.32240  0.81660  Biso   1.000  C
  C99      1.0000 0.81750  0.17760  0.31660  Biso   1.000  C
  C100     1.0000 0.68250  0.67760  0.18340  Biso   1.000  C
  H101     1.0000 0.18600  0.87700  0.68900  Biso   1.000  H
  H102     1.0000 0.31400  0.37700  0.81100  Biso   1.000  H
  H103     1.0000 0.81400  0.12300  0.31100  Biso   1.000  H
  H104     1.0000 0.68600  0.62300  0.18900  Biso   1.000  H
