data_image0
_cell_length_a       28.764
_cell_length_b       17.1839
_cell_length_c       19.918
_cell_angle_alpha    90
_cell_angle_beta     133.107
_cell_angle_gamma    90

_symmetry_space_group_name_H-M    "P 1"
_symmetry_int_tables_number       1

loop_
  _symmetry_equiv_pos_as_xyz
  'x, y, z'

loop_
  _atom_site_label
  _atom_site_occupancy
  _atom_site_fract_x
  _atom_site_fract_y
  _atom_site_fract_z
  _atom_site_thermal_displace_type
  _atom_site_B_iso_or_equiv
  _atom_site_type_symbol
  B1       1.0000 0.30960  0.48390  0.76840  Biso   1.000  B
  B2       1.0000 0.69040  0.48390  0.73160  Biso   1.000  B
  B3       1.0000 0.80960  0.98390  0.76840  Biso   1.000  B
  B4       1.0000 0.19040  0.98390  0.73160  Biso   1.000  B
  B5       1.0000 0.69040  0.51610  0.23160  Biso   1.000  B
  B6       1.0000 0.30960  0.51610  0.26840  Biso   1.000  B
  B7       1.0000 0.19040  0.01610  0.23160  Biso   1.000  B
  B8       1.0000 0.80960  0.01610  0.26840  Biso   1.000  B
  H1       1.0000 0.31024  0.49048  0.82288  Biso   1.000  H
  H2       1.0000 0.68976  0.49048  0.67712  Biso   1.000  H
  H3       1.0000 0.81024  0.99048  0.82288  Biso   1.000  H
  H4       1.0000 0.18976  0.99048  0.67712  Biso   1.000  H
  H5       1.0000 0.68976  0.50952  0.17712  Biso   1.000  H
  H6       1.0000 0.31024  0.50952  0.32288  Biso   1.000  H
  H7       1.0000 0.18976  0.00952  0.17712  Biso   1.000  H
  H8       1.0000 0.81024  0.00952  0.32288  Biso   1.000  H
  B9       1.0000 0.34950  0.41290  0.68490  Biso   1.000  B
  B10      1.0000 0.65050  0.41290  0.81510  Biso   1.000  B
  B11      1.0000 0.84950  0.91290  0.68490  Biso   1.000  B
  B12      1.0000 0.15050  0.91290  0.81510  Biso   1.000  B
  B13      1.0000 0.65050  0.58710  0.31510  Biso   1.000  B
  B14      1.0000 0.34950  0.58710  0.18490  Biso   1.000  B
  B15      1.0000 0.15050  0.08710  0.31510  Biso   1.000  B
  B16      1.0000 0.84950  0.08710  0.18490  Biso   1.000  B
  H9       1.0000 0.37741  0.36496  0.68892  Biso   1.000  H
  H10      1.0000 0.62259  0.36496  0.81108  Biso   1.000  H
  H11      1.0000 0.87741  0.86496  0.68892  Biso   1.000  H
  H12      1.0000 0.12259  0.86496  0.81108  Biso   1.000  H
  H13      1.0000 0.62259  0.63504  0.31108  Biso   1.000  H
  H14      1.0000 0.37741  0.63504  0.18892  Biso   1.000  H
  H15      1.0000 0.12259  0.13504  0.31108  Biso   1.000  H
  H16      1.0000 0.87741  0.13504  0.18892  Biso   1.000  H
  B17      1.0000 0.24070  0.45020  0.65940  Biso   1.000  B
  B18      1.0000 0.75930  0.45020  0.84060  Biso   1.000  B
  B19      1.0000 0.74070  0.95020  0.65940  Biso   1.000  B
  B20      1.0000 0.25930  0.95020  0.84060  Biso   1.000  B
  B21      1.0000 0.75930  0.54980  0.34060  Biso   1.000  B
  B22      1.0000 0.24070  0.54980  0.15940  Biso   1.000  B
  B23      1.0000 0.25930  0.04980  0.34060  Biso   1.000  B
  B24      1.0000 0.74070  0.04980  0.15940  Biso   1.000  B
  H17      1.0000 0.19147  0.42527  0.64158  Biso   1.000  H
  H18      1.0000 0.80853  0.42527  0.85842  Biso   1.000  H
  H19      1.0000 0.69147  0.92527  0.64158  Biso   1.000  H
  H20      1.0000 0.30853  0.92527  0.85842  Biso   1.000  H
  H21      1.0000 0.80853  0.57473  0.35842  Biso   1.000  H
  H22      1.0000 0.19147  0.57473  0.14158  Biso   1.000  H
  H23      1.0000 0.30853  0.07473  0.35842  Biso   1.000  H
  H24      1.0000 0.69147  0.07473  0.14158  Biso   1.000  H
  B25      1.0000 0.31190  0.39490  0.72700  Biso   1.000  B
  B26      1.0000 0.68810  0.39490  0.77300  Biso   1.000  B
  B27      1.0000 0.81190  0.89490  0.72700  Biso   1.000  B
  B28      1.0000 0.18810  0.89490  0.77300  Biso   1.000  B
  B29      1.0000 0.68810  0.60510  0.27300  Biso   1.000  B
  B30      1.0000 0.31190  0.60510  0.22700  Biso   1.000  B
  B31      1.0000 0.18810  0.10510  0.27300  Biso   1.000  B
  B32      1.0000 0.81190  0.10510  0.22700  Biso   1.000  B
  H25      1.0000 0.31309  0.33797  0.75050  Biso   1.000  H
  H26      1.0000 0.68691  0.33797  0.74950  Biso   1.000  H
  H27      1.0000 0.81309  0.83797  0.75050  Biso   1.000  H
  H28      1.0000 0.18691  0.83797  0.74950  Biso   1.000  H
  H29      1.0000 0.68691  0.66203  0.24950  Biso   1.000  H
  H30      1.0000 0.31309  0.66203  0.25050  Biso   1.000  H
  H31      1.0000 0.18691  0.16203  0.24950  Biso   1.000  H
  H32      1.0000 0.81309  0.16203  0.25050  Biso   1.000  H
  B33      1.0000 0.26480  0.40590  0.60670  Biso   1.000  B
  B34      1.0000 0.73520  0.40590  0.89330  Biso   1.000  B
  B35      1.0000 0.76480  0.90590  0.60670  Biso   1.000  B
  B36      1.0000 0.23520  0.90590  0.89330  Biso   1.000  B
  B37      1.0000 0.73520  0.59410  0.39330  Biso   1.000  B
  B38      1.0000 0.26480  0.59410  0.10670  Biso   1.000  B
  B39      1.0000 0.23520  0.09410  0.39330  Biso   1.000  B
  B40      1.0000 0.76480  0.09410  0.10670  Biso   1.000  B
  H33      1.0000 0.24017  0.35849  0.56269  Biso   1.000  H
  H34      1.0000 0.75983  0.35849  0.93731  Biso   1.000  H
  H35      1.0000 0.74017  0.85849  0.56269  Biso   1.000  H
  H36      1.0000 0.25983  0.85849  0.93731  Biso   1.000  H
  H37      1.0000 0.75983  0.64151  0.43731  Biso   1.000  H
  H38      1.0000 0.24017  0.64151  0.06269  Biso   1.000  H
  H39      1.0000 0.25983  0.14151  0.43731  Biso   1.000  H
  H40      1.0000 0.74017  0.14151  0.06269  Biso   1.000  H
  B41      1.0000 0.37160  0.51340  0.70370  Biso   1.000  B
  B42      1.0000 0.62840  0.51340  0.79630  Biso   1.000  B
  B43      1.0000 0.87160  0.01340  0.70370  Biso   1.000  B
  B44      1.0000 0.12840  0.01340  0.79630  Biso   1.000  B
  B45      1.0000 0.62840  0.48660  0.29630  Biso   1.000  B
  B46      1.0000 0.37160  0.48660  0.20370  Biso   1.000  B
  B47      1.0000 0.12840  0.98660  0.29630  Biso   1.000  B
  B48      1.0000 0.87160  0.98660  0.20370  Biso   1.000  B
  H41      1.0000 0.41469  0.53063  0.72030  Biso   1.000  H
  H42      1.0000 0.58531  0.53063  0.77970  Biso   1.000  H
  H43      1.0000 0.91469  0.03063  0.72030  Biso   1.000  H
  H44      1.0000 0.08531  0.03063  0.77970  Biso   1.000  H
  H45      1.0000 0.58531  0.46937  0.27970  Biso   1.000  H
  H46      1.0000 0.41469  0.46937  0.22030  Biso   1.000  H
  H47      1.0000 0.08531  0.96937  0.27970  Biso   1.000  H
  H48      1.0000 0.91469  0.96937  0.22030  Biso   1.000  H
  B49      1.0000 0.26190  0.55090  0.67690  Biso   1.000  B
  B50      1.0000 0.73810  0.55090  0.82310  Biso   1.000  B
  B51      1.0000 0.76190  0.05090  0.67690  Biso   1.000  B
  B52      1.0000 0.23810  0.05090  0.82310  Biso   1.000  B
  B53      1.0000 0.73810  0.44910  0.32310  Biso   1.000  B
  B54      1.0000 0.26190  0.44910  0.17690  Biso   1.000  B
  B55      1.0000 0.23810  0.94910  0.32310  Biso   1.000  B
  B56      1.0000 0.76190  0.94910  0.17690  Biso   1.000  B
  H49      1.0000 0.23869  0.60351  0.67898  Biso   1.000  H
  H50      1.0000 0.76131  0.60351  0.82102  Biso   1.000  H
  H51      1.0000 0.73869  0.10351  0.67898  Biso   1.000  H
  H52      1.0000 0.26131  0.10351  0.82102  Biso   1.000  H
  H53      1.0000 0.76131  0.39649  0.32102  Biso   1.000  H
  H54      1.0000 0.23869  0.39649  0.17898  Biso   1.000  H
  H55      1.0000 0.26131  0.89649  0.32102  Biso   1.000  H
  H56      1.0000 0.73869  0.89649  0.17898  Biso   1.000  H
  B57      1.0000 0.37740  0.46070  0.78590  Biso   1.000  B
  B58      1.0000 0.62260  0.46070  0.71410  Biso   1.000  B
  B59      1.0000 0.87740  0.96070  0.78590  Biso   1.000  B
  B60      1.0000 0.12260  0.96070  0.71410  Biso   1.000  B
  B61      1.0000 0.62260  0.53930  0.21410  Biso   1.000  B
  B62      1.0000 0.37740  0.53930  0.28590  Biso   1.000  B
  B63      1.0000 0.12260  0.03930  0.21410  Biso   1.000  B
  B64      1.0000 0.87740  0.03930  0.28590  Biso   1.000  B
  H57      1.0000 0.42079  0.44604  0.84969  Biso   1.000  H
  H58      1.0000 0.57921  0.44604  0.65031  Biso   1.000  H
  H59      1.0000 0.92079  0.94604  0.84969  Biso   1.000  H
  H60      1.0000 0.07921  0.94604  0.65031  Biso   1.000  H
  H61      1.0000 0.57921  0.55396  0.15031  Biso   1.000  H
  H62      1.0000 0.42079  0.55396  0.34969  Biso   1.000  H
  H63      1.0000 0.07921  0.05396  0.15031  Biso   1.000  H
  H64      1.0000 0.92079  0.05396  0.34969  Biso   1.000  H
  B65      1.0000 0.30180  0.48020  0.59320  Biso   1.000  B
  B66      1.0000 0.69820  0.48020  0.90680  Biso   1.000  B
  B67      1.0000 0.80180  0.98020  0.59320  Biso   1.000  B
  B68      1.0000 0.19820  0.98020  0.90680  Biso   1.000  B
  B69      1.0000 0.69820  0.51980  0.40680  Biso   1.000  B
  B70      1.0000 0.30180  0.51980  0.09320  Biso   1.000  B
  B71      1.0000 0.19820  0.01980  0.40680  Biso   1.000  B
  B72      1.0000 0.80180  0.01980  0.09320  Biso   1.000  B
  H65      1.0000 0.30127  0.48335  0.53191  Biso   1.000  H
  H66      1.0000 0.69873  0.48335  0.96809  Biso   1.000  H
  H67      1.0000 0.80127  0.98335  0.53191  Biso   1.000  H
  H68      1.0000 0.19873  0.98335  0.96809  Biso   1.000  H
  H69      1.0000 0.69873  0.51665  0.46809  Biso   1.000  H
  H70      1.0000 0.30127  0.51665  0.03191  Biso   1.000  H
  H71      1.0000 0.19873  0.01665  0.46809  Biso   1.000  H
  H72      1.0000 0.80127  0.01665  0.03191  Biso   1.000  H
  B73      1.0000 0.34710  0.55730  0.75590  Biso   1.000  B
  B74      1.0000 0.65290  0.55730  0.74410  Biso   1.000  B
  B75      1.0000 0.84710  0.05730  0.75590  Biso   1.000  B
  B76      1.0000 0.15290  0.05730  0.74410  Biso   1.000  B
  B77      1.0000 0.65290  0.44270  0.24410  Biso   1.000  B
  B78      1.0000 0.34710  0.44270  0.25590  Biso   1.000  B
  B79      1.0000 0.15290  0.94270  0.24410  Biso   1.000  B
  B80      1.0000 0.84710  0.94270  0.25590  Biso   1.000  B
  H73      1.0000 0.37089  0.60641  0.80228  Biso   1.000  H
  H74      1.0000 0.62911  0.60641  0.69772  Biso   1.000  H
  H75      1.0000 0.87089  0.10641  0.80228  Biso   1.000  H
  H76      1.0000 0.12911  0.10641  0.69772  Biso   1.000  H
  H77      1.0000 0.62911  0.39359  0.19772  Biso   1.000  H
  H78      1.0000 0.37089  0.39359  0.30228  Biso   1.000  H
  H79      1.0000 0.12911  0.89359  0.19772  Biso   1.000  H
  H80      1.0000 0.87089  0.89359  0.30228  Biso   1.000  H
  B81      1.0000 0.29940  0.56960  0.63520  Biso   1.000  B
  B82      1.0000 0.70060  0.56960  0.86480  Biso   1.000  B
  B83      1.0000 0.79940  0.06960  0.63520  Biso   1.000  B
  B84      1.0000 0.20060  0.06960  0.86480  Biso   1.000  B
  B85      1.0000 0.70060  0.43040  0.36480  Biso   1.000  B
  B86      1.0000 0.29940  0.43040  0.13520  Biso   1.000  B
  B87      1.0000 0.20060  0.93040  0.36480  Biso   1.000  B
  B88      1.0000 0.79940  0.93040  0.13520  Biso   1.000  B
  H81      1.0000 0.30035  0.62647  0.61144  Biso   1.000  H
  H82      1.0000 0.69965  0.62647  0.88856  Biso   1.000  H
  H83      1.0000 0.80035  0.12647  0.61144  Biso   1.000  H
  H84      1.0000 0.19965  0.12647  0.88856  Biso   1.000  H
  H85      1.0000 0.69965  0.37353  0.38856  Biso   1.000  H
  H86      1.0000 0.30035  0.37353  0.11144  Biso   1.000  H
  H87      1.0000 0.19965  0.87353  0.38856  Biso   1.000  H
  H88      1.0000 0.80035  0.87353  0.11144  Biso   1.000  H
  B89      1.0000 0.23460  0.50280  0.57660  Biso   1.000  B
  B90      1.0000 0.76540  0.50280  0.92340  Biso   1.000  B
  B91      1.0000 0.73460  0.00280  0.57660  Biso   1.000  B
  B92      1.0000 0.26540  0.00280  0.92340  Biso   1.000  B
  B93      1.0000 0.76540  0.49720  0.42340  Biso   1.000  B
  B94      1.0000 0.23460  0.49720  0.07660  Biso   1.000  B
  B95      1.0000 0.26540  0.99720  0.42340  Biso   1.000  B
  B96      1.0000 0.73460  0.99720  0.07660  Biso   1.000  B
  H89      1.0000 0.18603  0.52742  0.51147  Biso   1.000  H
  H90      1.0000 0.81397  0.52742  0.98853  Biso   1.000  H
  H91      1.0000 0.68603  0.02742  0.51147  Biso   1.000  H
  H92      1.0000 0.31397  0.02742  0.98853  Biso   1.000  H
  H93      1.0000 0.81397  0.47258  0.48853  Biso   1.000  H
  H94      1.0000 0.18603  0.47258  0.01147  Biso   1.000  H
  H95      1.0000 0.31397  0.97258  0.48853  Biso   1.000  H
  H96      1.0000 0.68603  0.97258  0.01147  Biso   1.000  H
  C1       1.0000 0.42490  0.57080  0.50560  Biso   1.000  C
  C2       1.0000 0.57510  0.57080  0.99440  Biso   1.000  C
  C3       1.0000 0.92490  0.07080  0.50560  Biso   1.000  C
  C4       1.0000 0.07510  0.07080  0.99440  Biso   1.000  C
  C5       1.0000 0.57510  0.42920  0.49440  Biso   1.000  C
  C6       1.0000 0.42490  0.42920  0.00560  Biso   1.000  C
  C7       1.0000 0.07510  0.92920  0.49440  Biso   1.000  C
  C8       1.0000 0.92490  0.92920  0.00560  Biso   1.000  C
  H97      1.0000 0.42053  0.53437  0.46564  Biso   1.000  H
  H98      1.0000 0.57947  0.53437  0.03436  Biso   1.000  H
  H99      1.0000 0.92053  0.03437  0.46564  Biso   1.000  H
  H100     1.0000 0.07947  0.03437  0.03436  Biso   1.000  H
  H101     1.0000 0.57947  0.46563  0.53436  Biso   1.000  H
  H102     1.0000 0.42053  0.46563  0.96564  Biso   1.000  H
  H103     1.0000 0.07947  0.96563  0.53436  Biso   1.000  H
  H104     1.0000 0.92053  0.96563  0.96564  Biso   1.000  H
  C9       1.0000 0.47900  0.61720  0.56170  Biso   1.000  C
  C10      1.0000 0.52100  0.61720  0.93830  Biso   1.000  C
  C11      1.0000 0.97900  0.11720  0.56170  Biso   1.000  C
  C12      1.0000 0.02100  0.11720  0.93830  Biso   1.000  C
  C13      1.0000 0.52100  0.38280  0.43830  Biso   1.000  C
  C14      1.0000 0.47900  0.38280  0.06170  Biso   1.000  C
  C15      1.0000 0.02100  0.88280  0.43830  Biso   1.000  C
  C16      1.0000 0.97900  0.88280  0.06170  Biso   1.000  C
  H105     1.0000 0.51117  0.61226  0.56013  Biso   1.000  H
  H106     1.0000 0.48883  0.61226  0.93987  Biso   1.000  H
  H107     1.0000 0.01117  0.11226  0.56013  Biso   1.000  H
  H108     1.0000 0.98883  0.11226  0.93987  Biso   1.000  H
  H109     1.0000 0.48883  0.38774  0.43987  Biso   1.000  H
  H110     1.0000 0.51117  0.38774  0.06013  Biso   1.000  H
  H111     1.0000 0.98883  0.88774  0.43987  Biso   1.000  H
  H112     1.0000 0.01117  0.88774  0.06013  Biso   1.000  H
  C17      1.0000 0.48600  0.67060  0.61990  Biso   1.000  C
  C18      1.0000 0.51400  0.67060  0.88010  Biso   1.000  C
  C19      1.0000 0.98600  0.17060  0.61990  Biso   1.000  C
  C20      1.0000 0.01400  0.17060  0.88010  Biso   1.000  C
  C21      1.0000 0.51400  0.32940  0.38010  Biso   1.000  C
  C22      1.0000 0.48600  0.32940  0.11990  Biso   1.000  C
  C23      1.0000 0.01400  0.82940  0.38010  Biso   1.000  C
  C24      1.0000 0.98600  0.82940  0.11990  Biso   1.000  C
  C25      1.0000 0.43690  0.67550  0.61950  Biso   1.000  C
  C26      1.0000 0.56310  0.67550  0.88050  Biso   1.000  C
  C27      1.0000 0.93690  0.17550  0.61950  Biso   1.000  C
  C28      1.0000 0.06310  0.17550  0.88050  Biso   1.000  C
  C29      1.0000 0.56310  0.32450  0.38050  Biso   1.000  C
  C30      1.0000 0.43690  0.32450  0.11950  Biso   1.000  C
  C31      1.0000 0.06310  0.82450  0.38050  Biso   1.000  C
  C32      1.0000 0.93690  0.82450  0.11950  Biso   1.000  C
  H113     1.0000 0.43985  0.71148  0.65852  Biso   1.000  H
  H114     1.0000 0.56015  0.71148  0.84148  Biso   1.000  H
  H115     1.0000 0.93985  0.21148  0.65852  Biso   1.000  H
  H116     1.0000 0.06015  0.21148  0.84148  Biso   1.000  H
  H117     1.0000 0.56015  0.28852  0.34148  Biso   1.000  H
  H118     1.0000 0.43985  0.28852  0.15852  Biso   1.000  H
  H119     1.0000 0.06015  0.78852  0.34148  Biso   1.000  H
  H120     1.0000 0.93985  0.78852  0.15852  Biso   1.000  H
  C33      1.0000 0.38420  0.62750  0.56180  Biso   1.000  C
  C34      1.0000 0.61580  0.62750  0.93820  Biso   1.000  C
  C35      1.0000 0.88420  0.12750  0.56180  Biso   1.000  C
  C36      1.0000 0.11580  0.12750  0.93820  Biso   1.000  C
  C37      1.0000 0.61580  0.37250  0.43820  Biso   1.000  C
  C38      1.0000 0.38420  0.37250  0.06180  Biso   1.000  C
  C39      1.0000 0.11580  0.87250  0.43820  Biso   1.000  C
  C40      1.0000 0.88420  0.87250  0.06180  Biso   1.000  C
  H121     1.0000 0.35118  0.63124  0.56156  Biso   1.000  H
  H122     1.0000 0.64882  0.63124  0.93844  Biso   1.000  H
  H123     1.0000 0.85118  0.13124  0.56156  Biso   1.000  H
  H124     1.0000 0.14882  0.13124  0.93844  Biso   1.000  H
  H125     1.0000 0.64882  0.36876  0.43844  Biso   1.000  H
  H126     1.0000 0.35118  0.36876  0.06156  Biso   1.000  H
  H127     1.0000 0.14882  0.86876  0.43844  Biso   1.000  H
  H128     1.0000 0.85118  0.86876  0.06156  Biso   1.000  H
  C41      1.0000 0.54230  0.71700  0.67940  Biso   1.000  C
  C42      1.0000 0.45770  0.71700  0.82060  Biso   1.000  C
  C43      1.0000 0.04230  0.21700  0.67940  Biso   1.000  C
  C44      1.0000 0.95770  0.21700  0.82060  Biso   1.000  C
  C45      1.0000 0.45770  0.28300  0.32060  Biso   1.000  C
  C46      1.0000 0.54230  0.28300  0.17940  Biso   1.000  C
  C47      1.0000 0.95770  0.78300  0.32060  Biso   1.000  C
  C48      1.0000 0.04230  0.78300  0.17940  Biso   1.000  C
  C49      1.0000 0.58840  0.75640  0.72690  Biso   1.000  C
  C50      1.0000 0.41160  0.75640  0.77310  Biso   1.000  C
  C51      1.0000 0.08840  0.25640  0.72690  Biso   1.000  C
  C52      1.0000 0.91160  0.25640  0.77310  Biso   1.000  C
  C53      1.0000 0.41160  0.24360  0.27310  Biso   1.000  C
  C54      1.0000 0.58840  0.24360  0.22690  Biso   1.000  C
  C55      1.0000 0.91160  0.74360  0.27310  Biso   1.000  C
  C56      1.0000 0.08840  0.74360  0.22690  Biso   1.000  C
  C57      1.0000 0.64260  0.80660  0.78160  Biso   1.000  C
  C58      1.0000 0.35740  0.80660  0.71840  Biso   1.000  C
  C59      1.0000 0.14260  0.30660  0.78160  Biso   1.000  C
  C60      1.0000 0.85740  0.30660  0.71840  Biso   1.000  C
  C61      1.0000 0.35740  0.19340  0.21840  Biso   1.000  C
  C62      1.0000 0.64260  0.19340  0.28160  Biso   1.000  C
  C63      1.0000 0.85740  0.69340  0.21840  Biso   1.000  C
  C64      1.0000 0.14260  0.69340  0.28160  Biso   1.000  C
  C65      1.0000 0.69270  0.79850  0.78580  Biso   1.000  C
  C66      1.0000 0.30730  0.79850  0.71420  Biso   1.000  C
  C67      1.0000 0.19270  0.29850  0.78580  Biso   1.000  C
  C68      1.0000 0.80730  0.29850  0.71420  Biso   1.000  C
  C69      1.0000 0.30730  0.20150  0.21420  Biso   1.000  C
  C70      1.0000 0.69270  0.20150  0.28580  Biso   1.000  C
  C71      1.0000 0.80730  0.70150  0.21420  Biso   1.000  C
  C72      1.0000 0.19270  0.70150  0.28580  Biso   1.000  C
  H129     1.0000 0.69339  0.75598  0.75605  Biso   1.000  H
  H130     1.0000 0.30661  0.75598  0.74395  Biso   1.000  H
  H131     1.0000 0.19339  0.25598  0.75605  Biso   1.000  H
  H132     1.0000 0.80661  0.25598  0.74395  Biso   1.000  H
  H133     1.0000 0.30661  0.24402  0.24395  Biso   1.000  H
  H134     1.0000 0.69339  0.24402  0.25605  Biso   1.000  H
  H135     1.0000 0.80661  0.74402  0.24395  Biso   1.000  H
  H136     1.0000 0.19339  0.74402  0.25605  Biso   1.000  H
  C73      1.0000 0.74140  0.85270  0.83340  Biso   1.000  C
  C74      1.0000 0.25860  0.85270  0.66660  Biso   1.000  C
  C75      1.0000 0.24140  0.35270  0.83340  Biso   1.000  C
  C76      1.0000 0.75860  0.35270  0.66660  Biso   1.000  C
  C77      1.0000 0.25860  0.14730  0.16660  Biso   1.000  C
  C78      1.0000 0.74140  0.14730  0.33340  Biso   1.000  C
  C79      1.0000 0.75860  0.64730  0.16660  Biso   1.000  C
  C80      1.0000 0.24140  0.64730  0.33340  Biso   1.000  C
  H137     1.0000 0.77499  0.84706  0.83499  Biso   1.000  H
  H138     1.0000 0.22501  0.84706  0.66501  Biso   1.000  H
  H139     1.0000 0.27499  0.34706  0.83499  Biso   1.000  H
  H140     1.0000 0.72501  0.34706  0.66501  Biso   1.000  H
  H141     1.0000 0.22501  0.15294  0.16501  Biso   1.000  H
  H142     1.0000 0.77499  0.15294  0.33499  Biso   1.000  H
  H143     1.0000 0.72501  0.65294  0.16501  Biso   1.000  H
  H144     1.0000 0.27499  0.65294  0.33499  Biso   1.000  H
  C81      1.0000 0.69560  0.91870  0.87660  Biso   1.000  C
  C82      1.0000 0.30440  0.91870  0.62340  Biso   1.000  C
  C83      1.0000 0.19560  0.41870  0.87660  Biso   1.000  C
  C84      1.0000 0.80440  0.41870  0.62340  Biso   1.000  C
  C85      1.0000 0.30440  0.08130  0.12340  Biso   1.000  C
  C86      1.0000 0.69560  0.08130  0.37660  Biso   1.000  C
  C87      1.0000 0.80440  0.58130  0.12340  Biso   1.000  C
  C88      1.0000 0.19560  0.58130  0.37660  Biso   1.000  C
  H145     1.0000 0.69730  0.96073  0.90919  Biso   1.000  H
  H146     1.0000 0.30270  0.96073  0.59081  Biso   1.000  H
  H147     1.0000 0.19730  0.46073  0.90919  Biso   1.000  H
  H148     1.0000 0.80270  0.46073  0.59081  Biso   1.000  H
  H149     1.0000 0.30270  0.03927  0.09081  Biso   1.000  H
  H150     1.0000 0.69730  0.03927  0.40919  Biso   1.000  H
  H151     1.0000 0.80270  0.53927  0.09081  Biso   1.000  H
  H152     1.0000 0.19730  0.53927  0.40919  Biso   1.000  H
  C89      1.0000 0.64570  0.86770  0.83180  Biso   1.000  C
  C90      1.0000 0.35430  0.86770  0.66820  Biso   1.000  C
  C91      1.0000 0.14570  0.36770  0.83180  Biso   1.000  C
  C92      1.0000 0.85430  0.36770  0.66820  Biso   1.000  C
  C93      1.0000 0.35430  0.13230  0.16820  Biso   1.000  C
  C94      1.0000 0.64570  0.13230  0.33180  Biso   1.000  C
  C95      1.0000 0.85430  0.63230  0.16820  Biso   1.000  C
  C96      1.0000 0.14570  0.63230  0.33180  Biso   1.000  C
  H153     1.0000 0.61414  0.87339  0.83436  Biso   1.000  H
  H154     1.0000 0.38586  0.87339  0.66564  Biso   1.000  H
  H155     1.0000 0.11414  0.37339  0.83436  Biso   1.000  H
  H156     1.0000 0.88586  0.37339  0.66564  Biso   1.000  H
  H157     1.0000 0.38586  0.12661  0.16564  Biso   1.000  H
  H158     1.0000 0.61414  0.12661  0.33436  Biso   1.000  H
  H159     1.0000 0.88586  0.62661  0.16564  Biso   1.000  H
  H160     1.0000 0.11414  0.62661  0.33436  Biso   1.000  H
  C97      1.0000 0.18750  0.44040  0.25870  Biso   1.000  C
  C98      1.0000 0.81250  0.44040  0.24130  Biso   1.000  C
  C99      1.0000 0.68750  0.94040  0.25870  Biso   1.000  C
  C100     1.0000 0.31250  0.94040  0.24130  Biso   1.000  C
  C101     1.0000 0.81250  0.55960  0.74130  Biso   1.000  C
  C102     1.0000 0.18750  0.55960  0.75870  Biso   1.000  C
  C103     1.0000 0.31250  0.05960  0.74130  Biso   1.000  C
  C104     1.0000 0.68750  0.05960  0.75870  Biso   1.000  C
  H161     1.0000 0.19183  0.48485  0.23505  Biso   1.000  H
  H162     1.0000 0.80817  0.48485  0.26495  Biso   1.000  H
  H163     1.0000 0.69183  0.98485  0.23505  Biso   1.000  H
  H164     1.0000 0.30817  0.98485  0.26495  Biso   1.000  H
  H165     1.0000 0.80817  0.51515  0.76495  Biso   1.000  H
  H166     1.0000 0.19183  0.51515  0.73505  Biso   1.000  H
  H167     1.0000 0.30817  0.01515  0.76495  Biso   1.000  H
  H168     1.0000 0.69183  0.01515  0.73505  Biso   1.000  H
  C105     1.0000 0.13460  0.39290  0.19910  Biso   1.000  C
  C106     1.0000 0.86540  0.39290  0.30090  Biso   1.000  C
  C107     1.0000 0.63460  0.89290  0.19910  Biso   1.000  C
  C108     1.0000 0.36540  0.89290  0.30090  Biso   1.000  C
  C109     1.0000 0.86540  0.60710  0.80090  Biso   1.000  C
  C110     1.0000 0.13460  0.60710  0.69910  Biso   1.000  C
  C111     1.0000 0.36540  0.10710  0.80090  Biso   1.000  C
  C112     1.0000 0.63460  0.10710  0.69910  Biso   1.000  C
  H169     1.0000 0.10315  0.40538  0.13547  Biso   1.000  H
  H170     1.0000 0.89685  0.40538  0.36453  Biso   1.000  H
  H171     1.0000 0.60315  0.90538  0.13547  Biso   1.000  H
  H172     1.0000 0.39685  0.90538  0.36453  Biso   1.000  H
  H173     1.0000 0.89685  0.59462  0.86453  Biso   1.000  H
  H174     1.0000 0.10315  0.59462  0.63547  Biso   1.000  H
  H175     1.0000 0.39685  0.09462  0.86453  Biso   1.000  H
  H176     1.0000 0.60315  0.09462  0.63547  Biso   1.000  H
  C113     1.0000 0.12730  0.32790  0.23160  Biso   1.000  C
  C114     1.0000 0.87270  0.32790  0.26840  Biso   1.000  C
  C115     1.0000 0.62730  0.82790  0.23160  Biso   1.000  C
  C116     1.0000 0.37270  0.82790  0.26840  Biso   1.000  C
  C117     1.0000 0.87270  0.67210  0.76840  Biso   1.000  C
  C118     1.0000 0.12730  0.67210  0.73160  Biso   1.000  C
  C119     1.0000 0.37270  0.17210  0.76840  Biso   1.000  C
  C120     1.0000 0.62730  0.17210  0.73160  Biso   1.000  C
  C121     1.0000 0.17550  0.31140  0.32520  Biso   1.000  C
  C122     1.0000 0.82450  0.31140  0.17480  Biso   1.000  C
  C123     1.0000 0.67550  0.81140  0.32520  Biso   1.000  C
  C124     1.0000 0.32450  0.81140  0.17480  Biso   1.000  C
  C125     1.0000 0.82450  0.68860  0.67480  Biso   1.000  C
  C126     1.0000 0.17550  0.68860  0.82520  Biso   1.000  C
  C127     1.0000 0.32450  0.18860  0.67480  Biso   1.000  C
  C128     1.0000 0.67550  0.18860  0.82520  Biso   1.000  C
  H177     1.0000 0.17289  0.26640  0.35016  Biso   1.000  H
  H178     1.0000 0.82711  0.26640  0.14984  Biso   1.000  H
  H179     1.0000 0.67289  0.76640  0.35016  Biso   1.000  H
  H180     1.0000 0.32711  0.76640  0.14984  Biso   1.000  H
  H181     1.0000 0.82711  0.73360  0.64984  Biso   1.000  H
  H182     1.0000 0.17289  0.73360  0.85016  Biso   1.000  H
  H183     1.0000 0.32711  0.23360  0.64984  Biso   1.000  H
  H184     1.0000 0.67289  0.23360  0.85016  Biso   1.000  H
  C129     1.0000 0.22670  0.36050  0.38110  Biso   1.000  C
  C130     1.0000 0.77330  0.36050  0.11890  Biso   1.000  C
  C131     1.0000 0.72670  0.86050  0.38110  Biso   1.000  C
  C132     1.0000 0.27330  0.86050  0.11890  Biso   1.000  C
  C133     1.0000 0.77330  0.63950  0.61890  Biso   1.000  C
  C134     1.0000 0.22670  0.63950  0.88110  Biso   1.000  C
  C135     1.0000 0.27330  0.13950  0.61890  Biso   1.000  C
  C136     1.0000 0.72670  0.13950  0.88110  Biso   1.000  C
  H185     1.0000 0.25911  0.34874  0.44475  Biso   1.000  H
  H186     1.0000 0.74089  0.34874  0.05525  Biso   1.000  H
  H187     1.0000 0.75911  0.84874  0.44475  Biso   1.000  H
  H188     1.0000 0.24089  0.84874  0.05525  Biso   1.000  H
  H189     1.0000 0.74089  0.65126  0.55525  Biso   1.000  H
  H190     1.0000 0.25911  0.65126  0.94475  Biso   1.000  H
  H191     1.0000 0.24089  0.15126  0.55525  Biso   1.000  H
  H192     1.0000 0.75911  0.15126  0.94475  Biso   1.000  H
  C137     1.0000 0.07200  0.28010  0.17330  Biso   1.000  C
  C138     1.0000 0.92800  0.28010  0.32670  Biso   1.000  C
  C139     1.0000 0.57200  0.78010  0.17330  Biso   1.000  C
  C140     1.0000 0.42800  0.78010  0.32670  Biso   1.000  C
  C141     1.0000 0.92800  0.71990  0.82670  Biso   1.000  C
  C142     1.0000 0.07200  0.71990  0.67330  Biso   1.000  C
  C143     1.0000 0.42800  0.21990  0.82670  Biso   1.000  C
  C144     1.0000 0.57200  0.21990  0.67330  Biso   1.000  C
  C145     1.0000 0.02570  0.24070  0.12610  Biso   1.000  C
  C146     1.0000 0.97430  0.24070  0.37390  Biso   1.000  C
  C147     1.0000 0.52570  0.74070  0.12610  Biso   1.000  C
  C148     1.0000 0.47430  0.74070  0.37390  Biso   1.000  C
  C149     1.0000 0.97430  0.75930  0.87390  Biso   1.000  C
  C150     1.0000 0.02570  0.75930  0.62610  Biso   1.000  C
  C151     1.0000 0.47430  0.25930  0.87390  Biso   1.000  C
  C152     1.0000 0.52570  0.25930  0.62610  Biso   1.000  C
  C153     1.0000 0.97180  0.19110  0.07960  Biso   1.000  C
  C154     1.0000 0.02820  0.19110  0.42040  Biso   1.000  C
  C155     1.0000 0.47180  0.69110  0.07960  Biso   1.000  C
  C156     1.0000 0.52820  0.69110  0.42040  Biso   1.000  C
  C157     1.0000 0.02820  0.80890  0.92040  Biso   1.000  C
  C158     1.0000 0.97180  0.80890  0.57960  Biso   1.000  C
  C159     1.0000 0.52820  0.30890  0.92040  Biso   1.000  C
  C160     1.0000 0.47180  0.30890  0.57960  Biso   1.000  C
  C161     1.0000 0.97050  0.13500  0.12850  Biso   1.000  C
  C162     1.0000 0.02950  0.13500  0.37150  Biso   1.000  C
  C163     1.0000 0.47050  0.63500  0.12850  Biso   1.000  C
  C164     1.0000 0.52950  0.63500  0.37150  Biso   1.000  C
  C165     1.0000 0.02950  0.86500  0.87150  Biso   1.000  C
  C166     1.0000 0.97050  0.86500  0.62850  Biso   1.000  C
  C167     1.0000 0.52950  0.36500  0.87150  Biso   1.000  C
  C168     1.0000 0.47050  0.36500  0.62850  Biso   1.000  C
  H193     1.0000 0.00525  0.13078  0.19310  Biso   1.000  H
  H194     1.0000 0.99475  0.13078  0.30690  Biso   1.000  H
  H195     1.0000 0.50525  0.63078  0.19310  Biso   1.000  H
  H196     1.0000 0.49475  0.63078  0.30690  Biso   1.000  H
  H197     1.0000 0.99475  0.86922  0.80690  Biso   1.000  H
  H198     1.0000 0.00525  0.86922  0.69310  Biso   1.000  H
  H199     1.0000 0.49475  0.36922  0.80690  Biso   1.000  H
  H200     1.0000 0.50525  0.36922  0.69310  Biso   1.000  H
  C169     1.0000 0.91990  0.08600  0.08470  Biso   1.000  C
  C170     1.0000 0.08010  0.08600  0.41530  Biso   1.000  C
  C171     1.0000 0.41990  0.58600  0.08470  Biso   1.000  C
  C172     1.0000 0.58010  0.58600  0.41530  Biso   1.000  C
  C173     1.0000 0.08010  0.91400  0.91530  Biso   1.000  C
  C174     1.0000 0.91990  0.91400  0.58470  Biso   1.000  C
  C175     1.0000 0.58010  0.41400  0.91530  Biso   1.000  C
  C176     1.0000 0.41990  0.41400  0.58470  Biso   1.000  C
  H201     1.0000 0.91962  0.04947  0.12021  Biso   1.000  H
  H202     1.0000 0.08038  0.04947  0.37979  Biso   1.000  H
  H203     1.0000 0.41962  0.54947  0.12021  Biso   1.000  H
  H204     1.0000 0.58038  0.54947  0.37979  Biso   1.000  H
  H205     1.0000 0.08038  0.95053  0.87979  Biso   1.000  H
  H206     1.0000 0.91962  0.95053  0.62021  Biso   1.000  H
  H207     1.0000 0.58038  0.45053  0.87979  Biso   1.000  H
  H208     1.0000 0.41962  0.45053  0.62021  Biso   1.000  H
  C177     1.0000 0.87090  0.14000  0.94410  Biso   1.000  C
  C178     1.0000 0.12910  0.14000  0.55590  Biso   1.000  C
  C179     1.0000 0.37090  0.64000  0.94410  Biso   1.000  C
  C180     1.0000 0.62910  0.64000  0.55590  Biso   1.000  C
  C181     1.0000 0.12910  0.86000  0.05590  Biso   1.000  C
  C182     1.0000 0.87090  0.86000  0.44410  Biso   1.000  C
  C183     1.0000 0.62910  0.36000  0.05590  Biso   1.000  C
  C184     1.0000 0.37090  0.36000  0.44410  Biso   1.000  C
  H209     1.0000 0.83647  0.14087  0.87921  Biso   1.000  H
  H210     1.0000 0.16353  0.14087  0.62079  Biso   1.000  H
  H211     1.0000 0.33647  0.64087  0.87921  Biso   1.000  H
  H212     1.0000 0.66353  0.64087  0.62079  Biso   1.000  H
  H213     1.0000 0.16353  0.85913  0.12079  Biso   1.000  H
  H214     1.0000 0.83647  0.85913  0.37921  Biso   1.000  H
  H215     1.0000 0.66353  0.35913  0.12079  Biso   1.000  H
  H216     1.0000 0.33647  0.35913  0.37921  Biso   1.000  H
  C185     1.0000 0.91970  0.19350  0.98430  Biso   1.000  C
  C186     1.0000 0.08030  0.19350  0.51570  Biso   1.000  C
  C187     1.0000 0.41970  0.69350  0.98430  Biso   1.000  C
  C188     1.0000 0.58030  0.69350  0.51570  Biso   1.000  C
  C189     1.0000 0.08030  0.80650  0.01570  Biso   1.000  C
  C190     1.0000 0.91970  0.80650  0.48430  Biso   1.000  C
  C191     1.0000 0.58030  0.30650  0.01570  Biso   1.000  C
  C192     1.0000 0.41970  0.30650  0.48430  Biso   1.000  C
  H217     1.0000 0.91779  0.23128  0.94777  Biso   1.000  H
  H218     1.0000 0.08221  0.23128  0.55223  Biso   1.000  H
  H219     1.0000 0.41779  0.73128  0.94777  Biso   1.000  H
  H220     1.0000 0.58221  0.73128  0.55223  Biso   1.000  H
  H221     1.0000 0.08221  0.76872  0.05223  Biso   1.000  H
  H222     1.0000 0.91779  0.76872  0.44777  Biso   1.000  H
  H223     1.0000 0.58221  0.26872  0.05223  Biso   1.000  H
  H224     1.0000 0.41779  0.26872  0.44777  Biso   1.000  H
  Cu1      1.0000 0.30579  0.49982  0.43152  Biso   1.000  Cu
  Cu2      1.0000 0.69421  0.49982  0.06848  Biso   1.000  Cu
  Cu3      1.0000 0.80579  0.99982  0.43152  Biso   1.000  Cu
  Cu4      1.0000 0.19421  0.99982  0.06848  Biso   1.000  Cu
  Cu5      1.0000 0.69421  0.50018  0.56848  Biso   1.000  Cu
  Cu6      1.0000 0.30579  0.50018  0.93152  Biso   1.000  Cu
  Cu7      1.0000 0.19421  0.00018  0.56848  Biso   1.000  Cu
  Cu8      1.0000 0.80579  0.00018  0.93152  Biso   1.000  Cu
  N1       1.0000 0.37871  0.57600  0.50620  Biso   1.000  N
  N2       1.0000 0.62129  0.57600  0.99380  Biso   1.000  N
  N3       1.0000 0.87871  0.07600  0.50620  Biso   1.000  N
  N4       1.0000 0.12129  0.07600  0.99380  Biso   1.000  N
  N5       1.0000 0.62129  0.42400  0.49380  Biso   1.000  N
  N6       1.0000 0.37871  0.42400  0.00620  Biso   1.000  N
  N7       1.0000 0.12129  0.92400  0.49380  Biso   1.000  N
  N8       1.0000 0.87871  0.92400  0.00620  Biso   1.000  N
  N9       1.0000 0.74256  0.91240  0.87710  Biso   1.000  N
  N10      1.0000 0.25744  0.91240  0.62290  Biso   1.000  N
  N11      1.0000 0.24256  0.41240  0.87710  Biso   1.000  N
  N12      1.0000 0.75744  0.41240  0.62290  Biso   1.000  N
  N13      1.0000 0.25744  0.08760  0.12290  Biso   1.000  N
  N14      1.0000 0.74256  0.08760  0.37710  Biso   1.000  N
  N15      1.0000 0.75744  0.58760  0.12290  Biso   1.000  N
  N16      1.0000 0.24256  0.58760  0.37710  Biso   1.000  N
  N17      1.0000 0.23259  0.42510  0.34850  Biso   1.000  N
  N18      1.0000 0.76741  0.42510  0.15150  Biso   1.000  N
  N19      1.0000 0.73259  0.92510  0.34850  Biso   1.000  N
  N20      1.0000 0.26741  0.92510  0.15150  Biso   1.000  N
  N21      1.0000 0.76741  0.57490  0.65150  Biso   1.000  N
  N22      1.0000 0.23259  0.57490  0.84850  Biso   1.000  N
  N23      1.0000 0.26741  0.07490  0.65150  Biso   1.000  N
  N24      1.0000 0.73259  0.07490  0.84850  Biso   1.000  N
  N25      1.0000 0.87015  0.08730  0.99290  Biso   1.000  N
  N26      1.0000 0.12985  0.08730  0.50710  Biso   1.000  N
  N27      1.0000 0.37015  0.58730  0.99290  Biso   1.000  N
  N28      1.0000 0.62985  0.58730  0.50710  Biso   1.000  N
  N29      1.0000 0.12985  0.91270  0.00710  Biso   1.000  N
  N30      1.0000 0.87015  0.91270  0.49290  Biso   1.000  N
  N31      1.0000 0.62985  0.41270  0.00710  Biso   1.000  N
  N32      1.0000 0.37015  0.41270  0.49290  Biso   1.000  N
