data_image0
_cell_length_a       9.873
_cell_length_b       14.238
_cell_length_c       10.422
_cell_angle_alpha    90
_cell_angle_beta     94.302
_cell_angle_gamma    90

_symmetry_space_group_name_H-M    "P 1"
_symmetry_int_tables_number       1

loop_
  _symmetry_equiv_pos_as_xyz
  'x, y, z'

loop_
  _atom_site_label
  _atom_site_occupancy
  _atom_site_fract_x
  _atom_site_fract_y
  _atom_site_fract_z
  _atom_site_thermal_displace_type
  _atom_site_B_iso_or_equiv
  _atom_site_type_symbol
  Cu1      1.0000 0.12620  0.38110  0.87017  Biso   1.000  Cu
  Cu2      1.0000 0.87380  0.88110  0.12983  Biso   1.000  Cu
  O1       1.0000 0.70311  0.80862  0.09999  Biso   1.000  O
  O2       1.0000 0.29689  0.30862  0.90001  Biso   1.000  O
  C1       1.0000 0.64891  0.75395  0.17532  Biso   1.000  C
  C2       1.0000 0.35109  0.25395  0.82468  Biso   1.000  C
  C3       1.0000 0.70551  0.72379  0.29558  Biso   1.000  C
  C4       1.0000 0.29449  0.22379  0.70442  Biso   1.000  C
  C5       1.0000 0.83310  0.75825  0.34584  Biso   1.000  C
  C6       1.0000 0.16690  0.25825  0.65416  Biso   1.000  C
  O3       1.0000 0.87635  0.72443  0.46202  Biso   1.000  O
  O4       1.0000 0.12365  0.22443  0.53798  Biso   1.000  O
  C7       1.0000 0.99800  0.77693  0.50279  Biso   1.000  C
  C8       1.0000 0.00200  0.27693  0.49721  Biso   1.000  C
  H1       1.0000 0.98059  0.82183  0.56829  Biso   1.000  H
  H2       1.0000 0.01941  0.32183  0.43171  Biso   1.000  H
  H3       1.0000 0.06800  0.73445  0.53503  Biso   1.000  H
  H4       1.0000 0.93200  0.23445  0.46497  Biso   1.000  H
  C9       1.0000 0.03861  0.82656  0.38081  Biso   1.000  C
  C10      1.0000 0.96139  0.32656  0.61919  Biso   1.000  C
  H5       1.0000 0.06743  0.89017  0.39666  Biso   1.000  H
  H6       1.0000 0.93257  0.39017  0.60334  Biso   1.000  H
  N1       1.0000 0.91313  0.81616  0.29347  Biso   1.000  N
  N2       1.0000 0.08687  0.31616  0.70653  Biso   1.000  N
  O5       1.0000 0.01802  0.97328  0.18044  Biso   1.000  O
  O6       1.0000 0.98198  0.47328  0.81956  Biso   1.000  O
  C11      1.0000 0.02836  0.05803  0.14535  Biso   1.000  C
  C12      1.0000 0.97164  0.55803  0.85465  Biso   1.000  C
  C13      1.0000 0.94750  0.10157  0.04370  Biso   1.000  C
  C14      1.0000 0.05250  0.60157  0.95630  Biso   1.000  C
  C15      1.0000 0.84620  0.04906  0.97360  Biso   1.000  C
  C16      1.0000 0.15380  0.54906  0.02640  Biso   1.000  C
  O7       1.0000 0.77522  0.09826  0.87823  Biso   1.000  O
  O8       1.0000 0.22478  0.59826  0.12177  Biso   1.000  O
  C17      1.0000 0.67968  0.03511  0.81658  Biso   1.000  C
  C18      1.0000 0.32032  0.53511  0.18342  Biso   1.000  C
  H7       1.0000 0.58857  0.05698  0.82366  Biso   1.000  H
  H8       1.0000 0.41143  0.55698  0.17634  Biso   1.000  H
  H9       1.0000 0.69643  0.02919  0.72739  Biso   1.000  H
  H10      1.0000 0.30357  0.52919  0.27261  Biso   1.000  H
  C19      1.0000 0.70380  0.94001  0.88383  Biso   1.000  C
  C20      1.0000 0.29620  0.44001  0.11617  Biso   1.000  C
  H11      1.0000 0.62239  0.91629  0.91702  Biso   1.000  H
  H12      1.0000 0.37761  0.41629  0.08298  Biso   1.000  H
  N3       1.0000 0.81342  0.96255  0.98503  Biso   1.000  N
  N4       1.0000 0.18658  0.46255  0.01497  Biso   1.000  N
  O9       1.0000 0.52641  0.72002  0.14453  Biso   1.000  O
  O10      1.0000 0.47359  0.22002  0.85547  Biso   1.000  O
  C21      1.0000 0.45909  0.75396  0.02526  Biso   1.000  C
  C22      1.0000 0.54091  0.25396  0.97474  Biso   1.000  C
  H13      1.0000 0.37103  0.72542  0.01236  Biso   1.000  H
  H14      1.0000 0.62897  0.22542  0.98764  Biso   1.000  H
  H15      1.0000 0.51272  0.73709  0.95568  Biso   1.000  H
  H16      1.0000 0.48728  0.23709  0.04432  Biso   1.000  H
  H17      1.0000 0.44933  0.82100  0.02797  Biso   1.000  H
  H18      1.0000 0.55067  0.32100  0.97203  Biso   1.000  H
  C23      1.0000 0.63192  0.66018  0.36781  Biso   1.000  C
  C24      1.0000 0.36808  0.16018  0.63219  Biso   1.000  C
  N5       1.0000 0.57432  0.60942  0.42876  Biso   1.000  N
  N6       1.0000 0.42568  0.10942  0.57124  Biso   1.000  N
  C25      1.0000 0.16119  0.78653  0.32269  Biso   1.000  C
  C26      1.0000 0.83881  0.28653  0.67731  Biso   1.000  C
  H19      1.0000 0.14729  0.72006  0.31360  Biso   1.000  H
  H20      1.0000 0.85271  0.22006  0.68640  Biso   1.000  H
  H21      1.0000 0.16966  0.81395  0.23952  Biso   1.000  H
  H22      1.0000 0.83034  0.31395  0.76048  Biso   1.000  H
  C27      1.0000 0.29226  0.80184  0.40729  Biso   1.000  C
  C28      1.0000 0.70774  0.30184  0.59271  Biso   1.000  C
  H23      1.0000 0.36700  0.77383  0.36748  Biso   1.000  H
  H24      1.0000 0.63300  0.27383  0.63252  Biso   1.000  H
  H25      1.0000 0.28496  0.77429  0.49056  Biso   1.000  H
  H26      1.0000 0.71504  0.27429  0.50944  Biso   1.000  H
  H27      1.0000 0.30734  0.86818  0.41648  Biso   1.000  H
  H28      1.0000 0.69266  0.36818  0.58352  Biso   1.000  H
  O11      1.0000 0.12152  0.11335  0.20527  Biso   1.000  O
  O12      1.0000 0.87848  0.61335  0.79473  Biso   1.000  O
  C29      1.0000 0.21050  0.07326  0.30498  Biso   1.000  C
  C30      1.0000 0.78950  0.57326  0.69502  Biso   1.000  C
  H29      1.0000 0.27253  0.12019  0.34005  Biso   1.000  H
  H30      1.0000 0.72747  0.62019  0.65995  Biso   1.000  H
  H31      1.0000 0.26067  0.02258  0.27054  Biso   1.000  H
  H32      1.0000 0.73933  0.52258  0.72946  Biso   1.000  H
  H33      1.0000 0.15752  0.04982  0.37160  Biso   1.000  H
  H34      1.0000 0.84248  0.54982  0.62840  Biso   1.000  H
  C31      1.0000 0.97260  0.19579  0.01377  Biso   1.000  C
  C32      1.0000 0.02740  0.69579  0.98623  Biso   1.000  C
  N7       1.0000 0.99549  0.27290  0.98878  Biso   1.000  N
  N8       1.0000 0.00451  0.77290  0.01122  Biso   1.000  N
  C33      1.0000 0.74701  0.86343  0.79304  Biso   1.000  C
  C34      1.0000 0.25299  0.36343  0.20696  Biso   1.000  C
  H35      1.0000 0.82338  0.88506  0.74941  Biso   1.000  H
  H36      1.0000 0.17662  0.38506  0.25059  Biso   1.000  H
  H37      1.0000 0.77274  0.80898  0.84346  Biso   1.000  H
  H38      1.0000 0.22726  0.30898  0.15654  Biso   1.000  H
  C35      1.0000 0.63384  0.83601  0.69468  Biso   1.000  C
  C36      1.0000 0.36616  0.33601  0.30532  Biso   1.000  C
  H39      1.0000 0.66409  0.78727  0.63995  Biso   1.000  H
  H40      1.0000 0.33591  0.28727  0.36005  Biso   1.000  H
  H41      1.0000 0.60790  0.89014  0.64368  Biso   1.000  H
  H42      1.0000 0.39210  0.39014  0.35632  Biso   1.000  H
  H43      1.0000 0.55725  0.81406  0.73773  Biso   1.000  H
  H44      1.0000 0.44275  0.31406  0.26227  Biso   1.000  H
  C37      1.0000 0.34925  0.55369  0.62048  Biso   1.000  C
  C38      1.0000 0.65075  0.05369  0.37952  Biso   1.000  C
  H45      1.0000 0.41116  0.58397  0.56697  Biso   1.000  H
  H46      1.0000 0.58884  0.08397  0.43303  Biso   1.000  H
  Cl1      1.0000 0.42103  0.44990  0.67152  Biso   1.000  Cl
  Cl2      1.0000 0.57897  0.94990  0.32848  Biso   1.000  Cl
  Cl3      1.0000 0.19246  0.52731  0.53916  Biso   1.000  Cl
  Cl4      1.0000 0.80754  0.02731  0.46084  Biso   1.000  Cl
  Cl5      1.0000 0.32391  0.62969  0.73536  Biso   1.000  Cl
  Cl6      1.0000 0.67609  0.12969  0.26464  Biso   1.000  Cl
  C39      1.0000 0.15950  0.95036  0.84472  Biso   1.000  C
  C40      1.0000 0.84050  0.45036  0.15528  Biso   1.000  C
  H47      1.0000 0.09308  0.92472  0.89764  Biso   1.000  H
  H48      1.0000 0.90692  0.42472  0.10236  Biso   1.000  H
  Cl7      1.0000 0.07350  0.02173  0.73238  Biso   1.000  Cl
  Cl8      1.0000 0.92650  0.52173  0.26762  Biso   1.000  Cl
  Cl9      1.0000 0.27985  0.01410  0.94069  Biso   1.000  Cl
  Cl10     1.0000 0.72015  0.51410  0.05931  Biso   1.000  Cl
  Cl11     1.0000 0.23937  0.85679  0.76939  Biso   1.000  Cl
  Cl12     1.0000 0.76063  0.35679  0.23061  Biso   1.000  Cl
