data_image0
_cell_length_a       9.8145
_cell_length_b       14.189
_cell_length_c       10.397
_cell_angle_alpha    90
_cell_angle_beta     94.303
_cell_angle_gamma    90

_symmetry_space_group_name_H-M    "P 1"
_symmetry_int_tables_number       1

loop_
  _symmetry_equiv_pos_as_xyz
  'x, y, z'

loop_
  _atom_site_label
  _atom_site_occupancy
  _atom_site_fract_x
  _atom_site_fract_y
  _atom_site_fract_z
  _atom_site_thermal_displace_type
  _atom_site_B_iso_or_equiv
  _atom_site_type_symbol
  Cu1      1.0000 0.37426  0.01450  0.62978  Biso   1.000  Cu
  Cu2      1.0000 0.62574  0.51450  0.37022  Biso   1.000  Cu
  C1       1.0000 0.04290  0.64090  0.47430  Biso   1.000  C
  C2       1.0000 0.95710  0.14090  0.52570  Biso   1.000  C
  H1       1.0000 0.13090  0.67020  0.48840  Biso   1.000  H
  H2       1.0000 0.86910  0.17020  0.51160  Biso   1.000  H
  H3       1.0000 0.05400  0.57390  0.46780  Biso   1.000  H
  H4       1.0000 0.94600  0.07390  0.53220  Biso   1.000  H
  H5       1.0000 0.98900  0.65510  0.54520  Biso   1.000  H
  H6       1.0000 0.01100  0.15510  0.45480  Biso   1.000  H
  C3       1.0000 0.85050  0.64180  0.32370  Biso   1.000  C
  C4       1.0000 0.14950  0.14180  0.67630  Biso   1.000  C
  C5       1.0000 0.79460  0.67200  0.20500  Biso   1.000  C
  C6       1.0000 0.20540  0.17200  0.79500  Biso   1.000  C
  C7       1.0000 0.86820  0.73610  0.13210  Biso   1.000  C
  C8       1.0000 0.13180  0.23610  0.86790  Biso   1.000  C
  C9       1.0000 0.66540  0.63750  0.15480  Biso   1.000  C
  C10      1.0000 0.33460  0.13750  0.84520  Biso   1.000  C
  O1       1.0000 0.62270  0.67090  0.03750  Biso   1.000  O
  O2       1.0000 0.37730  0.17090  0.96250  Biso   1.000  O
  C11      1.0000 0.50130  0.61770  0.99760  Biso   1.000  C
  C12      1.0000 0.49870  0.11770  0.00240  Biso   1.000  C
  H7       1.0000 0.52030  0.57200  0.93190  Biso   1.000  H
  H8       1.0000 0.47970  0.07200  0.06810  Biso   1.000  H
  H9       1.0000 0.42890  0.65920  0.96320  Biso   1.000  H
  H10      1.0000 0.57110  0.15920  0.03680  Biso   1.000  H
  C13      1.0000 0.46090  0.56900  0.11760  Biso   1.000  C
  C14      1.0000 0.53910  0.06900  0.88240  Biso   1.000  C
  H11      1.0000 0.44370  0.50210  0.09930  Biso   1.000  H
  H12      1.0000 0.55630  0.00210  0.90070  Biso   1.000  H
  C15      1.0000 0.33910  0.61150  0.17600  Biso   1.000  C
  C16      1.0000 0.66090  0.11150  0.82400  Biso   1.000  C
  H13      1.0000 0.35390  0.67860  0.18810  Biso   1.000  H
  H14      1.0000 0.64610  0.17860  0.81190  Biso   1.000  H
  H15      1.0000 0.33000  0.58360  0.26010  Biso   1.000  H
  H16      1.0000 0.67000  0.08360  0.73990  Biso   1.000  H
  C17      1.0000 0.20730  0.59600  0.09140  Biso   1.000  C
  C18      1.0000 0.79270  0.09600  0.90860  Biso   1.000  C
  H17      1.0000 0.13230  0.62410  0.13170  Biso   1.000  H
  H18      1.0000 0.86770  0.12410  0.86830  Biso   1.000  H
  H19      1.0000 0.19120  0.52960  0.08070  Biso   1.000  H
  H20      1.0000 0.80880  0.02960  0.91930  Biso   1.000  H
  H21      1.0000 0.21530  0.62450  0.00860  Biso   1.000  H
  H22      1.0000 0.78470  0.12450  0.99140  Biso   1.000  H
  C19      1.0000 0.28740  0.32230  0.19540  Biso   1.000  C
  C20      1.0000 0.71260  0.82230  0.80460  Biso   1.000  C
  H23      1.0000 0.22490  0.27480  0.16150  Biso   1.000  H
  H24      1.0000 0.77510  0.77480  0.83850  Biso   1.000  H
  H25      1.0000 0.33970  0.34550  0.12770  Biso   1.000  H
  H26      1.0000 0.66030  0.84550  0.87230  Biso   1.000  H
  H27      1.0000 0.23700  0.37330  0.22970  Biso   1.000  H
  H28      1.0000 0.76300  0.87330  0.77030  Biso   1.000  H
  C21      1.0000 0.47110  0.33760  0.35390  Biso   1.000  C
  C22      1.0000 0.52890  0.83760  0.64610  Biso   1.000  C
  C23      1.0000 0.55230  0.29460  0.45460  Biso   1.000  C
  C24      1.0000 0.44770  0.79460  0.54540  Biso   1.000  C
  C25      1.0000 0.52720  0.20010  0.48640  Biso   1.000  C
  C26      1.0000 0.47280  0.70010  0.51360  Biso   1.000  C
  C27      1.0000 0.65440  0.34630  0.52760  Biso   1.000  C
  C28      1.0000 0.34560  0.84630  0.47240  Biso   1.000  C
  O3       1.0000 0.72490  0.29790  0.62170  Biso   1.000  O
  O4       1.0000 0.27510  0.79790  0.37830  Biso   1.000  O
  C29      1.0000 0.82130  0.36170  0.68400  Biso   1.000  C
  C30      1.0000 0.17870  0.86170  0.31600  Biso   1.000  C
  H29      1.0000 0.91400  0.34020  0.67510  Biso   1.000  H
  H30      1.0000 0.08600  0.84020  0.32490  Biso   1.000  H
  H31      1.0000 0.80710  0.36690  0.77500  Biso   1.000  H
  H32      1.0000 0.19290  0.86690  0.22500  Biso   1.000  H
  C31      1.0000 0.79650  0.45640  0.61660  Biso   1.000  C
  C32      1.0000 0.20350  0.95640  0.38340  Biso   1.000  C
  H33      1.0000 0.87930  0.47640  0.57710  Biso   1.000  H
  H34      1.0000 0.12070  0.97640  0.42290  Biso   1.000  H
  C33      1.0000 0.75280  0.53190  0.70710  Biso   1.000  C
  C34      1.0000 0.24720  0.03190  0.29290  Biso   1.000  C
  H35      1.0000 0.67470  0.50960  0.75020  Biso   1.000  H
  H36      1.0000 0.32530  0.00960  0.24980  Biso   1.000  H
  H37      1.0000 0.72450  0.58730  0.65730  Biso   1.000  H
  H38      1.0000 0.27550  0.08730  0.34270  Biso   1.000  H
  C35      1.0000 0.86580  0.55900  0.80750  Biso   1.000  C
  C36      1.0000 0.13420  0.05900  0.19250  Biso   1.000  C
  H39      1.0000 0.83340  0.60710  0.86250  Biso   1.000  H
  H40      1.0000 0.16660  0.10710  0.13750  Biso   1.000  H
  H41      1.0000 0.94270  0.58230  0.76540  Biso   1.000  H
  H42      1.0000 0.05730  0.08230  0.23460  Biso   1.000  H
  H43      1.0000 0.89280  0.50470  0.85830  Biso   1.000  H
  H44      1.0000 0.10720  0.00470  0.14170  Biso   1.000  H
  N1       1.0000 0.92620  0.78700  0.07260  Biso   1.000  N
  N2       1.0000 0.07380  0.28700  0.92740  Biso   1.000  N
  N3       1.0000 0.58660  0.57910  0.20630  Biso   1.000  N
  N4       1.0000 0.41340  0.07910  0.79370  Biso   1.000  N
  N5       1.0000 0.50660  0.12270  0.51190  Biso   1.000  N
  N6       1.0000 0.49340  0.62270  0.48810  Biso   1.000  N
  N7       1.0000 0.68760  0.43380  0.51470  Biso   1.000  N
  N8       1.0000 0.31240  0.93380  0.48530  Biso   1.000  N
  O5       1.0000 0.97480  0.67640  0.35640  Biso   1.000  O
  O6       1.0000 0.02520  0.17640  0.64360  Biso   1.000  O
  O7       1.0000 0.79650  0.58750  0.39960  Biso   1.000  O
  O8       1.0000 0.20350  0.08750  0.60040  Biso   1.000  O
  O9       1.0000 0.37760  0.28250  0.29580  Biso   1.000  O
  O10      1.0000 0.62240  0.78250  0.70420  Biso   1.000  O
  O11      1.0000 0.48090  0.42200  0.31990  Biso   1.000  O
  O12      1.0000 0.51910  0.92200  0.68010  Biso   1.000  O
  C37      1.0000 0.66270  0.94640  0.34720  Biso   1.000  C
  C38      1.0000 0.33730  0.44640  0.65280  Biso   1.000  C
  H45      1.0000 0.59670  0.97310  0.40330  Biso   1.000  H
  H46      1.0000 0.40330  0.47310  0.59670  Biso   1.000  H
  Cl1      1.0000 0.57430  0.87360  0.23310  Biso   1.000  Cl
  Cl2      1.0000 0.42570  0.37360  0.76690  Biso   1.000  Cl
  Cl3      1.0000 0.74050  0.03920  0.26960  Biso   1.000  Cl
  Cl4      1.0000 0.25950  0.53920  0.73040  Biso   1.000  Cl
  Cl5      1.0000 0.78100  0.88180  0.44110  Biso   1.000  Cl
  Cl6      1.0000 0.21900  0.38180  0.55890  Biso   1.000  Cl
  C39      1.0000 0.84930  0.34180  0.11810  Biso   1.000  C
  C40      1.0000 0.15070  0.84180  0.88190  Biso   1.000  C
  H47      1.0000 0.90780  0.31280  0.05670  Biso   1.000  H
  H48      1.0000 0.09220  0.81280  0.94330  Biso   1.000  H
  Cl7      1.0000 0.91950  0.44630  0.16810  Biso   1.000  Cl
  Cl8      1.0000 0.08050  0.94630  0.83190  Biso   1.000  Cl
  Cl9      1.0000 0.82490  0.26400  0.23550  Biso   1.000  Cl
  Cl10     1.0000 0.17510  0.76400  0.76450  Biso   1.000  Cl
  Cl11     1.0000 0.68800  0.36620  0.03760  Biso   1.000  Cl
  Cl12     1.0000 0.31200  0.86620  0.96240  Biso   1.000  Cl
