data_image0
_cell_length_a       7.303
_cell_length_b       13.838
_cell_length_c       11.019
_cell_angle_alpha    90
_cell_angle_beta     101.67
_cell_angle_gamma    90

_symmetry_space_group_name_H-M    "P 1"
_symmetry_int_tables_number       1

loop_
  _symmetry_equiv_pos_as_xyz
  'x, y, z'

loop_
  _atom_site_label
  _atom_site_occupancy
  _atom_site_fract_x
  _atom_site_fract_y
  _atom_site_fract_z
  _atom_site_thermal_displace_type
  _atom_site_B_iso_or_equiv
  _atom_site_type_symbol
  Cu1      1.0000 0.13564  0.75407  0.33064  Biso   1.000  Cu
  Cu2      1.0000 0.36436  0.25407  0.66936  Biso   1.000  Cu
  Cu3      1.0000 0.86436  0.24593  0.66936  Biso   1.000  Cu
  Cu4      1.0000 0.63564  0.74593  0.33064  Biso   1.000  Cu
  Cl1      1.0000 0.88505  0.89749  0.32736  Biso   1.000  Cl
  Cl2      1.0000 0.61495  0.39749  0.67264  Biso   1.000  Cl
  Cl3      1.0000 0.11495  0.10251  0.67264  Biso   1.000  Cl
  Cl4      1.0000 0.38505  0.60251  0.32736  Biso   1.000  Cl
  N1       1.0000 0.75630  0.68346  0.20228  Biso   1.000  N
  N2       1.0000 0.74370  0.18346  0.79772  Biso   1.000  N
  N3       1.0000 0.24370  0.31654  0.79772  Biso   1.000  N
  N4       1.0000 0.25630  0.81654  0.20228  Biso   1.000  N
  N5       1.0000 0.94140  0.69428  0.19594  Biso   1.000  N
  N6       1.0000 0.55860  0.19428  0.80406  Biso   1.000  N
  N7       1.0000 0.05860  0.30572  0.80406  Biso   1.000  N
  N8       1.0000 0.44140  0.80572  0.19594  Biso   1.000  N
  C1       1.0000 0.96700  0.64876  0.09670  Biso   1.000  C
  C2       1.0000 0.53300  0.14876  0.90330  Biso   1.000  C
  C3       1.0000 0.03300  0.35124  0.90330  Biso   1.000  C
  C4       1.0000 0.46700  0.85124  0.09670  Biso   1.000  C
  H1       1.0000 0.08180  0.64510  0.06890  Biso   1.000  H
  H2       1.0000 0.41820  0.14510  0.93110  Biso   1.000  H
  H3       1.0000 0.91820  0.35490  0.93110  Biso   1.000  H
  H4       1.0000 0.58180  0.85490  0.06890  Biso   1.000  H
  N9       1.0000 0.80450  0.60776  0.04011  Biso   1.000  N
  N10      1.0000 0.69550  0.10776  0.95989  Biso   1.000  N
  N11      1.0000 0.19550  0.39224  0.95989  Biso   1.000  N
  N12      1.0000 0.30450  0.89224  0.04011  Biso   1.000  N
  C5       1.0000 0.67720  0.63073  0.10810  Biso   1.000  C
  C6       1.0000 0.82280  0.13073  0.89190  Biso   1.000  C
  C7       1.0000 0.32280  0.36927  0.89190  Biso   1.000  C
  C8       1.0000 0.17720  0.86927  0.10810  Biso   1.000  C
  H5       1.0000 0.54970  0.61160  0.09030  Biso   1.000  H
  H6       1.0000 0.95030  0.11160  0.90970  Biso   1.000  H
  H7       1.0000 0.45030  0.38840  0.90970  Biso   1.000  H
  H8       1.0000 0.04970  0.88840  0.09030  Biso   1.000  H
  N13      1.0000 0.78350  0.55245  0.93026  Biso   1.000  N
  N14      1.0000 0.71650  0.05245  0.06974  Biso   1.000  N
  N15      1.0000 0.21650  0.44755  0.06974  Biso   1.000  N
  N16      1.0000 0.28350  0.94755  0.93026  Biso   1.000  N
  H9       1.0000 0.70980  0.58800  0.87450  Biso   1.000  H
  H10      1.0000 0.79020  0.08800  0.12550  Biso   1.000  H
  H11      1.0000 0.29020  0.41200  0.12550  Biso   1.000  H
  H12      1.0000 0.20980  0.91200  0.87450  Biso   1.000  H
  H13      1.0000 0.74460  0.49610  0.95200  Biso   1.000  H
  H14      1.0000 0.75540  0.99610  0.04800  Biso   1.000  H
  H15      1.0000 0.25540  0.50390  0.04800  Biso   1.000  H
  H16      1.0000 0.24460  0.00390  0.95200  Biso   1.000  H
  N17      1.0000 0.83380  0.68587  0.46183  Biso   1.000  N
  N18      1.0000 0.66620  0.18587  0.53817  Biso   1.000  N
  N19      1.0000 0.16620  0.31413  0.53817  Biso   1.000  N
  N20      1.0000 0.33380  0.81413  0.46183  Biso   1.000  N
  N21      1.0000 0.02100  0.68552  0.45898  Biso   1.000  N
  N22      1.0000 0.47900  0.18552  0.54102  Biso   1.000  N
  N23      1.0000 0.97900  0.31448  0.54102  Biso   1.000  N
  N24      1.0000 0.52100  0.81448  0.45898  Biso   1.000  N
  C9       1.0000 0.10350  0.62582  0.54590  Biso   1.000  C
  C10      1.0000 0.39650  0.12582  0.45410  Biso   1.000  C
  C11      1.0000 0.89650  0.37418  0.45410  Biso   1.000  C
  C12      1.0000 0.60350  0.87418  0.54590  Biso   1.000  C
  H17      1.0000 0.23320  0.61110  0.56420  Biso   1.000  H
  H18      1.0000 0.26680  0.11110  0.43580  Biso   1.000  H
  H19      1.0000 0.76680  0.38890  0.43580  Biso   1.000  H
  H20      1.0000 0.73320  0.88890  0.56420  Biso   1.000  H
  N25      1.0000 0.97440  0.58892  0.60474  Biso   1.000  N
  N26      1.0000 0.52560  0.08892  0.39526  Biso   1.000  N
  N27      1.0000 0.02560  0.41108  0.39526  Biso   1.000  N
  N28      1.0000 0.47440  0.91108  0.60474  Biso   1.000  N
  C13      1.0000 0.80820  0.62776  0.55100  Biso   1.000  C
  C14      1.0000 0.69180  0.12776  0.44900  Biso   1.000  C
  C15      1.0000 0.19180  0.37224  0.44900  Biso   1.000  C
  C16      1.0000 0.30820  0.87224  0.55100  Biso   1.000  C
  H21      1.0000 0.69200  0.61510  0.57400  Biso   1.000  H
  H22      1.0000 0.80800  0.11510  0.42600  Biso   1.000  H
  H23      1.0000 0.30800  0.38490  0.42600  Biso   1.000  H
  H24      1.0000 0.19200  0.88490  0.57400  Biso   1.000  H
  N29      1.0000 0.01180  0.51863  0.69908  Biso   1.000  N
  N30      1.0000 0.48820  0.01863  0.30092  Biso   1.000  N
  N31      1.0000 0.98820  0.48137  0.30092  Biso   1.000  N
  N32      1.0000 0.51180  0.98137  0.69908  Biso   1.000  N
  H25      1.0000 0.90410  0.48840  0.69240  Biso   1.000  H
  H26      1.0000 0.59590  0.98840  0.30760  Biso   1.000  H
  H27      1.0000 0.09590  0.51160  0.30760  Biso   1.000  H
  H28      1.0000 0.40410  0.01160  0.69240  Biso   1.000  H
  H29      1.0000 0.05730  0.55200  0.76640  Biso   1.000  H
  H30      1.0000 0.44270  0.05200  0.23360  Biso   1.000  H
  H31      1.0000 0.94270  0.44800  0.23360  Biso   1.000  H
  H32      1.0000 0.55730  0.94800  0.76640  Biso   1.000  H
  Cl5      1.0000 0.22500  0.14799  0.09335  Biso   1.000  Cl
  Cl6      1.0000 0.27500  0.64799  0.90665  Biso   1.000  Cl
  Cl7      1.0000 0.77500  0.85201  0.90665  Biso   1.000  Cl
  Cl8      1.0000 0.72500  0.35201  0.09335  Biso   1.000  Cl
  O1       1.0000 0.94730  0.18721  0.26800  Biso   1.000  O
  O2       1.0000 0.55270  0.68721  0.73200  Biso   1.000  O
  O3       1.0000 0.05270  0.81279  0.73200  Biso   1.000  O
  O4       1.0000 0.44730  0.31279  0.26800  Biso   1.000  O
  H33      1.0000 0.89150  0.23360  0.23170  Biso   1.000  H
  H34      1.0000 0.60850  0.73360  0.76830  Biso   1.000  H
  H35      1.0000 0.10850  0.76640  0.76830  Biso   1.000  H
  H36      1.0000 0.39150  0.26640  0.23170  Biso   1.000  H
  H37      1.0000 0.02950  0.17220  0.23070  Biso   1.000  H
  H38      1.0000 0.47050  0.67220  0.76930  Biso   1.000  H
  H39      1.0000 0.97050  0.82780  0.76930  Biso   1.000  H
  H40      1.0000 0.52950  0.32780  0.23070  Biso   1.000  H
