data_image0
_cell_length_a       7.2425
_cell_length_b       16.6599
_cell_length_c       21.341
_cell_angle_alpha    90
_cell_angle_beta     90
_cell_angle_gamma    90

_symmetry_space_group_name_H-M    "P 1"
_symmetry_int_tables_number       1

loop_
  _symmetry_equiv_pos_as_xyz
  'x, y, z'

loop_
  _atom_site_label
  _atom_site_occupancy
  _atom_site_fract_x
  _atom_site_fract_y
  _atom_site_fract_z
  _atom_site_thermal_displace_type
  _atom_site_B_iso_or_equiv
  _atom_site_type_symbol
  Cu1      1.0000 0.32444  0.22330  0.71149  Biso   1.000  Cu
  Cu2      1.0000 0.17556  0.77670  0.21149  Biso   1.000  Cu
  Cu3      1.0000 0.67556  0.72330  0.78851  Biso   1.000  Cu
  Cu4      1.0000 0.82444  0.27670  0.28851  Biso   1.000  Cu
  Cu5      1.0000 0.67556  0.77670  0.28851  Biso   1.000  Cu
  Cu6      1.0000 0.82444  0.22330  0.78851  Biso   1.000  Cu
  Cu7      1.0000 0.32444  0.27670  0.21149  Biso   1.000  Cu
  Cu8      1.0000 0.17556  0.72330  0.71149  Biso   1.000  Cu
  Cl1      1.0000 0.51772  0.13969  0.76832  Biso   1.000  Cl
  Cl2      1.0000 0.98228  0.86031  0.26832  Biso   1.000  Cl
  Cl3      1.0000 0.48228  0.63969  0.73168  Biso   1.000  Cl
  Cl4      1.0000 0.01772  0.36031  0.23168  Biso   1.000  Cl
  Cl5      1.0000 0.48228  0.86031  0.23168  Biso   1.000  Cl
  Cl6      1.0000 0.01772  0.13969  0.73168  Biso   1.000  Cl
  Cl7      1.0000 0.51772  0.36031  0.26832  Biso   1.000  Cl
  Cl8      1.0000 0.98228  0.63969  0.76832  Biso   1.000  Cl
  O1       1.0000 0.14130  0.50050  0.59767  Biso   1.000  O
  O2       1.0000 0.35870  0.49950  0.09767  Biso   1.000  O
  O3       1.0000 0.85870  0.00050  0.90233  Biso   1.000  O
  O4       1.0000 0.64130  0.99950  0.40233  Biso   1.000  O
  O5       1.0000 0.85870  0.49950  0.40233  Biso   1.000  O
  O6       1.0000 0.64130  0.50050  0.90233  Biso   1.000  O
  O7       1.0000 0.14130  0.99950  0.09767  Biso   1.000  O
  O8       1.0000 0.35870  0.00050  0.59767  Biso   1.000  O
  O9       1.0000 0.22670  0.23555  0.55427  Biso   1.000  O
  O10      1.0000 0.27330  0.76445  0.05427  Biso   1.000  O
  O11      1.0000 0.77330  0.73555  0.94573  Biso   1.000  O
  O12      1.0000 0.72670  0.26445  0.44573  Biso   1.000  O
  O13      1.0000 0.77330  0.76445  0.44573  Biso   1.000  O
  O14      1.0000 0.72670  0.23555  0.94573  Biso   1.000  O
  O15      1.0000 0.22670  0.26445  0.05427  Biso   1.000  O
  O16      1.0000 0.27330  0.73555  0.55427  Biso   1.000  O
  O17      1.0000 0.38790  0.15282  0.64007  Biso   1.000  O
  O18      1.0000 0.11210  0.84718  0.14007  Biso   1.000  O
  O19      1.0000 0.61210  0.65282  0.85993  Biso   1.000  O
  O20      1.0000 0.88790  0.34718  0.35993  Biso   1.000  O
  O21      1.0000 0.61210  0.84718  0.35993  Biso   1.000  O
  O22      1.0000 0.88790  0.15282  0.85993  Biso   1.000  O
  O23      1.0000 0.38790  0.34718  0.14007  Biso   1.000  O
  O24      1.0000 0.11210  0.65282  0.64007  Biso   1.000  O
  H1       1.0000 0.38420  0.10440  0.64670  Biso   1.000  H
  H2       1.0000 0.11580  0.89560  0.14670  Biso   1.000  H
  H3       1.0000 0.61580  0.60440  0.85330  Biso   1.000  H
  H4       1.0000 0.88420  0.39560  0.35330  Biso   1.000  H
  H5       1.0000 0.61580  0.89560  0.35330  Biso   1.000  H
  H6       1.0000 0.88420  0.10440  0.85330  Biso   1.000  H
  H7       1.0000 0.38420  0.39560  0.14670  Biso   1.000  H
  H8       1.0000 0.11580  0.60440  0.64670  Biso   1.000  H
  H9       1.0000 0.33100  0.17420  0.61140  Biso   1.000  H
  H10      1.0000 0.16900  0.82580  0.11140  Biso   1.000  H
  H11      1.0000 0.66900  0.67420  0.88860  Biso   1.000  H
  H12      1.0000 0.83100  0.32580  0.38860  Biso   1.000  H
  H13      1.0000 0.66900  0.82580  0.38860  Biso   1.000  H
  H14      1.0000 0.83100  0.17420  0.88860  Biso   1.000  H
  H15      1.0000 0.33100  0.32580  0.11140  Biso   1.000  H
  H16      1.0000 0.16900  0.67420  0.61140  Biso   1.000  H
  N1       1.0000 0.27450  0.30031  0.78408  Biso   1.000  N
  N2       1.0000 0.22550  0.69969  0.28408  Biso   1.000  N
  N3       1.0000 0.72550  0.80031  0.71592  Biso   1.000  N
  N4       1.0000 0.77450  0.19969  0.21592  Biso   1.000  N
  N5       1.0000 0.72550  0.69969  0.21592  Biso   1.000  N
  N6       1.0000 0.77450  0.30031  0.71592  Biso   1.000  N
  N7       1.0000 0.27450  0.19969  0.28408  Biso   1.000  N
  N8       1.0000 0.22550  0.80031  0.78408  Biso   1.000  N
  N9       1.0000 0.25190  0.30541  0.64897  Biso   1.000  N
  N10      1.0000 0.24810  0.69459  0.14897  Biso   1.000  N
  N11      1.0000 0.74810  0.80541  0.85103  Biso   1.000  N
  N12      1.0000 0.75190  0.19459  0.35103  Biso   1.000  N
  N13      1.0000 0.74810  0.69459  0.35103  Biso   1.000  N
  N14      1.0000 0.75190  0.30541  0.85103  Biso   1.000  N
  N15      1.0000 0.25190  0.19459  0.14897  Biso   1.000  N
  N16      1.0000 0.24810  0.80541  0.64897  Biso   1.000  N
  N17      1.0000 0.17600  0.37169  0.55966  Biso   1.000  N
  N18      1.0000 0.32400  0.62831  0.05966  Biso   1.000  N
  N19      1.0000 0.82400  0.87169  0.94034  Biso   1.000  N
  N20      1.0000 0.67600  0.12831  0.44034  Biso   1.000  N
  N21      1.0000 0.82400  0.62831  0.44034  Biso   1.000  N
  N22      1.0000 0.67600  0.37169  0.94034  Biso   1.000  N
  N23      1.0000 0.17600  0.12831  0.05966  Biso   1.000  N
  N24      1.0000 0.32400  0.87169  0.55966  Biso   1.000  N
  C1       1.0000 0.24310  0.38080  0.78009  Biso   1.000  C
  C2       1.0000 0.25690  0.61920  0.28009  Biso   1.000  C
  C3       1.0000 0.75690  0.88080  0.71991  Biso   1.000  C
  C4       1.0000 0.74310  0.11920  0.21991  Biso   1.000  C
  C5       1.0000 0.75690  0.61920  0.21991  Biso   1.000  C
  C6       1.0000 0.74310  0.38080  0.71991  Biso   1.000  C
  C7       1.0000 0.24310  0.11920  0.28009  Biso   1.000  C
  C8       1.0000 0.25690  0.88080  0.78009  Biso   1.000  C
  C9       1.0000 0.21830  0.42720  0.83411  Biso   1.000  C
  C10      1.0000 0.28170  0.57280  0.33411  Biso   1.000  C
  C11      1.0000 0.78170  0.92720  0.66589  Biso   1.000  C
  C12      1.0000 0.71830  0.07280  0.16589  Biso   1.000  C
  C13      1.0000 0.78170  0.57280  0.16589  Biso   1.000  C
  C14      1.0000 0.71830  0.42720  0.66589  Biso   1.000  C
  C15      1.0000 0.21830  0.07280  0.33411  Biso   1.000  C
  C16      1.0000 0.28170  0.92720  0.83411  Biso   1.000  C
  H17      1.0000 0.19930  0.48340  0.83050  Biso   1.000  H
  H18      1.0000 0.30070  0.51660  0.33050  Biso   1.000  H
  H19      1.0000 0.80070  0.98340  0.66950  Biso   1.000  H
  H20      1.0000 0.69930  0.01660  0.16950  Biso   1.000  H
  H21      1.0000 0.80070  0.51660  0.16950  Biso   1.000  H
  H22      1.0000 0.69930  0.48340  0.66950  Biso   1.000  H
  H23      1.0000 0.19930  0.01660  0.33050  Biso   1.000  H
  H24      1.0000 0.30070  0.98340  0.83050  Biso   1.000  H
  C17      1.0000 0.22140  0.39180  0.89240  Biso   1.000  C
  C18      1.0000 0.27860  0.60820  0.39240  Biso   1.000  C
  C19      1.0000 0.77860  0.89180  0.60760  Biso   1.000  C
  C20      1.0000 0.72140  0.10820  0.10760  Biso   1.000  C
  C21      1.0000 0.77860  0.60820  0.10760  Biso   1.000  C
  C22      1.0000 0.72140  0.39180  0.60760  Biso   1.000  C
  C23      1.0000 0.22140  0.10820  0.39240  Biso   1.000  C
  C24      1.0000 0.27860  0.89180  0.89240  Biso   1.000  C
  H25      1.0000 0.20570  0.42320  0.92920  Biso   1.000  H
  H26      1.0000 0.29430  0.57680  0.42920  Biso   1.000  H
  H27      1.0000 0.79430  0.92320  0.57080  Biso   1.000  H
  H28      1.0000 0.70570  0.07680  0.07080  Biso   1.000  H
  H29      1.0000 0.79430  0.57680  0.07080  Biso   1.000  H
  H30      1.0000 0.70570  0.42320  0.57080  Biso   1.000  H
  H31      1.0000 0.20570  0.07680  0.42920  Biso   1.000  H
  H32      1.0000 0.29430  0.92320  0.92920  Biso   1.000  H
  C25      1.0000 0.24780  0.30950  0.89644  Biso   1.000  C
  C26      1.0000 0.25220  0.69050  0.39644  Biso   1.000  C
  C27      1.0000 0.75220  0.80950  0.60356  Biso   1.000  C
  C28      1.0000 0.74780  0.19050  0.10356  Biso   1.000  C
  C29      1.0000 0.75220  0.69050  0.10356  Biso   1.000  C
  C30      1.0000 0.74780  0.30950  0.60356  Biso   1.000  C
  C31      1.0000 0.24780  0.19050  0.39644  Biso   1.000  C
  C32      1.0000 0.25220  0.80950  0.89644  Biso   1.000  C
  H33      1.0000 0.24800  0.28340  0.93600  Biso   1.000  H
  H34      1.0000 0.25200  0.71660  0.43600  Biso   1.000  H
  H35      1.0000 0.75200  0.78340  0.56400  Biso   1.000  H
  H36      1.0000 0.74800  0.21660  0.06400  Biso   1.000  H
  H37      1.0000 0.75200  0.71660  0.06400  Biso   1.000  H
  H38      1.0000 0.74800  0.28340  0.56400  Biso   1.000  H
  H39      1.0000 0.24800  0.21660  0.43600  Biso   1.000  H
  H40      1.0000 0.25200  0.78340  0.93600  Biso   1.000  H
  C33      1.0000 0.27380  0.26660  0.84218  Biso   1.000  C
  C34      1.0000 0.22620  0.73340  0.34218  Biso   1.000  C
  C35      1.0000 0.72620  0.76660  0.65782  Biso   1.000  C
  C36      1.0000 0.77380  0.23340  0.15782  Biso   1.000  C
  C37      1.0000 0.72620  0.73340  0.15782  Biso   1.000  C
  C38      1.0000 0.77380  0.26660  0.65782  Biso   1.000  C
  C39      1.0000 0.27380  0.23340  0.34218  Biso   1.000  C
  C40      1.0000 0.22620  0.76660  0.84218  Biso   1.000  C
  H41      1.0000 0.29230  0.21030  0.84540  Biso   1.000  H
  H42      1.0000 0.20770  0.78970  0.34540  Biso   1.000  H
  H43      1.0000 0.70770  0.71030  0.65460  Biso   1.000  H
  H44      1.0000 0.79230  0.28970  0.15460  Biso   1.000  H
  H45      1.0000 0.70770  0.78970  0.15460  Biso   1.000  H
  H46      1.0000 0.79230  0.21030  0.65460  Biso   1.000  H
  H47      1.0000 0.29230  0.28970  0.34540  Biso   1.000  H
  H48      1.0000 0.20770  0.71030  0.84540  Biso   1.000  H
  C41      1.0000 0.22640  0.42020  0.72035  Biso   1.000  C
  C42      1.0000 0.27360  0.57980  0.22035  Biso   1.000  C
  C43      1.0000 0.77360  0.92020  0.77965  Biso   1.000  C
  C44      1.0000 0.72640  0.07980  0.27965  Biso   1.000  C
  C45      1.0000 0.77360  0.57980  0.27965  Biso   1.000  C
  C46      1.0000 0.72640  0.42020  0.77965  Biso   1.000  C
  C47      1.0000 0.22640  0.07980  0.22035  Biso   1.000  C
  C48      1.0000 0.27360  0.92020  0.72035  Biso   1.000  C
  H49      1.0000 0.21520  0.47700  0.72110  Biso   1.000  H
  H50      1.0000 0.28480  0.52300  0.22110  Biso   1.000  H
  H51      1.0000 0.78480  0.97700  0.77890  Biso   1.000  H
  H52      1.0000 0.71520  0.02300  0.27890  Biso   1.000  H
  H53      1.0000 0.78480  0.52300  0.27890  Biso   1.000  H
  H54      1.0000 0.71520  0.47700  0.77890  Biso   1.000  H
  H55      1.0000 0.21520  0.02300  0.22110  Biso   1.000  H
  H56      1.0000 0.28480  0.97700  0.72110  Biso   1.000  H
  C49      1.0000 0.22510  0.38510  0.66354  Biso   1.000  C
  C50      1.0000 0.27490  0.61490  0.16354  Biso   1.000  C
  C51      1.0000 0.77490  0.88510  0.83646  Biso   1.000  C
  C52      1.0000 0.72510  0.11490  0.33646  Biso   1.000  C
  C53      1.0000 0.77490  0.61490  0.33646  Biso   1.000  C
  C54      1.0000 0.72510  0.38510  0.83646  Biso   1.000  C
  C55      1.0000 0.22510  0.11490  0.16354  Biso   1.000  C
  C56      1.0000 0.27490  0.88510  0.66354  Biso   1.000  C
  C57      1.0000 0.17770  0.42960  0.60506  Biso   1.000  C
  C58      1.0000 0.32230  0.57040  0.10506  Biso   1.000  C
  C59      1.0000 0.82230  0.92960  0.89494  Biso   1.000  C
  C60      1.0000 0.67770  0.07040  0.39494  Biso   1.000  C
  C61      1.0000 0.82230  0.57040  0.39494  Biso   1.000  C
  C62      1.0000 0.67770  0.42960  0.89494  Biso   1.000  C
  C63      1.0000 0.17770  0.07040  0.10506  Biso   1.000  C
  C64      1.0000 0.32230  0.92960  0.60506  Biso   1.000  C
  C65      1.0000 0.22000  0.29730  0.58621  Biso   1.000  C
  C66      1.0000 0.28000  0.70270  0.08621  Biso   1.000  C
  C67      1.0000 0.78000  0.79730  0.91379  Biso   1.000  C
  C68      1.0000 0.72000  0.20270  0.41379  Biso   1.000  C
  C69      1.0000 0.78000  0.70270  0.41379  Biso   1.000  C
  C70      1.0000 0.72000  0.29730  0.91379  Biso   1.000  C
  C71      1.0000 0.22000  0.20270  0.08621  Biso   1.000  C
  C72      1.0000 0.28000  0.79730  0.58621  Biso   1.000  C
  C73      1.0000 0.10610  0.38190  0.49605  Biso   1.000  C
  C74      1.0000 0.39390  0.61810  0.99605  Biso   1.000  C
  C75      1.0000 0.89390  0.88190  0.00395  Biso   1.000  C
  C76      1.0000 0.60610  0.11810  0.50395  Biso   1.000  C
  C77      1.0000 0.89390  0.61810  0.50395  Biso   1.000  C
  C78      1.0000 0.60610  0.38190  0.00395  Biso   1.000  C
  C79      1.0000 0.10610  0.11810  0.99605  Biso   1.000  C
  C80      1.0000 0.39390  0.88190  0.49605  Biso   1.000  C
  H57      1.0000 0.01280  0.42540  0.49610  Biso   1.000  H
  H58      1.0000 0.48720  0.57460  0.99610  Biso   1.000  H
  H59      1.0000 0.98720  0.92540  0.00390  Biso   1.000  H
  H60      1.0000 0.51280  0.07460  0.50390  Biso   1.000  H
  H61      1.0000 0.98720  0.57460  0.50390  Biso   1.000  H
  H62      1.0000 0.51280  0.42540  0.00390  Biso   1.000  H
  H63      1.0000 0.01280  0.07460  0.99610  Biso   1.000  H
  H64      1.0000 0.48720  0.92540  0.49610  Biso   1.000  H
  H65      1.0000 0.04310  0.33190  0.48310  Biso   1.000  H
  H66      1.0000 0.45690  0.66810  0.98310  Biso   1.000  H
  H67      1.0000 0.95690  0.83190  0.01690  Biso   1.000  H
  H68      1.0000 0.54310  0.16810  0.51690  Biso   1.000  H
  H69      1.0000 0.95690  0.66810  0.51690  Biso   1.000  H
  H70      1.0000 0.54310  0.33190  0.01690  Biso   1.000  H
  H71      1.0000 0.04310  0.16810  0.98310  Biso   1.000  H
  H72      1.0000 0.45690  0.83190  0.48310  Biso   1.000  H
  C81      1.0000 0.25190  0.40170  0.44850  Biso   1.000  C
  C82      1.0000 0.24810  0.59830  0.94850  Biso   1.000  C
  C83      1.0000 0.74810  0.90170  0.05150  Biso   1.000  C
  C84      1.0000 0.75190  0.09830  0.55150  Biso   1.000  C
  C85      1.0000 0.74810  0.59830  0.55150  Biso   1.000  C
  C86      1.0000 0.75190  0.40170  0.05150  Biso   1.000  C
  C87      1.0000 0.25190  0.09830  0.94850  Biso   1.000  C
  C88      1.0000 0.24810  0.90170  0.44850  Biso   1.000  C
  H73      1.0000 0.20980  0.41340  0.40730  Biso   1.000  H
  H74      1.0000 0.29020  0.58660  0.90730  Biso   1.000  H
  H75      1.0000 0.79020  0.91340  0.09270  Biso   1.000  H
  H76      1.0000 0.70980  0.08660  0.59270  Biso   1.000  H
  H77      1.0000 0.79020  0.58660  0.59270  Biso   1.000  H
  H78      1.0000 0.70980  0.41340  0.09270  Biso   1.000  H
  H79      1.0000 0.20980  0.08660  0.90730  Biso   1.000  H
  H80      1.0000 0.29020  0.91340  0.40730  Biso   1.000  H
  C89      1.0000 0.42890  0.40470  0.45737  Biso   1.000  C
  C90      1.0000 0.07110  0.59530  0.95737  Biso   1.000  C
  C91      1.0000 0.57110  0.90470  0.04263  Biso   1.000  C
  C92      1.0000 0.92890  0.09530  0.54263  Biso   1.000  C
  C93      1.0000 0.57110  0.59530  0.54263  Biso   1.000  C
  C94      1.0000 0.92890  0.40470  0.04263  Biso   1.000  C
  C95      1.0000 0.42890  0.09530  0.95737  Biso   1.000  C
  C96      1.0000 0.07110  0.90470  0.45737  Biso   1.000  C
  H81      1.0000 0.47870  0.39360  0.49760  Biso   1.000  H
  H82      1.0000 0.02130  0.60640  0.99760  Biso   1.000  H
  H83      1.0000 0.52130  0.89360  0.00240  Biso   1.000  H
  H84      1.0000 0.97870  0.10640  0.50240  Biso   1.000  H
  H85      1.0000 0.52130  0.60640  0.50240  Biso   1.000  H
  H86      1.0000 0.97870  0.39360  0.00240  Biso   1.000  H
  H87      1.0000 0.47870  0.10640  0.99760  Biso   1.000  H
  H88      1.0000 0.02130  0.89360  0.49760  Biso   1.000  H
  H89      1.0000 0.50880  0.41800  0.42360  Biso   1.000  H
  H90      1.0000 0.99120  0.58200  0.92360  Biso   1.000  H
  H91      1.0000 0.49120  0.91800  0.07640  Biso   1.000  H
  H92      1.0000 0.00880  0.08200  0.57640  Biso   1.000  H
  H93      1.0000 0.49120  0.58200  0.57640  Biso   1.000  H
  H94      1.0000 0.00880  0.41800  0.07640  Biso   1.000  H
  H95      1.0000 0.50880  0.08200  0.92360  Biso   1.000  H
  H96      1.0000 0.99120  0.91800  0.42360  Biso   1.000  H
