data_image0
_cell_length_a       9.5276
_cell_length_b       9.5736
_cell_length_c       17.3958
_cell_angle_alpha    86.782
_cell_angle_beta     76.34
_cell_angle_gamma    88.128

_symmetry_space_group_name_H-M    "P 1"
_symmetry_int_tables_number       1

loop_
  _symmetry_equiv_pos_as_xyz
  'x, y, z'

loop_
  _atom_site_label
  _atom_site_occupancy
  _atom_site_fract_x
  _atom_site_fract_y
  _atom_site_fract_z
  _atom_site_thermal_displace_type
  _atom_site_B_iso_or_equiv
  _atom_site_type_symbol
  Cu1      1.0000 0.77925  0.30592  0.63468  Biso   1.000  Cu
  Cu2      1.0000 0.22075  0.69408  0.36532  Biso   1.000  Cu
  Cu3      1.0000 0.66660  0.11651  0.79173  Biso   1.000  Cu
  Cu4      1.0000 0.33340  0.88349  0.20827  Biso   1.000  Cu
  O1       1.0000 0.60871  0.18645  0.60337  Biso   1.000  O
  O2       1.0000 0.39129  0.81355  0.39663  Biso   1.000  O
  O3       1.0000 0.58200  0.02445  0.70254  Biso   1.000  O
  O4       1.0000 0.41800  0.97555  0.29746  Biso   1.000  O
  O5       1.0000 0.64963  0.43669  0.70234  Biso   1.000  O
  O6       1.0000 0.35037  0.56331  0.29766  Biso   1.000  O
  O7       1.0000 0.55101  0.29293  0.80567  Biso   1.000  O
  O8       1.0000 0.44899  0.70707  0.19433  Biso   1.000  O
  O9       1.0000 0.83144  0.19825  0.72038  Biso   1.000  O
  O10      1.0000 0.16856  0.80175  0.27962  Biso   1.000  O
  H1       1.0000 0.86800  0.24400  0.74590  Biso   1.000  H
  H2       1.0000 0.13200  0.75600  0.25410  Biso   1.000  H
  N1       1.0000 0.77085  0.43448  0.53847  Biso   1.000  N
  N2       1.0000 0.22915  0.56552  0.46153  Biso   1.000  N
  N3       1.0000 0.95591  0.23030  0.55520  Biso   1.000  N
  N4       1.0000 0.04409  0.76970  0.44480  Biso   1.000  N
  N5       1.0000 0.78799  0.96151  0.83256  Biso   1.000  N
  N6       1.0000 0.21201  0.03849  0.16744  Biso   1.000  N
  N7       1.0000 0.50774  0.01885  0.87279  Biso   1.000  N
  N8       1.0000 0.49226  0.98115  0.12721  Biso   1.000  N
  C1       1.0000 0.67510  0.53496  0.53229  Biso   1.000  C
  C2       1.0000 0.32490  0.46504  0.46771  Biso   1.000  C
  H3       1.0000 0.60680  0.55900  0.57750  Biso   1.000  H
  H4       1.0000 0.39320  0.44100  0.42250  Biso   1.000  H
  C3       1.0000 0.67270  0.60692  0.45987  Biso   1.000  C
  C4       1.0000 0.32730  0.39308  0.54013  Biso   1.000  C
  H5       1.0000 0.60270  0.67600  0.45740  Biso   1.000  H
  H6       1.0000 0.39730  0.32400  0.54260  Biso   1.000  H
  C5       1.0000 0.77430  0.57450  0.39306  Biso   1.000  C
  C6       1.0000 0.22570  0.42550  0.60694  Biso   1.000  C
  H7       1.0000 0.77510  0.62270  0.34500  Biso   1.000  H
  H8       1.0000 0.22490  0.37730  0.65500  Biso   1.000  H
  C7       1.0000 0.87730  0.46778  0.39760  Biso   1.000  C
  C8       1.0000 0.12270  0.53222  0.60240  Biso   1.000  C
  C9       1.0000 0.98700  0.42320  0.33113  Biso   1.000  C
  C10      1.0000 0.01300  0.57680  0.66887  Biso   1.000  C
  H9       1.0000 0.99410  0.46810  0.28160  Biso   1.000  H
  H10      1.0000 0.00590  0.53190  0.71840  Biso   1.000  H
  C11      1.0000 0.07990  0.31730  0.33953  Biso   1.000  C
  C12      1.0000 0.92010  0.68270  0.66047  Biso   1.000  C
  H11      1.0000 0.14890  0.28970  0.29540  Biso   1.000  H
  H12      1.0000 0.85110  0.71030  0.70460  Biso   1.000  H
  C13      1.0000 0.07490  0.24610  0.41485  Biso   1.000  C
  C14      1.0000 0.92510  0.75390  0.58515  Biso   1.000  C
  C15      1.0000 0.16770  0.13480  0.42821  Biso   1.000  C
  C16      1.0000 0.83230  0.86520  0.57179  Biso   1.000  C
  H13      1.0000 0.23730  0.10040  0.38630  Biso   1.000  H
  H14      1.0000 0.76270  0.89960  0.61370  Biso   1.000  H
  C17      1.0000 0.15480  0.07780  0.50310  Biso   1.000  C
  C18      1.0000 0.84520  0.92220  0.49690  Biso   1.000  C
  H15      1.0000 0.21720  0.00550  0.51250  Biso   1.000  H
  H16      1.0000 0.78280  0.99450  0.48750  Biso   1.000  H
  C19      1.0000 0.04800  0.12780  0.56594  Biso   1.000  C
  C20      1.0000 0.95200  0.87220  0.43406  Biso   1.000  C
  H17      1.0000 0.04120  0.08810  0.61670  Biso   1.000  H
  H18      1.0000 0.95880  0.91190  0.38330  Biso   1.000  H
  C21      1.0000 0.96992  0.28913  0.48112  Biso   1.000  C
  C22      1.0000 0.03008  0.71087  0.51888  Biso   1.000  C
  C23      1.0000 0.87018  0.40016  0.47203  Biso   1.000  C
  C24      1.0000 0.12982  0.59984  0.52797  Biso   1.000  C
  C25      1.0000 0.92990  0.93970  0.81367  Biso   1.000  C
  C26      1.0000 0.07010  0.06030  0.18633  Biso   1.000  C
  H19      1.0000 0.98720  0.00190  0.77760  Biso   1.000  H
  H20      1.0000 0.01280  0.99810  0.22240  Biso   1.000  H
  C27      1.0000 0.99630  0.82610  0.84635  Biso   1.000  C
  C28      1.0000 0.00370  0.17390  0.15365  Biso   1.000  C
  H21      1.0000 0.09610  0.81380  0.83180  Biso   1.000  H
  H22      1.0000 0.90390  0.18620  0.16820  Biso   1.000  H
  C29      1.0000 0.91480  0.73340  0.89942  Biso   1.000  C
  C30      1.0000 0.08520  0.26660  0.10058  Biso   1.000  C
  H23      1.0000 0.95830  0.65720  0.92070  Biso   1.000  H
  H24      1.0000 0.04170  0.34280  0.07930  Biso   1.000  H
  C31      1.0000 0.76430  0.75427  0.92165  Biso   1.000  C
  C32      1.0000 0.23570  0.24573  0.07835  Biso   1.000  C
  C33      1.0000 0.66730  0.66650  0.97861  Biso   1.000  C
  C34      1.0000 0.33270  0.33350  0.02139  Biso   1.000  C
  H25      1.0000 0.70400  0.58870  0.00240  Biso   1.000  H
  H26      1.0000 0.29600  0.41130  0.99760  Biso   1.000  H
  C35      1.0000 0.52500  0.69480  0.99808  Biso   1.000  C
  C36      1.0000 0.47500  0.30520  0.00192  Biso   1.000  C
  H27      1.0000 0.46510  0.63600  0.03520  Biso   1.000  H
  H28      1.0000 0.53490  0.36400  0.96480  Biso   1.000  H
  C37      1.0000 0.46220  0.81367  0.96311  Biso   1.000  C
  C38      1.0000 0.53780  0.18633  0.03689  Biso   1.000  C
  C39      1.0000 0.31510  0.84980  0.98092  Biso   1.000  C
  C40      1.0000 0.68490  0.15020  0.01908  Biso   1.000  C
  H29      1.0000 0.24950  0.79450  0.01700  Biso   1.000  H
  H30      1.0000 0.75050  0.20550  0.98300  Biso   1.000  H
  C41      1.0000 0.26810  0.96720  0.94485  Biso   1.000  C
  C42      1.0000 0.73190  0.03280  0.05515  Biso   1.000  C
  H31      1.0000 0.17040  0.99170  0.95620  Biso   1.000  H
  H32      1.0000 0.82960  0.00830  0.04380  Biso   1.000  H
  C43      1.0000 0.36800  0.05040  0.89070  Biso   1.000  C
  C44      1.0000 0.63200  0.94960  0.10930  Biso   1.000  C
  H33      1.0000 0.33500  0.13010  0.86670  Biso   1.000  H
  H34      1.0000 0.66500  0.86990  0.13330  Biso   1.000  H
  C45      1.0000 0.55490  0.90167  0.90767  Biso   1.000  C
  C46      1.0000 0.44510  0.09833  0.09233  Biso   1.000  C
  C47      1.0000 0.70620  0.87102  0.88623  Biso   1.000  C
  C48      1.0000 0.29380  0.12898  0.11377  Biso   1.000  C
  C49      1.0000 0.56710  0.41016  0.76926  Biso   1.000  C
  C50      1.0000 0.43290  0.58984  0.23074  Biso   1.000  C
  C51      1.0000 0.47980  0.53030  0.81211  Biso   1.000  C
  C52      1.0000 0.52020  0.46970  0.18789  Biso   1.000  C
  H35      1.0000 0.51910  0.54970  0.85690  Biso   1.000  H
  H36      1.0000 0.48090  0.45030  0.14310  Biso   1.000  H
  H37      1.0000 0.38140  0.49970  0.83300  Biso   1.000  H
  H38      1.0000 0.61860  0.50030  0.16700  Biso   1.000  H
  C53      1.0000 0.47480  0.66678  0.76291  Biso   1.000  C
  C54      1.0000 0.52520  0.33322  0.23709  Biso   1.000  C
  H39      1.0000 0.43800  0.74120  0.79830  Biso   1.000  H
  H40      1.0000 0.56200  0.25880  0.20170  Biso   1.000  H
  H41      1.0000 0.57230  0.69010  0.73460  Biso   1.000  H
  H42      1.0000 0.42770  0.30990  0.26540  Biso   1.000  H
  C55      1.0000 0.38100  0.66008  0.70340  Biso   1.000  C
  C56      1.0000 0.61900  0.33992  0.29660  Biso   1.000  C
  H43      1.0000 0.28030  0.65670  0.73170  Biso   1.000  H
  H44      1.0000 0.71970  0.34330  0.26830  Biso   1.000  H
  H45      1.0000 0.40430  0.57460  0.67520  Biso   1.000  H
  H46      1.0000 0.59570  0.42540  0.32480  Biso   1.000  H
  C57      1.0000 0.40180  0.78620  0.64307  Biso   1.000  C
  C58      1.0000 0.59820  0.21380  0.35693  Biso   1.000  C
  H47      1.0000 0.50440  0.80190  0.62320  Biso   1.000  H
  H48      1.0000 0.49560  0.19810  0.37680  Biso   1.000  H
  H49      1.0000 0.36270  0.76440  0.59860  Biso   1.000  H
  H50      1.0000 0.63730  0.23560  0.40140  Biso   1.000  H
  C59      1.0000 0.32920  0.91940  0.67799  Biso   1.000  C
  C60      1.0000 0.67080  0.08060  0.32201  Biso   1.000  C
  H51      1.0000 0.33640  0.92140  0.73260  Biso   1.000  H
  H52      1.0000 0.66360  0.07860  0.26740  Biso   1.000  H
  H53      1.0000 0.22750  0.91860  0.67780  Biso   1.000  H
  H54      1.0000 0.77250  0.08140  0.32220  Biso   1.000  H
  C61      1.0000 0.39620  0.05170  0.63243  Biso   1.000  C
  C62      1.0000 0.60380  0.94830  0.36757  Biso   1.000  C
  H55      1.0000 0.40840  0.03960  0.57620  Biso   1.000  H
  H56      1.0000 0.59160  0.96040  0.42380  Biso   1.000  H
  H57      1.0000 0.32890  0.12950  0.64650  Biso   1.000  H
  H58      1.0000 0.67110  0.87050  0.35350  Biso   1.000  H
  C63      1.0000 0.54107  0.08969  0.64707  Biso   1.000  C
  C64      1.0000 0.45893  0.91031  0.35293  Biso   1.000  C
  Cl1      1.0000 0.04086  0.32031  0.86311  Biso   1.000  Cl
  Cl2      1.0000 0.95914  0.67969  0.13689  Biso   1.000  Cl
  O11      1.0000 0.90220  0.36280  0.85299  Biso   1.000  O
  O12      1.0000 0.09780  0.63720  0.14701  Biso   1.000  O
  O13      1.0000 0.12200  0.26500  0.79124  Biso   1.000  O
  O14      1.0000 0.87800  0.73500  0.20876  Biso   1.000  O
  O15      1.0000 0.11170  0.43280  0.88220  Biso   1.000  O
  O16      1.0000 0.88830  0.56720  0.11780  Biso   1.000  O
  O17      1.0000 0.02910  0.21130  0.92122  Biso   1.000  O
  O18      1.0000 0.97090  0.78870  0.07878  Biso   1.000  O
