data_image0
_cell_length_a       17.297
_cell_length_b       13.41
_cell_length_c       6.341
_cell_angle_alpha    90
_cell_angle_beta     90
_cell_angle_gamma    90

_symmetry_space_group_name_H-M    "P 1"
_symmetry_int_tables_number       1

loop_
  _symmetry_equiv_pos_as_xyz
  'x, y, z'

loop_
  _atom_site_label
  _atom_site_occupancy
  _atom_site_fract_x
  _atom_site_fract_y
  _atom_site_fract_z
  _atom_site_thermal_displace_type
  _atom_site_B_iso_or_equiv
  _atom_site_type_symbol
  Cu1      1.0000 0.93413  0.07977  0.00000  Biso   1.000  Cu
  Cu2      1.0000 0.06587  0.92023  0.00000  Biso   1.000  Cu
  Cu3      1.0000 0.56587  0.57977  0.00000  Biso   1.000  Cu
  Cu4      1.0000 0.43413  0.42023  0.00000  Biso   1.000  Cu
  N1       1.0000 0.82820  0.07260  0.11710  Biso   1.000  N
  N2       1.0000 0.17180  0.92740  0.11710  Biso   1.000  N
  N3       1.0000 0.67180  0.57260  0.11710  Biso   1.000  N
  N4       1.0000 0.32820  0.42740  0.11710  Biso   1.000  N
  N5       1.0000 0.77480  0.07050  0.99300  Biso   1.000  N
  N6       1.0000 0.22520  0.92950  0.99300  Biso   1.000  N
  N7       1.0000 0.72520  0.57050  0.99300  Biso   1.000  N
  N8       1.0000 0.27480  0.42950  0.99300  Biso   1.000  N
  N9       1.0000 0.72420  0.06830  0.87700  Biso   1.000  N
  N10      1.0000 0.27580  0.93170  0.87700  Biso   1.000  N
  N11      1.0000 0.77580  0.56830  0.87700  Biso   1.000  N
  N12      1.0000 0.22420  0.43170  0.87700  Biso   1.000  N
  N13      1.0000 0.93860  0.22400  0.97900  Biso   1.000  N
  N14      1.0000 0.06140  0.77600  0.97900  Biso   1.000  N
  N15      1.0000 0.56140  0.72400  0.97900  Biso   1.000  N
  N16      1.0000 0.43860  0.27600  0.97900  Biso   1.000  N
  N17      1.0000 0.87940  0.26950  0.94310  Biso   1.000  N
  N18      1.0000 0.12060  0.73050  0.94310  Biso   1.000  N
  N19      1.0000 0.62060  0.76950  0.94310  Biso   1.000  N
  N20      1.0000 0.37940  0.23050  0.94310  Biso   1.000  N
  N21      1.0000 0.82590  0.31610  0.90700  Biso   1.000  N
  N22      1.0000 0.17410  0.68390  0.90700  Biso   1.000  N
  N23      1.0000 0.67410  0.81610  0.90700  Biso   1.000  N
  N24      1.0000 0.32590  0.18390  0.90700  Biso   1.000  N
  N25      1.0000 0.95040  0.93280  0.97500  Biso   1.000  N
  N26      1.0000 0.04960  0.06720  0.97500  Biso   1.000  N
  N27      1.0000 0.54960  0.43280  0.97500  Biso   1.000  N
  N28      1.0000 0.45040  0.56720  0.97500  Biso   1.000  N
  N29      1.0000 0.90650  0.86930  0.03010  Biso   1.000  N
  N30      1.0000 0.09350  0.13070  0.03010  Biso   1.000  N
  N31      1.0000 0.59350  0.36930  0.03010  Biso   1.000  N
  N32      1.0000 0.40650  0.63070  0.03010  Biso   1.000  N
  N33      1.0000 0.86450  0.80680  0.08000  Biso   1.000  N
  N34      1.0000 0.13550  0.19320  0.08000  Biso   1.000  N
  N35      1.0000 0.63550  0.30680  0.08000  Biso   1.000  N
  N36      1.0000 0.36450  0.69320  0.08000  Biso   1.000  N
  Cu5      1.0000 0.72118  0.56815  0.47690  Biso   1.000  Cu
  Cu6      1.0000 0.27882  0.43185  0.47690  Biso   1.000  Cu
  Cu7      1.0000 0.77882  0.06815  0.47690  Biso   1.000  Cu
  Cu8      1.0000 0.22118  0.93185  0.47690  Biso   1.000  Cu
  N37      1.0000 0.74170  0.71660  0.48000  Biso   1.000  N
  N38      1.0000 0.25830  0.28340  0.48000  Biso   1.000  N
  N39      1.0000 0.75830  0.21660  0.48000  Biso   1.000  N
  N40      1.0000 0.24170  0.78340  0.48000  Biso   1.000  N
  N41      1.0000 0.77310  0.91880  0.49850  Biso   1.000  N
  N42      1.0000 0.22690  0.08120  0.49850  Biso   1.000  N
  N43      1.0000 0.72690  0.41880  0.49850  Biso   1.000  N
  N44      1.0000 0.27310  0.58120  0.49850  Biso   1.000  N
  C1       1.0000 0.70560  0.88310  0.42710  Biso   1.000  C
  C2       1.0000 0.29440  0.11690  0.42710  Biso   1.000  C
  C3       1.0000 0.79440  0.38310  0.42710  Biso   1.000  C
  C4       1.0000 0.20560  0.61690  0.42710  Biso   1.000  C
  C5       1.0000 0.82540  0.85330  0.56300  Biso   1.000  C
  C6       1.0000 0.17460  0.14670  0.56300  Biso   1.000  C
  C7       1.0000 0.67460  0.35330  0.56300  Biso   1.000  C
  C8       1.0000 0.32540  0.64670  0.56300  Biso   1.000  C
  C9       1.0000 0.80890  0.75080  0.56000  Biso   1.000  C
  C10      1.0000 0.19110  0.24920  0.56000  Biso   1.000  C
  C11      1.0000 0.69110  0.25080  0.56000  Biso   1.000  C
  C12      1.0000 0.30890  0.74920  0.56000  Biso   1.000  C
  C13      1.0000 0.68950  0.78250  0.41500  Biso   1.000  C
  C14      1.0000 0.31050  0.21750  0.41500  Biso   1.000  C
  C15      1.0000 0.81050  0.28250  0.41500  Biso   1.000  C
  C16      1.0000 0.18950  0.71750  0.41500  Biso   1.000  C
  O1       1.0000 0.67340  0.05080  0.37270  Biso   1.000  O
  O2       1.0000 0.32660  0.94920  0.37270  Biso   1.000  O
  O3       1.0000 0.82660  0.55080  0.37270  Biso   1.000  O
  O4       1.0000 0.17340  0.44920  0.37270  Biso   1.000  O
  O5       1.0000 0.58370  0.93770  0.30300  Biso   1.000  O
  O6       1.0000 0.41630  0.06230  0.30300  Biso   1.000  O
  O7       1.0000 0.91630  0.43770  0.30300  Biso   1.000  O
  O8       1.0000 0.08370  0.56230  0.30300  Biso   1.000  O
  C17      1.0000 0.64920  0.96230  0.36100  Biso   1.000  C
  C18      1.0000 0.35080  0.03770  0.36100  Biso   1.000  C
  C19      1.0000 0.85080  0.46230  0.36100  Biso   1.000  C
  C20      1.0000 0.14920  0.53770  0.36100  Biso   1.000  C
  N45      1.0000 0.87980  0.07730  0.60960  Biso   1.000  N
  N46      1.0000 0.12020  0.92270  0.60960  Biso   1.000  N
  N47      1.0000 0.62020  0.57730  0.60960  Biso   1.000  N
  N48      1.0000 0.37980  0.42270  0.60960  Biso   1.000  N
  N49      1.0000 0.93510  0.10520  0.51600  Biso   1.000  N
  N50      1.0000 0.06490  0.89480  0.51600  Biso   1.000  N
  N51      1.0000 0.56490  0.60520  0.51600  Biso   1.000  N
  N52      1.0000 0.43510  0.39480  0.51600  Biso   1.000  N
  N53      1.0000 0.98930  0.13400  0.43500  Biso   1.000  N
  N54      1.0000 0.01070  0.86600  0.43500  Biso   1.000  N
  N55      1.0000 0.51070  0.63400  0.43500  Biso   1.000  N
  N56      1.0000 0.48930  0.36600  0.43500  Biso   1.000  N
  H1       1.0000 0.88100  0.87890  0.61900  Biso   1.000  H
  H2       1.0000 0.11900  0.12110  0.61900  Biso   1.000  H
  H3       1.0000 0.61900  0.37890  0.61900  Biso   1.000  H
  H4       1.0000 0.38100  0.62110  0.61900  Biso   1.000  H
  H5       1.0000 0.85070  0.69860  0.62200  Biso   1.000  H
  H6       1.0000 0.14930  0.30140  0.62200  Biso   1.000  H
  H7       1.0000 0.64930  0.19860  0.62200  Biso   1.000  H
  H8       1.0000 0.35070  0.80140  0.62200  Biso   1.000  H
  H9       1.0000 0.63480  0.75740  0.35200  Biso   1.000  H
  H10      1.0000 0.36520  0.24260  0.35200  Biso   1.000  H
  H11      1.0000 0.86520  0.25740  0.35200  Biso   1.000  H
  H12      1.0000 0.13480  0.74260  0.35200  Biso   1.000  H
  K1       1.0000 0.04370  0.35100  0.22520  Biso   1.000  K
  K2       1.0000 0.95630  0.64900  0.22520  Biso   1.000  K
  K3       1.0000 0.45630  0.85100  0.22520  Biso   1.000  K
  K4       1.0000 0.54370  0.14900  0.22520  Biso   1.000  K
  K5       1.0000 0.05180  0.38050  0.11160  Biso   1.000  K
  K6       1.0000 0.94820  0.61950  0.11160  Biso   1.000  K
  K7       1.0000 0.44820  0.88050  0.11160  Biso   1.000  K
  K8       1.0000 0.55180  0.11950  0.11160  Biso   1.000  K
  K9       1.0000 0.02040  0.34300  0.64000  Biso   1.000  K
  K10      1.0000 0.97960  0.65700  0.64000  Biso   1.000  K
  K11      1.0000 0.47960  0.84300  0.64000  Biso   1.000  K
  K12      1.0000 0.52040  0.15700  0.64000  Biso   1.000  K
