data_image0
_cell_length_a       10.603
_cell_length_b       20.0687
_cell_length_c       11.1036
_cell_angle_alpha    90
_cell_angle_beta     91.032
_cell_angle_gamma    90

_symmetry_space_group_name_H-M    "P 1"
_symmetry_int_tables_number       1

loop_
  _symmetry_equiv_pos_as_xyz
  'x, y, z'

loop_
  _atom_site_label
  _atom_site_occupancy
  _atom_site_fract_x
  _atom_site_fract_y
  _atom_site_fract_z
  _atom_site_thermal_displace_type
  _atom_site_B_iso_or_equiv
  _atom_site_type_symbol
  Cu1      1.0000 0.62563  0.27334  0.80342  Biso   1.000  Cu
  Cu2      1.0000 0.87437  0.77334  0.69658  Biso   1.000  Cu
  Cu3      1.0000 0.37437  0.72666  0.19658  Biso   1.000  Cu
  Cu4      1.0000 0.12563  0.22666  0.30342  Biso   1.000  Cu
  O1       1.0000 0.74400  0.34940  0.80410  Biso   1.000  O
  O2       1.0000 0.75600  0.84940  0.69590  Biso   1.000  O
  O3       1.0000 0.25600  0.65060  0.19590  Biso   1.000  O
  O4       1.0000 0.24400  0.15060  0.30410  Biso   1.000  O
  O5       1.0000 0.59740  0.42470  0.76590  Biso   1.000  O
  O6       1.0000 0.90260  0.92470  0.73410  Biso   1.000  O
  O7       1.0000 0.40260  0.57530  0.23410  Biso   1.000  O
  O8       1.0000 0.09740  0.07530  0.26590  Biso   1.000  O
  O9       1.0000 0.73830  0.66630  0.73750  Biso   1.000  O
  O10      1.0000 0.76170  0.16630  0.76250  Biso   1.000  O
  O11      1.0000 0.26170  0.33370  0.26250  Biso   1.000  O
  O12      1.0000 0.23830  0.83370  0.23750  Biso   1.000  O
  O13      1.0000 0.94480  0.68280  0.70580  Biso   1.000  O
  O14      1.0000 0.55520  0.18280  0.79420  Biso   1.000  O
  O15      1.0000 0.05520  0.31720  0.29420  Biso   1.000  O
  O16      1.0000 0.44480  0.81720  0.20580  Biso   1.000  O
  O17      1.0000 0.23410  0.51650  0.90360  Biso   1.000  O
  O18      1.0000 0.26590  0.01650  0.59640  Biso   1.000  O
  O19      1.0000 0.76590  0.48350  0.09640  Biso   1.000  O
  O20      1.0000 0.73410  0.98350  0.40360  Biso   1.000  O
  O21      1.0000 0.16530  0.41210  0.92250  Biso   1.000  O
  O22      1.0000 0.33470  0.91210  0.57750  Biso   1.000  O
  O23      1.0000 0.83470  0.58790  0.07750  Biso   1.000  O
  O24      1.0000 0.66530  0.08790  0.42250  Biso   1.000  O
  H1       1.0000 0.23240  0.40790  0.95960  Biso   1.000  H
  H2       1.0000 0.26760  0.90790  0.54040  Biso   1.000  H
  H3       1.0000 0.76760  0.59210  0.04040  Biso   1.000  H
  H4       1.0000 0.73240  0.09210  0.45960  Biso   1.000  H
  O25      1.0000 0.43120  0.32470  0.80630  Biso   1.000  O
  O26      1.0000 0.06880  0.82470  0.69370  Biso   1.000  O
  O27      1.0000 0.56880  0.67530  0.19370  Biso   1.000  O
  O28      1.0000 0.93120  0.17530  0.30630  Biso   1.000  O
  H5       1.0000 0.40110  0.31780  0.87560  Biso   1.000  H
  H6       1.0000 0.09890  0.81780  0.62440  Biso   1.000  H
  H7       1.0000 0.59890  0.68220  0.12440  Biso   1.000  H
  H8       1.0000 0.90110  0.18220  0.37560  Biso   1.000  H
  H9       1.0000 0.44370  0.36650  0.80090  Biso   1.000  H
  H10      1.0000 0.05630  0.86650  0.69910  Biso   1.000  H
  H11      1.0000 0.55630  0.63350  0.19910  Biso   1.000  H
  H12      1.0000 0.94370  0.13350  0.30090  Biso   1.000  H
  N1       1.0000 0.63310  0.26930  0.98660  Biso   1.000  N
  N2       1.0000 0.86690  0.76930  0.51340  Biso   1.000  N
  N3       1.0000 0.36690  0.73070  0.01340  Biso   1.000  N
  N4       1.0000 0.13310  0.23070  0.48660  Biso   1.000  N
  N5       1.0000 0.62150  0.27510  0.62130  Biso   1.000  N
  N6       1.0000 0.87850  0.77510  0.87870  Biso   1.000  N
  N7       1.0000 0.37850  0.72490  0.37870  Biso   1.000  N
  N8       1.0000 0.12150  0.22490  0.12130  Biso   1.000  N
  C1       1.0000 0.81040  0.46160  0.79300  Biso   1.000  C
  C2       1.0000 0.68960  0.96160  0.70700  Biso   1.000  C
  C3       1.0000 0.18960  0.53840  0.20700  Biso   1.000  C
  C4       1.0000 0.31040  0.03840  0.29300  Biso   1.000  C
  C5       1.0000 0.78820  0.52480  0.76130  Biso   1.000  C
  C6       1.0000 0.71180  0.02480  0.73870  Biso   1.000  C
  C7       1.0000 0.21180  0.47520  0.23870  Biso   1.000  C
  C8       1.0000 0.28820  0.97520  0.26130  Biso   1.000  C
  H13      1.0000 0.70750  0.53640  0.73440  Biso   1.000  H
  H14      1.0000 0.79250  0.03640  0.76560  Biso   1.000  H
  H15      1.0000 0.29250  0.46360  0.26560  Biso   1.000  H
  H16      1.0000 0.20750  0.96360  0.23440  Biso   1.000  H
  C9       1.0000 0.88210  0.57480  0.76670  Biso   1.000  C
  C10      1.0000 0.61790  0.07480  0.73330  Biso   1.000  C
  C11      1.0000 0.11790  0.42520  0.23330  Biso   1.000  C
  C12      1.0000 0.38210  0.92520  0.26670  Biso   1.000  C
  C13      1.0000 0.99970  0.55540  0.80810  Biso   1.000  C
  C14      1.0000 0.50030  0.05540  0.69190  Biso   1.000  C
  C15      1.0000 0.00030  0.44460  0.19190  Biso   1.000  C
  C16      1.0000 0.49970  0.94460  0.30810  Biso   1.000  C
  H17      1.0000 0.06340  0.58720  0.81250  Biso   1.000  H
  H18      1.0000 0.43660  0.08720  0.68750  Biso   1.000  H
  H19      1.0000 0.93660  0.41280  0.18750  Biso   1.000  H
  H20      1.0000 0.56340  0.91280  0.31250  Biso   1.000  H
  C17      1.0000 0.02720  0.49200  0.84280  Biso   1.000  C
  C18      1.0000 0.47280  0.99200  0.65720  Biso   1.000  C
  C19      1.0000 0.97280  0.50800  0.15720  Biso   1.000  C
  C20      1.0000 0.52720  0.00800  0.34280  Biso   1.000  C
  C21      1.0000 0.93020  0.44340  0.83780  Biso   1.000  C
  C22      1.0000 0.56980  0.94340  0.66220  Biso   1.000  C
  C23      1.0000 0.06980  0.55660  0.16220  Biso   1.000  C
  C24      1.0000 0.43020  0.05660  0.33780  Biso   1.000  C
  H21      1.0000 0.94570  0.40010  0.86370  Biso   1.000  H
  H22      1.0000 0.55430  0.90010  0.63630  Biso   1.000  H
  H23      1.0000 0.05430  0.59990  0.13630  Biso   1.000  H
  H24      1.0000 0.44570  0.09990  0.36370  Biso   1.000  H
  C25      1.0000 0.70910  0.40770  0.78720  Biso   1.000  C
  C26      1.0000 0.79090  0.90770  0.71280  Biso   1.000  C
  C27      1.0000 0.29090  0.59230  0.21280  Biso   1.000  C
  C28      1.0000 0.20910  0.09230  0.28720  Biso   1.000  C
  C29      1.0000 0.85250  0.64380  0.73300  Biso   1.000  C
  C30      1.0000 0.64750  0.14380  0.76700  Biso   1.000  C
  C31      1.0000 0.14750  0.35620  0.26700  Biso   1.000  C
  C32      1.0000 0.35250  0.85620  0.23300  Biso   1.000  C
  C33      1.0000 0.15190  0.47240  0.88990  Biso   1.000  C
  C34      1.0000 0.34810  0.97240  0.61010  Biso   1.000  C
  C35      1.0000 0.84810  0.52760  0.11010  Biso   1.000  C
  C36      1.0000 0.65190  0.02760  0.38990  Biso   1.000  C
  C37      1.0000 0.57910  0.22350  0.04550  Biso   1.000  C
  C38      1.0000 0.92090  0.72350  0.45450  Biso   1.000  C
  C39      1.0000 0.42090  0.77650  0.95450  Biso   1.000  C
  C40      1.0000 0.07910  0.27650  0.54550  Biso   1.000  C
  H25      1.0000 0.54260  0.18840  0.00250  Biso   1.000  H
  H26      1.0000 0.95740  0.68840  0.49750  Biso   1.000  H
  H27      1.0000 0.45740  0.81160  0.99750  Biso   1.000  H
  H28      1.0000 0.04260  0.31160  0.50250  Biso   1.000  H
  C41      1.0000 0.57090  0.22240  0.17260  Biso   1.000  C
  C42      1.0000 0.92910  0.72240  0.32740  Biso   1.000  C
  C43      1.0000 0.42910  0.77760  0.82740  Biso   1.000  C
  C44      1.0000 0.07090  0.27760  0.67260  Biso   1.000  C
  H29      1.0000 0.52690  0.18840  0.21020  Biso   1.000  H
  H30      1.0000 0.97310  0.68840  0.28980  Biso   1.000  H
  H31      1.0000 0.47310  0.81160  0.78980  Biso   1.000  H
  H32      1.0000 0.02690  0.31160  0.71020  Biso   1.000  H
  C45      1.0000 0.62590  0.26990  0.23850  Biso   1.000  C
  C46      1.0000 0.87410  0.76990  0.26150  Biso   1.000  C
  C47      1.0000 0.37410  0.73010  0.76150  Biso   1.000  C
  C48      1.0000 0.12590  0.23010  0.73850  Biso   1.000  C
  C49      1.0000 0.68410  0.31870  0.17670  Biso   1.000  C
  C50      1.0000 0.81590  0.81870  0.32330  Biso   1.000  C
  C51      1.0000 0.31590  0.68130  0.82330  Biso   1.000  C
  C52      1.0000 0.18410  0.18130  0.67670  Biso   1.000  C
  H33      1.0000 0.72300  0.35320  0.21910  Biso   1.000  H
  H34      1.0000 0.77700  0.85320  0.28090  Biso   1.000  H
  H35      1.0000 0.27700  0.64680  0.78090  Biso   1.000  H
  H36      1.0000 0.22300  0.14680  0.71910  Biso   1.000  H
  C53      1.0000 0.68760  0.31890  0.05210  Biso   1.000  C
  C54      1.0000 0.81240  0.81890  0.44790  Biso   1.000  C
  C55      1.0000 0.31240  0.68110  0.94790  Biso   1.000  C
  C56      1.0000 0.18760  0.18110  0.55210  Biso   1.000  C
  H37      1.0000 0.72790  0.35360  0.01280  Biso   1.000  H
  H38      1.0000 0.77210  0.85360  0.48720  Biso   1.000  H
  H39      1.0000 0.27210  0.64640  0.98720  Biso   1.000  H
  H40      1.0000 0.22790  0.14640  0.51280  Biso   1.000  H
  C57      1.0000 0.62590  0.26730  0.37290  Biso   1.000  C
  C58      1.0000 0.87410  0.76730  0.12710  Biso   1.000  C
  C59      1.0000 0.37410  0.73270  0.62710  Biso   1.000  C
  C60      1.0000 0.12590  0.23270  0.87290  Biso   1.000  C
  C61      1.0000 0.51280  0.25620  0.43310  Biso   1.000  C
  C62      1.0000 0.98720  0.75620  0.06690  Biso   1.000  C
  C63      1.0000 0.48720  0.74380  0.56690  Biso   1.000  C
  C64      1.0000 0.01280  0.24380  0.93310  Biso   1.000  C
  H41      1.0000 0.43830  0.24680  0.39090  Biso   1.000  H
  H42      1.0000 0.06170  0.74680  0.10910  Biso   1.000  H
  H43      1.0000 0.56170  0.75320  0.60910  Biso   1.000  H
  H44      1.0000 0.93830  0.25320  0.89090  Biso   1.000  H
  C65      1.0000 0.51570  0.25970  0.55820  Biso   1.000  C
  C66      1.0000 0.98430  0.75970  0.94180  Biso   1.000  C
  C67      1.0000 0.48430  0.74030  0.44180  Biso   1.000  C
  C68      1.0000 0.01570  0.24030  0.05820  Biso   1.000  C
  H45      1.0000 0.44220  0.25100  0.59980  Biso   1.000  H
  H46      1.0000 0.05780  0.75100  0.90020  Biso   1.000  H
  H47      1.0000 0.55780  0.74900  0.40020  Biso   1.000  H
  H48      1.0000 0.94220  0.24900  0.09980  Biso   1.000  H
  C69      1.0000 0.72430  0.28640  0.56110  Biso   1.000  C
  C70      1.0000 0.77570  0.78640  0.93890  Biso   1.000  C
  C71      1.0000 0.27570  0.71360  0.43890  Biso   1.000  C
  C72      1.0000 0.22430  0.21360  0.06110  Biso   1.000  C
  H49      1.0000 0.79710  0.29840  0.60380  Biso   1.000  H
  H50      1.0000 0.70290  0.79840  0.89620  Biso   1.000  H
  H51      1.0000 0.20290  0.70160  0.39620  Biso   1.000  H
  H52      1.0000 0.29710  0.20160  0.10380  Biso   1.000  H
  C73      1.0000 0.72990  0.28140  0.43740  Biso   1.000  C
  C74      1.0000 0.77010  0.78140  0.06260  Biso   1.000  C
  C75      1.0000 0.27010  0.71860  0.56260  Biso   1.000  C
  C76      1.0000 0.22990  0.21860  0.93740  Biso   1.000  C
  H53      1.0000 0.80620  0.28780  0.39890  Biso   1.000  H
  H54      1.0000 0.69380  0.78780  0.10110  Biso   1.000  H
  H55      1.0000 0.19380  0.71220  0.60110  Biso   1.000  H
  H56      1.0000 0.30620  0.21220  0.89890  Biso   1.000  H
  O29      1.0000 0.36490  0.37270  0.04370  Biso   1.000  O
  O30      1.0000 0.13510  0.87270  0.45630  Biso   1.000  O
  O31      1.0000 0.63510  0.62730  0.95630  Biso   1.000  O
  O32      1.0000 0.86490  0.12730  0.54370  Biso   1.000  O
  H57      1.0000 0.42230  0.40110  0.05990  Biso   1.000  H
  H58      1.0000 0.07770  0.90110  0.44010  Biso   1.000  H
  H59      1.0000 0.57770  0.59890  0.94010  Biso   1.000  H
  H60      1.0000 0.92230  0.09890  0.55990  Biso   1.000  H
  H61      1.0000 0.35590  0.34370  0.09870  Biso   1.000  H
  H62      1.0000 0.14410  0.84370  0.40130  Biso   1.000  H
  H63      1.0000 0.64410  0.65630  0.90130  Biso   1.000  H
  H64      1.0000 0.85590  0.15630  0.59870  Biso   1.000  H
  O33      1.0000 0.51910  0.46430  0.13560  Biso   1.000  O
  O34      1.0000 0.98090  0.96430  0.36440  Biso   1.000  O
  O35      1.0000 0.48090  0.53570  0.86440  Biso   1.000  O
  O36      1.0000 0.01910  0.03570  0.63560  Biso   1.000  O
  H65      1.0000 0.58860  0.46970  0.10000  Biso   1.000  H
  H66      1.0000 0.91140  0.96970  0.40000  Biso   1.000  H
  H67      1.0000 0.41140  0.53030  0.90000  Biso   1.000  H
  H68      1.0000 0.08860  0.03030  0.60000  Biso   1.000  H
  H69      1.0000 0.48130  0.50130  0.14450  Biso   1.000  H
  H70      1.0000 0.01870  0.00130  0.35550  Biso   1.000  H
  H71      1.0000 0.51870  0.49870  0.85550  Biso   1.000  H
  H72      1.0000 0.98130  0.99870  0.64450  Biso   1.000  H
  O37      1.0000 0.85100  0.44870  0.48700  Biso   1.000  O
  O38      1.0000 0.64900  0.94870  0.01300  Biso   1.000  O
  O39      1.0000 0.14900  0.55130  0.51300  Biso   1.000  O
  O40      1.0000 0.35100  0.05130  0.98700  Biso   1.000  O
  O41      1.0000 0.91500  0.53780  0.46600  Biso   1.000  O
  O42      1.0000 0.58500  0.03780  0.03400  Biso   1.000  O
  O43      1.0000 0.08500  0.46220  0.53400  Biso   1.000  O
  O44      1.0000 0.41500  0.96220  0.96600  Biso   1.000  O
