data_image0
_cell_length_a       7.853
_cell_length_b       8.646
_cell_length_c       11.091
_cell_angle_alpha    88.168
_cell_angle_beta     74.96
_cell_angle_gamma    88.108

_symmetry_space_group_name_H-M    "P 1"
_symmetry_int_tables_number       1

loop_
  _symmetry_equiv_pos_as_xyz
  'x, y, z'

loop_
  _atom_site_label
  _atom_site_occupancy
  _atom_site_fract_x
  _atom_site_fract_y
  _atom_site_fract_z
  _atom_site_thermal_displace_type
  _atom_site_B_iso_or_equiv
  _atom_site_type_symbol
  Cu1      1.0000 0.60675  0.93153  0.33669  Biso   1.000  Cu
  Cu2      1.0000 0.39325  0.06847  0.66331  Biso   1.000  Cu
  Cl1      1.0000 0.66660  0.83565  0.51410  Biso   1.000  Cl
  Cl2      1.0000 0.33340  0.16435  0.48590  Biso   1.000  Cl
  O1       1.0000 0.61100  0.95780  0.15700  Biso   1.000  O
  O2       1.0000 0.38900  0.04220  0.84300  Biso   1.000  O
  O3       1.0000 0.78500  0.75240  0.16030  Biso   1.000  O
  O4       1.0000 0.21500  0.24760  0.83970  Biso   1.000  O
  N1       1.0000 0.39820  0.79910  0.34860  Biso   1.000  N
  N2       1.0000 0.60180  0.20090  0.65140  Biso   1.000  N
  N3       1.0000 0.97830  0.55560  0.28480  Biso   1.000  N
  N4       1.0000 0.02170  0.44440  0.71520  Biso   1.000  N
  H1       1.0000 0.91700  0.61500  0.24400  Biso   1.000  H
  H2       1.0000 0.08300  0.38500  0.75600  Biso   1.000  H
  N5       1.0000 0.75680  0.11860  0.31830  Biso   1.000  N
  N6       1.0000 0.24320  0.88140  0.68170  Biso   1.000  N
  C1       1.0000 0.26980  0.86460  0.30160  Biso   1.000  C
  C2       1.0000 0.73020  0.13540  0.69840  Biso   1.000  C
  H3       1.0000 0.27560  0.96970  0.28070  Biso   1.000  H
  H4       1.0000 0.72440  0.03030  0.71930  Biso   1.000  H
  C3       1.0000 0.13320  0.78530  0.28320  Biso   1.000  C
  C4       1.0000 0.86680  0.21470  0.71680  Biso   1.000  C
  H5       1.0000 0.04830  0.83680  0.25090  Biso   1.000  H
  H6       1.0000 0.95170  0.16320  0.74910  Biso   1.000  H
  C5       1.0000 0.11830  0.62540  0.31230  Biso   1.000  C
  C6       1.0000 0.88170  0.37460  0.68770  Biso   1.000  C
  C7       1.0000 0.24870  0.55810  0.36490  Biso   1.000  C
  C8       1.0000 0.75130  0.44190  0.63510  Biso   1.000  C
  H7       1.0000 0.24460  0.45400  0.38890  Biso   1.000  H
  H8       1.0000 0.75540  0.54600  0.61110  Biso   1.000  H
  C9       1.0000 0.38300  0.64860  0.38070  Biso   1.000  C
  C10      1.0000 0.61700  0.35140  0.61930  Biso   1.000  C
  H9       1.0000 0.46800  0.60200  0.41560  Biso   1.000  H
  H10      1.0000 0.53200  0.39800  0.58440  Biso   1.000  H
  C11      1.0000 0.88750  0.14190  0.37060  Biso   1.000  C
  C12      1.0000 0.11250  0.85810  0.62940  Biso   1.000  C
  H11      1.0000 0.92400  0.06020  0.41530  Biso   1.000  H
  H12      1.0000 0.07600  0.93980  0.58470  Biso   1.000  H
  C13      1.0000 0.97330  0.28220  0.36220  Biso   1.000  C
  C14      1.0000 0.02670  0.71780  0.63780  Biso   1.000  C
  H13      1.0000 0.06610  0.29240  0.39890  Biso   1.000  H
  H14      1.0000 0.93390  0.70760  0.60110  Biso   1.000  H
  C15      1.0000 0.91760  0.40630  0.29800  Biso   1.000  C
  C16      1.0000 0.08240  0.59370  0.70200  Biso   1.000  C
  C17      1.0000 0.77950  0.38090  0.24140  Biso   1.000  C
  C18      1.0000 0.22050  0.61910  0.75860  Biso   1.000  C
  H15      1.0000 0.73940  0.46040  0.19650  Biso   1.000  H
  H16      1.0000 0.26060  0.53960  0.80350  Biso   1.000  H
  C19      1.0000 0.70530  0.23870  0.25320  Biso   1.000  C
  C20      1.0000 0.29470  0.76130  0.74680  Biso   1.000  C
  H17      1.0000 0.61530  0.22350  0.21480  Biso   1.000  H
  H18      1.0000 0.38470  0.77650  0.78520  Biso   1.000  H
  C21      1.0000 0.70310  0.84280  0.10350  Biso   1.000  C
  C22      1.0000 0.29690  0.15720  0.89650  Biso   1.000  C
  C23      1.0000 0.70900  0.81980  0.96790  Biso   1.000  C
  C24      1.0000 0.29100  0.18020  0.03210  Biso   1.000  C
  H19      1.0000 0.82080  0.85500  0.91580  Biso   1.000  H
  H20      1.0000 0.17920  0.14500  0.08420  Biso   1.000  H
  H21      1.0000 0.61570  0.88210  0.94630  Biso   1.000  H
  H22      1.0000 0.38430  0.11790  0.05370  Biso   1.000  H
  C25      1.0000 0.68710  0.64980  0.94130  Biso   1.000  C
  C26      1.0000 0.31290  0.35020  0.05870  Biso   1.000  C
  H23      1.0000 0.69890  0.63990  0.85270  Biso   1.000  H
  H24      1.0000 0.30110  0.36010  0.14730  Biso   1.000  H
  H25      1.0000 0.78130  0.58830  0.96240  Biso   1.000  H
  H26      1.0000 0.21870  0.41170  0.03760  Biso   1.000  H
  C27      1.0000 0.51110  0.58540  0.01340  Biso   1.000  C
  C28      1.0000 0.48890  0.41460  0.98660  Biso   1.000  C
  H27      1.0000 0.41690  0.64700  0.99240  Biso   1.000  H
  H28      1.0000 0.58310  0.35300  0.00760  Biso   1.000  H
  H29      1.0000 0.49930  0.59520  0.10210  Biso   1.000  H
  H30      1.0000 0.50070  0.40480  0.89790  Biso   1.000  H
