data_image0
_cell_length_a       11.55
_cell_length_b       12.651
_cell_length_c       16.445
_cell_angle_alpha    90
_cell_angle_beta     107.607
_cell_angle_gamma    90

_symmetry_space_group_name_H-M    "P 1"
_symmetry_int_tables_number       1

loop_
  _symmetry_equiv_pos_as_xyz
  'x, y, z'

loop_
  _atom_site_label
  _atom_site_occupancy
  _atom_site_fract_x
  _atom_site_fract_y
  _atom_site_fract_z
  _atom_site_thermal_displace_type
  _atom_site_B_iso_or_equiv
  _atom_site_type_symbol
  Cu1      1.0000 0.51288  0.30184  0.86910  Biso   1.000  Cu
  Cu2      1.0000 0.98712  0.80184  0.63090  Biso   1.000  Cu
  Cu3      1.0000 0.48712  0.69816  0.13090  Biso   1.000  Cu
  Cu4      1.0000 0.01288  0.19816  0.36910  Biso   1.000  Cu
  O1       1.0000 0.67050  0.30260  0.96239  Biso   1.000  O
  O2       1.0000 0.82950  0.80260  0.53761  Biso   1.000  O
  O3       1.0000 0.32950  0.69740  0.03761  Biso   1.000  O
  O4       1.0000 0.17050  0.19740  0.46239  Biso   1.000  O
  O5       1.0000 0.66730  0.14590  0.90269  Biso   1.000  O
  O6       1.0000 0.83270  0.64590  0.59731  Biso   1.000  O
  O7       1.0000 0.33270  0.85410  0.09731  Biso   1.000  O
  O8       1.0000 0.16730  0.35410  0.40269  Biso   1.000  O
  O9       1.0000 0.37020  0.26360  0.77255  Biso   1.000  O
  O10      1.0000 0.12980  0.76360  0.72745  Biso   1.000  O
  O11      1.0000 0.62980  0.73640  0.22745  Biso   1.000  O
  O12      1.0000 0.87020  0.23640  0.27255  Biso   1.000  O
  O13      1.0000 0.29120  0.42450  0.74020  Biso   1.000  O
  O14      1.0000 0.20880  0.92450  0.75980  Biso   1.000  O
  O15      1.0000 0.70880  0.57550  0.25980  Biso   1.000  O
  O16      1.0000 0.79120  0.07550  0.24020  Biso   1.000  O
  O17      1.0000 0.45790  0.47400  0.89000  Biso   1.000  O
  O18      1.0000 0.04210  0.97400  0.61000  Biso   1.000  O
  O19      1.0000 0.54210  0.52600  0.11000  Biso   1.000  O
  O20      1.0000 0.95790  0.02600  0.39000  Biso   1.000  O
  H1       1.0000 0.41600  0.48500  0.92300  Biso   1.000  H
  H2       1.0000 0.08400  0.98500  0.57700  Biso   1.000  H
  H3       1.0000 0.58400  0.51500  0.07700  Biso   1.000  H
  H4       1.0000 0.91600  0.01500  0.42300  Biso   1.000  H
  H5       1.0000 0.42000  0.48200  0.83840  Biso   1.000  H
  H6       1.0000 0.08000  0.98200  0.66160  Biso   1.000  H
  H7       1.0000 0.58000  0.51800  0.16160  Biso   1.000  H
  H8       1.0000 0.92000  0.01800  0.33840  Biso   1.000  H
  N1       1.0000 0.43160  0.23510  0.94730  Biso   1.000  N
  N2       1.0000 0.06840  0.73510  0.55270  Biso   1.000  N
  N3       1.0000 0.56840  0.76490  0.05270  Biso   1.000  N
  N4       1.0000 0.93160  0.26490  0.44730  Biso   1.000  N
  N5       1.0000 0.28910  0.07040  0.11630  Biso   1.000  N
  N6       1.0000 0.21090  0.57040  0.38370  Biso   1.000  N
  N7       1.0000 0.71090  0.92960  0.88370  Biso   1.000  N
  N8       1.0000 0.78910  0.42960  0.61630  Biso   1.000  N
  H9       1.0000 0.30500  0.00340  0.11700  Biso   1.000  H
  H10      1.0000 0.19500  0.50340  0.38300  Biso   1.000  H
  H11      1.0000 0.69500  0.99660  0.88300  Biso   1.000  H
  H12      1.0000 0.80500  0.49660  0.61700  Biso   1.000  H
  N9       1.0000 0.10100  0.15400  0.28760  Biso   1.000  N
  N10      1.0000 0.39900  0.65400  0.21240  Biso   1.000  N
  N11      1.0000 0.89900  0.84600  0.71240  Biso   1.000  N
  N12      1.0000 0.60100  0.34600  0.78760  Biso   1.000  N
  C1       1.0000 0.40310  0.28580  0.01090  Biso   1.000  C
  C2       1.0000 0.09690  0.78580  0.48910  Biso   1.000  C
  C3       1.0000 0.59690  0.71420  0.98910  Biso   1.000  C
  C4       1.0000 0.90310  0.21420  0.51090  Biso   1.000  C
  H13      1.0000 0.41860  0.35790  0.01740  Biso   1.000  H
  H14      1.0000 0.08140  0.85790  0.48260  Biso   1.000  H
  H15      1.0000 0.58140  0.64210  0.98260  Biso   1.000  H
  H16      1.0000 0.91860  0.14210  0.51740  Biso   1.000  H
  C5       1.0000 0.35260  0.23720  0.06610  Biso   1.000  C
  C6       1.0000 0.14740  0.73720  0.43390  Biso   1.000  C
  C7       1.0000 0.64740  0.76280  0.93390  Biso   1.000  C
  C8       1.0000 0.85260  0.26280  0.56610  Biso   1.000  C
  H17      1.0000 0.33260  0.27670  0.10760  Biso   1.000  H
  H18      1.0000 0.16740  0.77670  0.39240  Biso   1.000  H
  H19      1.0000 0.66740  0.72330  0.89240  Biso   1.000  H
  H20      1.0000 0.83260  0.22330  0.60760  Biso   1.000  H
  C9       1.0000 0.33100  0.12890  0.06070  Biso   1.000  C
  C10      1.0000 0.16900  0.62890  0.43930  Biso   1.000  C
  C11      1.0000 0.66900  0.87110  0.93930  Biso   1.000  C
  C12      1.0000 0.83100  0.37110  0.56070  Biso   1.000  C
  C13      1.0000 0.36000  0.07620  0.99420  Biso   1.000  C
  C14      1.0000 0.14000  0.57620  0.50580  Biso   1.000  C
  C15      1.0000 0.64000  0.92380  0.00580  Biso   1.000  C
  C16      1.0000 0.86000  0.42380  0.49420  Biso   1.000  C
  H21      1.0000 0.34670  0.00390  0.98670  Biso   1.000  H
  H22      1.0000 0.15330  0.50390  0.51330  Biso   1.000  H
  H23      1.0000 0.65330  0.99610  0.01330  Biso   1.000  H
  H24      1.0000 0.84670  0.49610  0.48670  Biso   1.000  H
  C17      1.0000 0.40750  0.13120  0.94060  Biso   1.000  C
  C18      1.0000 0.09250  0.63120  0.55940  Biso   1.000  C
  C19      1.0000 0.59250  0.86880  0.05940  Biso   1.000  C
  C20      1.0000 0.90750  0.36880  0.44060  Biso   1.000  C
  H25      1.0000 0.42430  0.09440  0.89650  Biso   1.000  H
  H26      1.0000 0.07570  0.59440  0.60350  Biso   1.000  H
  H27      1.0000 0.57570  0.90560  0.10350  Biso   1.000  H
  H28      1.0000 0.92430  0.40560  0.39650  Biso   1.000  H
  C21      1.0000 0.16300  0.06230  0.29380  Biso   1.000  C
  C22      1.0000 0.33700  0.56230  0.20620  Biso   1.000  C
  C23      1.0000 0.83700  0.93770  0.70620  Biso   1.000  C
  C24      1.0000 0.66300  0.43770  0.79380  Biso   1.000  C
  H29      1.0000 0.16180  0.01560  0.33710  Biso   1.000  H
  H30      1.0000 0.33820  0.51560  0.16290  Biso   1.000  H
  H31      1.0000 0.83820  0.98440  0.66290  Biso   1.000  H
  H32      1.0000 0.66180  0.48440  0.83710  Biso   1.000  H
  C25      1.0000 0.22740  0.03470  0.23960  Biso   1.000  C
  C26      1.0000 0.27260  0.53470  0.26040  Biso   1.000  C
  C27      1.0000 0.77260  0.96530  0.76040  Biso   1.000  C
  C28      1.0000 0.72740  0.46530  0.73960  Biso   1.000  C
  H33      1.0000 0.26910  0.97080  0.24670  Biso   1.000  H
  H34      1.0000 0.23090  0.47080  0.25330  Biso   1.000  H
  H35      1.0000 0.73090  0.02920  0.75330  Biso   1.000  H
  H36      1.0000 0.76910  0.52920  0.74670  Biso   1.000  H
  C29      1.0000 0.23020  0.10310  0.17330  Biso   1.000  C
  C30      1.0000 0.26980  0.60310  0.32670  Biso   1.000  C
  C31      1.0000 0.76980  0.89690  0.82670  Biso   1.000  C
  C32      1.0000 0.73020  0.39690  0.67330  Biso   1.000  C
  C33      1.0000 0.16690  0.19800  0.16730  Biso   1.000  C
  C34      1.0000 0.33310  0.69800  0.33270  Biso   1.000  C
  C35      1.0000 0.83310  0.80200  0.83270  Biso   1.000  C
  C36      1.0000 0.66690  0.30200  0.66730  Biso   1.000  C
  H37      1.0000 0.16680  0.24640  0.12470  Biso   1.000  H
  H38      1.0000 0.33320  0.74640  0.37530  Biso   1.000  H
  H39      1.0000 0.83320  0.75360  0.87530  Biso   1.000  H
  H40      1.0000 0.66680  0.25360  0.62470  Biso   1.000  H
  C37      1.0000 0.10490  0.21980  0.22430  Biso   1.000  C
  C38      1.0000 0.39510  0.71980  0.27570  Biso   1.000  C
  C39      1.0000 0.89510  0.78020  0.77570  Biso   1.000  C
  C40      1.0000 0.60490  0.28020  0.72430  Biso   1.000  C
  H41      1.0000 0.06330  0.28360  0.21900  Biso   1.000  H
  H42      1.0000 0.43670  0.78360  0.28100  Biso   1.000  H
  H43      1.0000 0.93670  0.71640  0.78100  Biso   1.000  H
  H44      1.0000 0.56330  0.21640  0.71900  Biso   1.000  H
  C41      1.0000 0.72050  0.21280  0.95640  Biso   1.000  C
  C42      1.0000 0.77950  0.71280  0.54360  Biso   1.000  C
  C43      1.0000 0.27950  0.78720  0.04360  Biso   1.000  C
  C44      1.0000 0.22050  0.28720  0.45640  Biso   1.000  C
  C45      1.0000 0.84590  0.19090  0.01710  Biso   1.000  C
  C46      1.0000 0.65410  0.69090  0.48290  Biso   1.000  C
  C47      1.0000 0.15410  0.80910  0.98290  Biso   1.000  C
  C48      1.0000 0.34590  0.30910  0.51710  Biso   1.000  C
  H45      1.0000 0.83940  0.14050  0.05990  Biso   1.000  H
  H46      1.0000 0.66060  0.64050  0.44010  Biso   1.000  H
  H47      1.0000 0.16060  0.85950  0.94010  Biso   1.000  H
  H48      1.0000 0.33940  0.35950  0.55990  Biso   1.000  H
  H49      1.0000 0.87950  0.25590  0.04600  Biso   1.000  H
  H50      1.0000 0.62050  0.75590  0.45400  Biso   1.000  H
  H51      1.0000 0.12050  0.74410  0.95400  Biso   1.000  H
  H52      1.0000 0.37950  0.24410  0.54600  Biso   1.000  H
  C49      1.0000 0.93170  0.14710  0.97030  Biso   1.000  C
  C50      1.0000 0.56830  0.64710  0.52970  Biso   1.000  C
  C51      1.0000 0.06830  0.85290  0.02970  Biso   1.000  C
  C52      1.0000 0.43170  0.35290  0.47030  Biso   1.000  C
  H53      1.0000 0.00710  0.12540  0.01190  Biso   1.000  H
  H54      1.0000 0.49290  0.62540  0.48810  Biso   1.000  H
  H55      1.0000 0.99290  0.87460  0.98810  Biso   1.000  H
  H56      1.0000 0.50710  0.37460  0.51190  Biso   1.000  H
  H57      1.0000 0.89510  0.08510  0.93800  Biso   1.000  H
  H58      1.0000 0.60490  0.58510  0.56200  Biso   1.000  H
  H59      1.0000 0.10490  0.91490  0.06200  Biso   1.000  H
  H60      1.0000 0.39510  0.41490  0.43800  Biso   1.000  H
  C53      1.0000 0.95960  0.22750  0.91000  Biso   1.000  C
  C54      1.0000 0.54040  0.72750  0.59000  Biso   1.000  C
  C55      1.0000 0.04040  0.77250  0.09000  Biso   1.000  C
  C56      1.0000 0.45960  0.27250  0.41000  Biso   1.000  C
  H61      1.0000 0.00760  0.28450  0.94310  Biso   1.000  H
  H62      1.0000 0.49240  0.78450  0.55690  Biso   1.000  H
  H63      1.0000 0.99240  0.71550  0.05690  Biso   1.000  H
  H64      1.0000 0.50760  0.21550  0.44310  Biso   1.000  H
  H65      1.0000 0.88410  0.25740  0.87410  Biso   1.000  H
  H66      1.0000 0.61590  0.75740  0.62590  Biso   1.000  H
  H67      1.0000 0.11590  0.74260  0.12590  Biso   1.000  H
  H68      1.0000 0.38410  0.24260  0.37410  Biso   1.000  H
  C57      1.0000 0.02870  0.17840  0.85380  Biso   1.000  C
  C58      1.0000 0.47130  0.67840  0.64620  Biso   1.000  C
  C59      1.0000 0.97130  0.82160  0.14620  Biso   1.000  C
  C60      1.0000 0.52870  0.32160  0.35380  Biso   1.000  C
  H69      1.0000 0.09960  0.14210  0.89010  Biso   1.000  H
  H70      1.0000 0.40040  0.64210  0.60990  Biso   1.000  H
  H71      1.0000 0.90040  0.85790  0.10990  Biso   1.000  H
  H72      1.0000 0.59960  0.35790  0.39010  Biso   1.000  H
  H73      1.0000 0.97710  0.12580  0.81730  Biso   1.000  H
  H74      1.0000 0.52290  0.62580  0.68270  Biso   1.000  H
  H75      1.0000 0.02290  0.87420  0.18270  Biso   1.000  H
  H76      1.0000 0.47710  0.37420  0.31730  Biso   1.000  H
  C61      1.0000 0.06980  0.25680  0.79810  Biso   1.000  C
  C62      1.0000 0.43020  0.75680  0.70190  Biso   1.000  C
  C63      1.0000 0.93020  0.74320  0.20190  Biso   1.000  C
  C64      1.0000 0.56980  0.24320  0.29810  Biso   1.000  C
  H77      1.0000 0.00220  0.30200  0.76900  Biso   1.000  H
  H78      1.0000 0.49780  0.80200  0.73100  Biso   1.000  H
  H79      1.0000 0.99780  0.69800  0.23100  Biso   1.000  H
  H80      1.0000 0.50220  0.19800  0.26900  Biso   1.000  H
  H81      1.0000 0.13360  0.30110  0.83390  Biso   1.000  H
  H82      1.0000 0.36640  0.80110  0.66610  Biso   1.000  H
  H83      1.0000 0.86640  0.69890  0.16610  Biso   1.000  H
  H84      1.0000 0.63360  0.19890  0.33390  Biso   1.000  H
  C65      1.0000 0.11670  0.20100  0.73260  Biso   1.000  C
  C66      1.0000 0.38330  0.70100  0.76740  Biso   1.000  C
  C67      1.0000 0.88330  0.79900  0.26740  Biso   1.000  C
  C68      1.0000 0.61670  0.29900  0.23260  Biso   1.000  C
  H85      1.0000 0.05050  0.16120  0.69440  Biso   1.000  H
  H86      1.0000 0.44950  0.66120  0.80560  Biso   1.000  H
  H87      1.0000 0.94950  0.83880  0.30560  Biso   1.000  H
  H88      1.0000 0.55050  0.33880  0.19440  Biso   1.000  H
  H89      1.0000 0.17900  0.15100  0.76180  Biso   1.000  H
  H90      1.0000 0.32100  0.65100  0.73820  Biso   1.000  H
  H91      1.0000 0.82100  0.84900  0.23820  Biso   1.000  H
  H92      1.0000 0.67900  0.34900  0.26180  Biso   1.000  H
  C69      1.0000 0.16930  0.27520  0.67950  Biso   1.000  C
  C70      1.0000 0.33070  0.77520  0.82050  Biso   1.000  C
  C71      1.0000 0.83070  0.72480  0.32050  Biso   1.000  C
  C72      1.0000 0.66930  0.22480  0.17950  Biso   1.000  C
  H93      1.0000 0.18690  0.23540  0.63420  Biso   1.000  H
  H94      1.0000 0.31310  0.73540  0.86580  Biso   1.000  H
  H95      1.0000 0.81310  0.76460  0.36580  Biso   1.000  H
  H96      1.0000 0.68690  0.26460  0.13420  Biso   1.000  H
  H97      1.0000 0.10980  0.32890  0.65340  Biso   1.000  H
  H98      1.0000 0.39020  0.82890  0.84660  Biso   1.000  H
  H99      1.0000 0.89020  0.67110  0.34660  Biso   1.000  H
  H100     1.0000 0.60980  0.17110  0.15340  Biso   1.000  H
  C73      1.0000 0.28340  0.32730  0.73360  Biso   1.000  C
  C74      1.0000 0.21660  0.82730  0.76640  Biso   1.000  C
  C75      1.0000 0.71660  0.67270  0.26640  Biso   1.000  C
  C76      1.0000 0.78340  0.17270  0.23360  Biso   1.000  C
  O21      1.0000 0.38680  0.05220  0.71800  Biso   1.000  O
  O22      1.0000 0.11320  0.55220  0.78200  Biso   1.000  O
  O23      1.0000 0.61320  0.94780  0.28200  Biso   1.000  O
  O24      1.0000 0.88680  0.44780  0.21800  Biso   1.000  O
  H101     1.0000 0.34200  0.00800  0.73100  Biso   1.000  H
  H102     1.0000 0.15800  0.50800  0.76900  Biso   1.000  H
  H103     1.0000 0.65800  0.99200  0.26900  Biso   1.000  H
  H104     1.0000 0.84200  0.49200  0.23100  Biso   1.000  H
  H105     1.0000 0.37600  0.11570  0.72900  Biso   1.000  H
  H106     1.0000 0.12400  0.61570  0.77100  Biso   1.000  H
  H107     1.0000 0.62400  0.88430  0.27100  Biso   1.000  H
  H108     1.0000 0.87600  0.38430  0.22900  Biso   1.000  H
  O25      1.0000 0.74920  0.48650  0.04910  Biso   1.000  O
  O26      1.0000 0.75080  0.98650  0.45090  Biso   1.000  O
  O27      1.0000 0.25080  0.51350  0.95090  Biso   1.000  O
  O28      1.0000 0.24920  0.01350  0.54910  Biso   1.000  O
  H109     1.0000 0.82800  0.47200  0.05500  Biso   1.000  H
  H110     1.0000 0.67200  0.97200  0.44500  Biso   1.000  H
  H111     1.0000 0.17200  0.52800  0.94500  Biso   1.000  H
  H112     1.0000 0.32800  0.02800  0.55500  Biso   1.000  H
  H113     1.0000 0.71700  0.42600  0.02800  Biso   1.000  H
  H114     1.0000 0.78300  0.92600  0.47200  Biso   1.000  H
  H115     1.0000 0.28300  0.57400  0.97200  Biso   1.000  H
  H116     1.0000 0.21700  0.07400  0.52800  Biso   1.000  H
  O29      1.0000 0.12130  0.42830  0.05920  Biso   1.000  O
  O30      1.0000 0.37870  0.92830  0.44080  Biso   1.000  O
  O31      1.0000 0.87870  0.57170  0.94080  Biso   1.000  O
  O32      1.0000 0.62130  0.07170  0.55920  Biso   1.000  O
  H117     1.0000 0.06100  0.43000  0.08200  Biso   1.000  H
  H118     1.0000 0.43900  0.93000  0.41800  Biso   1.000  H
  H119     1.0000 0.93900  0.57000  0.91800  Biso   1.000  H
  H120     1.0000 0.56100  0.07000  0.58200  Biso   1.000  H
  H121     1.0000 0.11000  0.47900  0.02100  Biso   1.000  H
  H122     1.0000 0.39000  0.97900  0.47900  Biso   1.000  H
  H123     1.0000 0.89000  0.52100  0.97900  Biso   1.000  H
  H124     1.0000 0.61000  0.02100  0.52100  Biso   1.000  H
