data_image0
_cell_length_a       21.8342
_cell_length_b       11.1553
_cell_length_c       15.0734
_cell_angle_alpha    90
_cell_angle_beta     90
_cell_angle_gamma    90

_symmetry_space_group_name_H-M    "P 1"
_symmetry_int_tables_number       1

loop_
  _symmetry_equiv_pos_as_xyz
  'x, y, z'

loop_
  _atom_site_label
  _atom_site_occupancy
  _atom_site_fract_x
  _atom_site_fract_y
  _atom_site_fract_z
  _atom_site_thermal_displace_type
  _atom_site_B_iso_or_equiv
  _atom_site_type_symbol
  Cu1      1.0000 0.16903  0.24979  0.23098  Biso   1.000  Cu
  Cu2      1.0000 0.83097  0.75021  0.73098  Biso   1.000  Cu
  Cu3      1.0000 0.33097  0.74979  0.73098  Biso   1.000  Cu
  Cu4      1.0000 0.66903  0.25021  0.23098  Biso   1.000  Cu
  S1       1.0000 0.43515  0.42880  0.29686  Biso   1.000  S
  S2       1.0000 0.56485  0.57120  0.79686  Biso   1.000  S
  S3       1.0000 0.06485  0.92880  0.79686  Biso   1.000  S
  S4       1.0000 0.93515  0.07120  0.29686  Biso   1.000  S
  S5       1.0000 0.25625  0.36676  0.06218  Biso   1.000  S
  S6       1.0000 0.74375  0.63324  0.56218  Biso   1.000  S
  S7       1.0000 0.24375  0.86676  0.56218  Biso   1.000  S
  S8       1.0000 0.75625  0.13324  0.06218  Biso   1.000  S
  S9       1.0000 0.06326  0.58200  0.67353  Biso   1.000  S
  S10      1.0000 0.93674  0.41800  0.17353  Biso   1.000  S
  S11      1.0000 0.43674  0.08200  0.17353  Biso   1.000  S
  S12      1.0000 0.56326  0.91800  0.67353  Biso   1.000  S
  S13      1.0000 0.24201  0.62168  0.90997  Biso   1.000  S
  S14      1.0000 0.75799  0.37832  0.40997  Biso   1.000  S
  S15      1.0000 0.25799  0.12168  0.40997  Biso   1.000  S
  S16      1.0000 0.74201  0.87832  0.90997  Biso   1.000  S
  N1       1.0000 0.12280  0.24080  0.34630  Biso   1.000  N
  N2       1.0000 0.87720  0.75920  0.84630  Biso   1.000  N
  N3       1.0000 0.37720  0.74080  0.84630  Biso   1.000  N
  N4       1.0000 0.62280  0.25920  0.34630  Biso   1.000  N
  N5       1.0000 0.21950  0.42520  0.38270  Biso   1.000  N
  N6       1.0000 0.78050  0.57480  0.88270  Biso   1.000  N
  N7       1.0000 0.28050  0.92520  0.88270  Biso   1.000  N
  N8       1.0000 0.71950  0.07480  0.38270  Biso   1.000  N
  N9       1.0000 0.23860  0.38670  0.23350  Biso   1.000  N
  N10      1.0000 0.76140  0.61330  0.73350  Biso   1.000  N
  N11      1.0000 0.26140  0.88670  0.73350  Biso   1.000  N
  N12      1.0000 0.73860  0.11330  0.23350  Biso   1.000  N
  N13      1.0000 0.31890  0.42410  0.33820  Biso   1.000  N
  N14      1.0000 0.68110  0.57590  0.83820  Biso   1.000  N
  N15      1.0000 0.18110  0.92410  0.83820  Biso   1.000  N
  N16      1.0000 0.81890  0.07590  0.33820  Biso   1.000  N
  N17      1.0000 0.34270  0.40170  0.18250  Biso   1.000  N
  N18      1.0000 0.65730  0.59830  0.68250  Biso   1.000  N
  N19      1.0000 0.15730  0.90170  0.68250  Biso   1.000  N
  N20      1.0000 0.84270  0.09830  0.18250  Biso   1.000  N
  N21      1.0000 0.38030  0.73780  0.62150  Biso   1.000  N
  N22      1.0000 0.61970  0.26220  0.12150  Biso   1.000  N
  N23      1.0000 0.11970  0.23780  0.12150  Biso   1.000  N
  N24      1.0000 0.88030  0.76220  0.62150  Biso   1.000  N
  N25      1.0000 0.27920  0.55920  0.59110  Biso   1.000  N
  N26      1.0000 0.72080  0.44080  0.09110  Biso   1.000  N
  N27      1.0000 0.22080  0.05920  0.09110  Biso   1.000  N
  N28      1.0000 0.77920  0.94080  0.59110  Biso   1.000  N
  N29      1.0000 0.25880  0.60160  0.73990  Biso   1.000  N
  N30      1.0000 0.74120  0.39840  0.23990  Biso   1.000  N
  N31      1.0000 0.24120  0.10160  0.23990  Biso   1.000  N
  N32      1.0000 0.75880  0.89840  0.73990  Biso   1.000  N
  N33      1.0000 0.17710  0.57890  0.63660  Biso   1.000  N
  N34      1.0000 0.82290  0.42110  0.13660  Biso   1.000  N
  N35      1.0000 0.32290  0.07890  0.13660  Biso   1.000  N
  N36      1.0000 0.67710  0.92110  0.63660  Biso   1.000  N
  N37      1.0000 0.15490  0.59850  0.78720  Biso   1.000  N
  N38      1.0000 0.84510  0.40150  0.28720  Biso   1.000  N
  N39      1.0000 0.34510  0.09850  0.28720  Biso   1.000  N
  N40      1.0000 0.65490  0.90150  0.78720  Biso   1.000  N
  C1       1.0000 0.09600  0.13820  0.36690  Biso   1.000  C
  C2       1.0000 0.90400  0.86180  0.86690  Biso   1.000  C
  C3       1.0000 0.40400  0.63820  0.86690  Biso   1.000  C
  C4       1.0000 0.59600  0.36180  0.36690  Biso   1.000  C
  H1       1.0000 0.10170  0.07100  0.32910  Biso   1.000  H
  H2       1.0000 0.89830  0.92900  0.82910  Biso   1.000  H
  H3       1.0000 0.39830  0.57100  0.82910  Biso   1.000  H
  H4       1.0000 0.60170  0.42900  0.32910  Biso   1.000  H
  C5       1.0000 0.05970  0.12540  0.44240  Biso   1.000  C
  C6       1.0000 0.94030  0.87460  0.94240  Biso   1.000  C
  C7       1.0000 0.44030  0.62540  0.94240  Biso   1.000  C
  C8       1.0000 0.55970  0.37460  0.44240  Biso   1.000  C
  H5       1.0000 0.04000  0.05210  0.45710  Biso   1.000  H
  H6       1.0000 0.96000  0.94790  0.95710  Biso   1.000  H
  H7       1.0000 0.46000  0.55210  0.95710  Biso   1.000  H
  H8       1.0000 0.54000  0.44790  0.45710  Biso   1.000  H
  C9       1.0000 0.05430  0.22730  0.49430  Biso   1.000  C
  C10      1.0000 0.94570  0.77270  0.99430  Biso   1.000  C
  C11      1.0000 0.44570  0.72730  0.99430  Biso   1.000  C
  C12      1.0000 0.55430  0.27270  0.49430  Biso   1.000  C
  H9       1.0000 0.02950  0.22170  0.54590  Biso   1.000  H
  H10      1.0000 0.97050  0.77830  0.04590  Biso   1.000  H
  H11      1.0000 0.47050  0.72170  0.04590  Biso   1.000  H
  H12      1.0000 0.52950  0.27830  0.54590  Biso   1.000  H
  C13      1.0000 0.08300  0.34100  0.47680  Biso   1.000  C
  C14      1.0000 0.91700  0.65900  0.97680  Biso   1.000  C
  C15      1.0000 0.41700  0.84100  0.97680  Biso   1.000  C
  C16      1.0000 0.58300  0.15900  0.47680  Biso   1.000  C
  H13      1.0000 0.07960  0.40960  0.51380  Biso   1.000  H
  H14      1.0000 0.92040  0.59040  0.01380  Biso   1.000  H
  H15      1.0000 0.42040  0.90960  0.01380  Biso   1.000  H
  H16      1.0000 0.57960  0.09040  0.51380  Biso   1.000  H
  C17      1.0000 0.11730  0.33620  0.39620  Biso   1.000  C
  C18      1.0000 0.88270  0.66380  0.89620  Biso   1.000  C
  C19      1.0000 0.38270  0.83620  0.89620  Biso   1.000  C
  C20      1.0000 0.61730  0.16380  0.39620  Biso   1.000  C
  C21      1.0000 0.15330  0.44740  0.36820  Biso   1.000  C
  C22      1.0000 0.84670  0.55260  0.86820  Biso   1.000  C
  C23      1.0000 0.34670  0.94740  0.86820  Biso   1.000  C
  C24      1.0000 0.65330  0.05260  0.36820  Biso   1.000  C
  H17      1.0000 0.14560  0.46490  0.30470  Biso   1.000  H
  H18      1.0000 0.85440  0.53510  0.80470  Biso   1.000  H
  H19      1.0000 0.35440  0.96490  0.80470  Biso   1.000  H
  H20      1.0000 0.64560  0.03510  0.30470  Biso   1.000  H
  H21      1.0000 0.13990  0.51750  0.40350  Biso   1.000  H
  H22      1.0000 0.86010  0.48250  0.90350  Biso   1.000  H
  H23      1.0000 0.36010  0.01750  0.90350  Biso   1.000  H
  H24      1.0000 0.63990  0.98250  0.40350  Biso   1.000  H
  C25      1.0000 0.23910  0.43210  0.47530  Biso   1.000  C
  C26      1.0000 0.76090  0.56790  0.97530  Biso   1.000  C
  C27      1.0000 0.26090  0.93210  0.97530  Biso   1.000  C
  C28      1.0000 0.73910  0.06790  0.47530  Biso   1.000  C
  H25      1.0000 0.27430  0.37770  0.48480  Biso   1.000  H
  H26      1.0000 0.72570  0.62230  0.98480  Biso   1.000  H
  H27      1.0000 0.22570  0.87770  0.98480  Biso   1.000  H
  H28      1.0000 0.77430  0.12230  0.48480  Biso   1.000  H
  H29      1.0000 0.20530  0.40550  0.51440  Biso   1.000  H
  H30      1.0000 0.79470  0.59450  0.01440  Biso   1.000  H
  H31      1.0000 0.29470  0.90550  0.01440  Biso   1.000  H
  H32      1.0000 0.70530  0.09450  0.51440  Biso   1.000  H
  C29      1.0000 0.25980  0.41050  0.31320  Biso   1.000  C
  C30      1.0000 0.74020  0.58950  0.81320  Biso   1.000  C
  C31      1.0000 0.24020  0.91050  0.81320  Biso   1.000  C
  C32      1.0000 0.75980  0.08950  0.31320  Biso   1.000  C
  C33      1.0000 0.35720  0.41450  0.27120  Biso   1.000  C
  C34      1.0000 0.64280  0.58550  0.77120  Biso   1.000  C
  C35      1.0000 0.14280  0.91450  0.77120  Biso   1.000  C
  C36      1.0000 0.85720  0.08550  0.27120  Biso   1.000  C
  C37      1.0000 0.28480  0.38800  0.17100  Biso   1.000  C
  C38      1.0000 0.71520  0.61200  0.67100  Biso   1.000  C
  C39      1.0000 0.21520  0.88800  0.67100  Biso   1.000  C
  C40      1.0000 0.78480  0.11200  0.17100  Biso   1.000  C
  C41      1.0000 0.47280  0.42540  0.18830  Biso   1.000  C
  C42      1.0000 0.52720  0.57460  0.68830  Biso   1.000  C
  C43      1.0000 0.02720  0.92540  0.68830  Biso   1.000  C
  C44      1.0000 0.97280  0.07460  0.18830  Biso   1.000  C
  H33      1.0000 0.47190  0.34350  0.16480  Biso   1.000  H
  H34      1.0000 0.52810  0.65650  0.66480  Biso   1.000  H
  H35      1.0000 0.02810  0.84350  0.66480  Biso   1.000  H
  H36      1.0000 0.97190  0.15650  0.16480  Biso   1.000  H
  H37      1.0000 0.51540  0.45170  0.19460  Biso   1.000  H
  H38      1.0000 0.48460  0.54830  0.69460  Biso   1.000  H
  H39      1.0000 0.98460  0.95170  0.69460  Biso   1.000  H
  H40      1.0000 0.01540  0.04830  0.19460  Biso   1.000  H
  H41      1.0000 0.45120  0.47910  0.14740  Biso   1.000  H
  H42      1.0000 0.54880  0.52090  0.64740  Biso   1.000  H
  H43      1.0000 0.04880  0.97910  0.64740  Biso   1.000  H
  H44      1.0000 0.95120  0.02090  0.14740  Biso   1.000  H
  C45      1.0000 0.32440  0.36520  0.99970  Biso   1.000  C
  C46      1.0000 0.67560  0.63480  0.49970  Biso   1.000  C
  C47      1.0000 0.17560  0.86520  0.49970  Biso   1.000  C
  C48      1.0000 0.82440  0.13480  0.99970  Biso   1.000  C
  H45      1.0000 0.34460  0.44340  0.00420  Biso   1.000  H
  H46      1.0000 0.65540  0.55660  0.50420  Biso   1.000  H
  H47      1.0000 0.15540  0.94340  0.50420  Biso   1.000  H
  H48      1.0000 0.84460  0.05660  0.00420  Biso   1.000  H
  H49      1.0000 0.31480  0.34830  0.93740  Biso   1.000  H
  H50      1.0000 0.68520  0.65170  0.43740  Biso   1.000  H
  H51      1.0000 0.18520  0.84830  0.43740  Biso   1.000  H
  H52      1.0000 0.81480  0.15170  0.93740  Biso   1.000  H
  H53      1.0000 0.35180  0.30290  0.02270  Biso   1.000  H
  H54      1.0000 0.64820  0.69710  0.52270  Biso   1.000  H
  H55      1.0000 0.14820  0.80290  0.52270  Biso   1.000  H
  H56      1.0000 0.85180  0.19710  0.02270  Biso   1.000  H
  C49      1.0000 0.41340  0.83010  0.58700  Biso   1.000  C
  C50      1.0000 0.58660  0.16990  0.08700  Biso   1.000  C
  C51      1.0000 0.08660  0.33010  0.08700  Biso   1.000  C
  C52      1.0000 0.91340  0.66990  0.58700  Biso   1.000  C
  H57      1.0000 0.41130  0.90460  0.61740  Biso   1.000  H
  H58      1.0000 0.58870  0.09540  0.11740  Biso   1.000  H
  H59      1.0000 0.08870  0.40460  0.11740  Biso   1.000  H
  H60      1.0000 0.91130  0.59540  0.61740  Biso   1.000  H
  C53      1.0000 0.44840  0.82590  0.51470  Biso   1.000  C
  C54      1.0000 0.55160  0.17410  0.01470  Biso   1.000  C
  C55      1.0000 0.05160  0.32590  0.01470  Biso   1.000  C
  C56      1.0000 0.94840  0.67410  0.51470  Biso   1.000  C
  H61      1.0000 0.46810  0.89530  0.49190  Biso   1.000  H
  H62      1.0000 0.53190  0.10470  0.99190  Biso   1.000  H
  H63      1.0000 0.03190  0.39530  0.99190  Biso   1.000  H
  H64      1.0000 0.96810  0.60470  0.49190  Biso   1.000  H
  C57      1.0000 0.45480  0.70730  0.47170  Biso   1.000  C
  C58      1.0000 0.54520  0.29270  0.97170  Biso   1.000  C
  C59      1.0000 0.04520  0.20730  0.97170  Biso   1.000  C
  C60      1.0000 0.95480  0.79270  0.47170  Biso   1.000  C
  H65      1.0000 0.48200  0.69390  0.42360  Biso   1.000  H
  H66      1.0000 0.51800  0.30610  0.92360  Biso   1.000  H
  H67      1.0000 0.01800  0.19390  0.92360  Biso   1.000  H
  H68      1.0000 0.98200  0.80610  0.42360  Biso   1.000  H
  C61      1.0000 0.41950  0.62010  0.50550  Biso   1.000  C
  C62      1.0000 0.58050  0.37990  0.00550  Biso   1.000  C
  C63      1.0000 0.08050  0.12010  0.00550  Biso   1.000  C
  C64      1.0000 0.91950  0.87990  0.50550  Biso   1.000  C
  H69      1.0000 0.42030  0.54350  0.47800  Biso   1.000  H
  H70      1.0000 0.57970  0.45650  0.97800  Biso   1.000  H
  H71      1.0000 0.07970  0.04350  0.97800  Biso   1.000  H
  H72      1.0000 0.92030  0.95650  0.47800  Biso   1.000  H
  C65      1.0000 0.38300  0.63580  0.57620  Biso   1.000  C
  C66      1.0000 0.61700  0.36420  0.07620  Biso   1.000  C
  C67      1.0000 0.11700  0.13580  0.07620  Biso   1.000  C
  C68      1.0000 0.88300  0.86420  0.57620  Biso   1.000  C
  C69      1.0000 0.34390  0.53790  0.60660  Biso   1.000  C
  C70      1.0000 0.65610  0.46210  0.10660  Biso   1.000  C
  C71      1.0000 0.15610  0.03790  0.10660  Biso   1.000  C
  C72      1.0000 0.84390  0.96210  0.60660  Biso   1.000  C
  H73      1.0000 0.35610  0.46330  0.57570  Biso   1.000  H
  H74      1.0000 0.64390  0.53670  0.07570  Biso   1.000  H
  H75      1.0000 0.14390  0.96330  0.07570  Biso   1.000  H
  H76      1.0000 0.85610  0.03670  0.57570  Biso   1.000  H
  H77      1.0000 0.35060  0.52560  0.67090  Biso   1.000  H
  H78      1.0000 0.64940  0.47440  0.17090  Biso   1.000  H
  H79      1.0000 0.14940  0.02560  0.17090  Biso   1.000  H
  H80      1.0000 0.85060  0.97440  0.67090  Biso   1.000  H
  C73      1.0000 0.25690  0.55520  0.49880  Biso   1.000  C
  C74      1.0000 0.74310  0.44480  0.99880  Biso   1.000  C
  C75      1.0000 0.24310  0.05520  0.99880  Biso   1.000  C
  C76      1.0000 0.75690  0.94480  0.49880  Biso   1.000  C
  H81      1.0000 0.22110  0.60920  0.49220  Biso   1.000  H
  H82      1.0000 0.77890  0.39080  0.99220  Biso   1.000  H
  H83      1.0000 0.27890  0.10920  0.99220  Biso   1.000  H
  H84      1.0000 0.72110  0.89080  0.49220  Biso   1.000  H
  H85      1.0000 0.28940  0.58330  0.45810  Biso   1.000  H
  H86      1.0000 0.71060  0.41670  0.95810  Biso   1.000  H
  H87      1.0000 0.21060  0.08330  0.95810  Biso   1.000  H
  H88      1.0000 0.78940  0.91670  0.45810  Biso   1.000  H
  C77      1.0000 0.23650  0.57840  0.65370  Biso   1.000  C
  C78      1.0000 0.76350  0.42160  0.15370  Biso   1.000  C
  C79      1.0000 0.26350  0.07840  0.15370  Biso   1.000  C
  C80      1.0000 0.73650  0.92160  0.65370  Biso   1.000  C
  C81      1.0000 0.14060  0.58710  0.70520  Biso   1.000  C
  C82      1.0000 0.85940  0.41290  0.20520  Biso   1.000  C
  C83      1.0000 0.35940  0.08710  0.20520  Biso   1.000  C
  C84      1.0000 0.64060  0.91290  0.70520  Biso   1.000  C
  C85      1.0000 0.21750  0.60880  0.80290  Biso   1.000  C
  C86      1.0000 0.78250  0.39120  0.30290  Biso   1.000  C
  C87      1.0000 0.28250  0.10880  0.30290  Biso   1.000  C
  C88      1.0000 0.71750  0.89120  0.80290  Biso   1.000  C
  C89      1.0000 0.02600  0.59010  0.77640  Biso   1.000  C
  C90      1.0000 0.97400  0.40990  0.27640  Biso   1.000  C
  C91      1.0000 0.47400  0.09010  0.27640  Biso   1.000  C
  C92      1.0000 0.52600  0.90990  0.77640  Biso   1.000  C
  H89      1.0000 0.02960  0.51300  0.80710  Biso   1.000  H
  H90      1.0000 0.97040  0.48700  0.30710  Biso   1.000  H
  H91      1.0000 0.47040  0.01300  0.30710  Biso   1.000  H
  H92      1.0000 0.52960  0.98700  0.80710  Biso   1.000  H
  H93      1.0000 0.98260  0.60890  0.76720  Biso   1.000  H
  H94      1.0000 0.01740  0.39110  0.26720  Biso   1.000  H
  H95      1.0000 0.51740  0.10890  0.26720  Biso   1.000  H
  H96      1.0000 0.48260  0.89110  0.76720  Biso   1.000  H
  H97      1.0000 0.04490  0.65310  0.81260  Biso   1.000  H
  H98      1.0000 0.95510  0.34690  0.31260  Biso   1.000  H
  H99      1.0000 0.45510  0.15310  0.31260  Biso   1.000  H
  H100     1.0000 0.54490  0.84690  0.81260  Biso   1.000  H
  C93      1.0000 0.16880  0.63170  0.97050  Biso   1.000  C
  C94      1.0000 0.83120  0.36830  0.47050  Biso   1.000  C
  C95      1.0000 0.33120  0.13170  0.47050  Biso   1.000  C
  C96      1.0000 0.66880  0.86830  0.97050  Biso   1.000  C
  H101     1.0000 0.14540  0.70060  0.94860  Biso   1.000  H
  H102     1.0000 0.85460  0.29940  0.44860  Biso   1.000  H
  H103     1.0000 0.35460  0.20060  0.44860  Biso   1.000  H
  H104     1.0000 0.64540  0.79940  0.94860  Biso   1.000  H
  H105     1.0000 0.17700  0.64190  0.03400  Biso   1.000  H
  H106     1.0000 0.82300  0.35810  0.53400  Biso   1.000  H
  H107     1.0000 0.32300  0.14190  0.53400  Biso   1.000  H
  H108     1.0000 0.67700  0.85810  0.03400  Biso   1.000  H
  H109     1.0000 0.14520  0.55810  0.96100  Biso   1.000  H
  H110     1.0000 0.85480  0.44190  0.46100  Biso   1.000  H
  H111     1.0000 0.35480  0.05810  0.46100  Biso   1.000  H
  H112     1.0000 0.64520  0.94190  0.96100  Biso   1.000  H
  S17      1.0000 0.08996  0.75620  0.29710  Biso   1.000  S
  S18      1.0000 0.91004  0.24380  0.79710  Biso   1.000  S
  S19      1.0000 0.41004  0.25620  0.79710  Biso   1.000  S
  S20      1.0000 0.58996  0.74380  0.29710  Biso   1.000  S
  O1       1.0000 0.06810  0.68250  0.35450  Biso   1.000  O
  O2       1.0000 0.93190  0.31750  0.85450  Biso   1.000  O
  O3       1.0000 0.43190  0.18250  0.85450  Biso   1.000  O
  O4       1.0000 0.56810  0.81750  0.35450  Biso   1.000  O
  O5       1.0000 0.07600  0.87490  0.30560  Biso   1.000  O
  O6       1.0000 0.92400  0.12510  0.80560  Biso   1.000  O
  O7       1.0000 0.42400  0.37490  0.80560  Biso   1.000  O
  O8       1.0000 0.57600  0.62510  0.30560  Biso   1.000  O
  O9       1.0000 0.15680  0.73750  0.28170  Biso   1.000  O
  O10      1.0000 0.84320  0.26250  0.78170  Biso   1.000  O
  O11      1.0000 0.34320  0.23750  0.78170  Biso   1.000  O
  O12      1.0000 0.65680  0.76250  0.28170  Biso   1.000  O
  C97      1.0000 0.06750  0.72330  0.21160  Biso   1.000  C
  C98      1.0000 0.93250  0.27670  0.71160  Biso   1.000  C
  C99      1.0000 0.43250  0.22330  0.71160  Biso   1.000  C
  C100     1.0000 0.56750  0.77670  0.21160  Biso   1.000  C
  F1       1.0000 0.99090  0.75090  0.26070  Biso   1.000  F
  F2       1.0000 0.00910  0.24910  0.76070  Biso   1.000  F
  F3       1.0000 0.50910  0.25090  0.76070  Biso   1.000  F
  F4       1.0000 0.49090  0.74910  0.26070  Biso   1.000  F
  F5       1.0000 0.99850  0.70490  0.19430  Biso   1.000  F
  F6       1.0000 0.00150  0.29510  0.69430  Biso   1.000  F
  F7       1.0000 0.50150  0.20490  0.69430  Biso   1.000  F
  F8       1.0000 0.49850  0.79510  0.19430  Biso   1.000  F
  F9       1.0000 0.07090  0.60160  0.17190  Biso   1.000  F
  F10      1.0000 0.92910  0.39840  0.67190  Biso   1.000  F
  F11      1.0000 0.42910  0.10160  0.67190  Biso   1.000  F
  F12      1.0000 0.57090  0.89840  0.17190  Biso   1.000  F
  F13      1.0000 0.06980  0.79720  0.12940  Biso   1.000  F
  F14      1.0000 0.93020  0.20280  0.62940  Biso   1.000  F
  F15      1.0000 0.43020  0.29720  0.62940  Biso   1.000  F
  F16      1.0000 0.56980  0.70280  0.12940  Biso   1.000  F
  F17      1.0000 0.15460  0.24050  0.69100  Biso   1.000  F
  F18      1.0000 0.84540  0.75950  0.19100  Biso   1.000  F
  F19      1.0000 0.34540  0.74050  0.19100  Biso   1.000  F
  F20      1.0000 0.65460  0.25950  0.69100  Biso   1.000  F
  F21      1.0000 0.25720  0.29950  0.66300  Biso   1.000  F
  F22      1.0000 0.74280  0.70050  0.16300  Biso   1.000  F
  F23      1.0000 0.24280  0.79950  0.16300  Biso   1.000  F
  F24      1.0000 0.75720  0.20050  0.66300  Biso   1.000  F
  F25      1.0000 0.18600  0.19800  0.64800  Biso   1.000  F
  F26      1.0000 0.81400  0.80200  0.14800  Biso   1.000  F
  F27      1.0000 0.31400  0.69800  0.14800  Biso   1.000  F
  F28      1.0000 0.68600  0.30200  0.64800  Biso   1.000  F
  S21      1.0000 0.32210  0.80470  0.35690  Biso   1.000  S
  S22      1.0000 0.67790  0.19530  0.85690  Biso   1.000  S
  S23      1.0000 0.17790  0.30470  0.85690  Biso   1.000  S
  S24      1.0000 0.82210  0.69530  0.35690  Biso   1.000  S
  S25      1.0000 0.33600  0.78700  0.30200  Biso   1.000  S
  S26      1.0000 0.66400  0.21300  0.80200  Biso   1.000  S
  S27      1.0000 0.16400  0.28700  0.80200  Biso   1.000  S
  S28      1.0000 0.83600  0.71300  0.30200  Biso   1.000  S
  O13      1.0000 0.25700  0.67000  0.30000  Biso   1.000  O
  O14      1.0000 0.74300  0.33000  0.80000  Biso   1.000  O
  O15      1.0000 0.24300  0.17000  0.80000  Biso   1.000  O
  O16      1.0000 0.75700  0.83000  0.30000  Biso   1.000  O
  O17      1.0000 0.29220  0.72200  0.17790  Biso   1.000  O
  O18      1.0000 0.70780  0.27800  0.67790  Biso   1.000  O
  O19      1.0000 0.20780  0.22200  0.67790  Biso   1.000  O
  O20      1.0000 0.79220  0.77800  0.17790  Biso   1.000  O
  O21      1.0000 0.31900  0.75500  0.28900  Biso   1.000  O
  O22      1.0000 0.68100  0.24500  0.78900  Biso   1.000  O
  O23      1.0000 0.18100  0.25500  0.78900  Biso   1.000  O
  O24      1.0000 0.81900  0.74500  0.28900  Biso   1.000  O
  C101     1.0000 0.32100  0.74200  0.24400  Biso   1.000  C
  C102     1.0000 0.67900  0.25800  0.74400  Biso   1.000  C
  C103     1.0000 0.17900  0.24200  0.74400  Biso   1.000  C
  C104     1.0000 0.82100  0.75800  0.24400  Biso   1.000  C
