data_image0
_cell_length_a       8.181
_cell_length_b       8.774
_cell_length_c       11.614
_cell_angle_alpha    76.83
_cell_angle_beta     88.9
_cell_angle_gamma    71.29

_symmetry_space_group_name_H-M    "P 1"
_symmetry_int_tables_number       1

loop_
  _symmetry_equiv_pos_as_xyz
  'x, y, z'

loop_
  _atom_site_label
  _atom_site_occupancy
  _atom_site_fract_x
  _atom_site_fract_y
  _atom_site_fract_z
  _atom_site_thermal_displace_type
  _atom_site_B_iso_or_equiv
  _atom_site_type_symbol
  Cu1      1.0000 0.00000  0.00000  0.50000  Biso   1.000  Cu
  Cl1      1.0000 0.19269  0.75824  0.48568  Biso   1.000  Cl
  Cl2      1.0000 0.80731  0.24176  0.51432  Biso   1.000  Cl
  S1       1.0000 0.47100  0.30418  0.89025  Biso   1.000  S
  S2       1.0000 0.52900  0.69582  0.10975  Biso   1.000  S
  S3       1.0000 0.14531  0.40277  0.26820  Biso   1.000  S
  S4       1.0000 0.85469  0.59723  0.73180  Biso   1.000  S
  N1       1.0000 0.17470  0.02920  0.60650  Biso   1.000  N
  N2       1.0000 0.82530  0.97080  0.39350  Biso   1.000  N
  C1       1.0000 0.29270  0.09780  0.55740  Biso   1.000  C
  C2       1.0000 0.70730  0.90220  0.44260  Biso   1.000  C
  C3       1.0000 0.43440  0.09440  0.62020  Biso   1.000  C
  C4       1.0000 0.56560  0.90560  0.37980  Biso   1.000  C
  H1       1.0000 0.51250  0.14800  0.58350  Biso   1.000  H
  H2       1.0000 0.48750  0.85200  0.41650  Biso   1.000  H
  C5       1.0000 0.46120  0.01090  0.73850  Biso   1.000  C
  C6       1.0000 0.53880  0.98910  0.26150  Biso   1.000  C
  C7       1.0000 0.33780  0.94520  0.79170  Biso   1.000  C
  C8       1.0000 0.66220  0.05480  0.20830  Biso   1.000  C
  C9       1.0000 0.19420  0.96070  0.72430  Biso   1.000  C
  C10      1.0000 0.80580  0.03930  0.27570  Biso   1.000  C
  C11      1.0000 0.04850  0.89840  0.77160  Biso   1.000  C
  C12      1.0000 0.95150  0.10160  0.22840  Biso   1.000  C
  C13      1.0000 0.94320  0.96890  0.96610  Biso   1.000  C
  C14      1.0000 0.05680  0.03110  0.03390  Biso   1.000  C
  C15      1.0000 0.12900  0.69050  0.95800  Biso   1.000  C
  C16      1.0000 0.87100  0.30950  0.04200  Biso   1.000  C
  C17      1.0000 0.31630  0.44090  0.95740  Biso   1.000  C
  C18      1.0000 0.68370  0.55910  0.04260  Biso   1.000  C
  C19      1.0000 0.18010  0.48500  0.12080  Biso   1.000  C
  C20      1.0000 0.81990  0.51500  0.87920  Biso   1.000  C
  C21      1.0000 0.48060  0.43410  0.74680  Biso   1.000  C
  C22      1.0000 0.51940  0.56590  0.25320  Biso   1.000  C
  H3       1.0000 0.37530  0.45620  0.69810  Biso   1.000  H
  H4       1.0000 0.62470  0.54380  0.30190  Biso   1.000  H
  H5       1.0000 0.58160  0.37750  0.70760  Biso   1.000  H
  H6       1.0000 0.41840  0.62250  0.29240  Biso   1.000  H
  H7       1.0000 0.49030  0.53880  0.75680  Biso   1.000  H
  H8       1.0000 0.50970  0.46120  0.24320  Biso   1.000  H
  C23      1.0000 0.97970  0.57360  0.30540  Biso   1.000  C
  C24      1.0000 0.02030  0.42640  0.69460  Biso   1.000  C
  H9       1.0000 0.03070  0.65580  0.31810  Biso   1.000  H
  H10      1.0000 0.96930  0.34420  0.68190  Biso   1.000  H
  H11      1.0000 0.92790  0.53340  0.37790  Biso   1.000  H
  H12      1.0000 0.07210  0.46660  0.62210  Biso   1.000  H
  H13      1.0000 0.89040  0.62450  0.24050  Biso   1.000  H
  H14      1.0000 0.10960  0.37550  0.75950  Biso   1.000  H
  N3       1.0000 0.04700  0.84980  0.90060  Biso   1.000  N
  N4       1.0000 0.95300  0.15020  0.09940  Biso   1.000  N
  N5       1.0000 0.23710  0.59360  0.89490  Biso   1.000  N
  N6       1.0000 0.76290  0.40640  0.10510  Biso   1.000  N
  N7       1.0000 0.29350  0.37600  0.07000  Biso   1.000  N
  N8       1.0000 0.70650  0.62400  0.93000  Biso   1.000  N
  N9       1.0000 0.09710  0.64380  0.07250  Biso   1.000  N
  N10      1.0000 0.90290  0.35620  0.92750  Biso   1.000  N
  H15      1.0000 0.27300  0.13700  0.47700  Biso   1.000  H
  H16      1.0000 0.72700  0.86300  0.52300  Biso   1.000  H
  H17      1.0000 0.55500  0.99100  0.78100  Biso   1.000  H
  H18      1.0000 0.44500  0.00900  0.21900  Biso   1.000  H
  H19      1.0000 0.35800  0.89000  0.85800  Biso   1.000  H
  H20      1.0000 0.64200  0.11000  0.14200  Biso   1.000  H
  H21      1.0000 0.94000  0.97900  0.74400  Biso   1.000  H
  H22      1.0000 0.06000  0.02100  0.25600  Biso   1.000  H
  H23      1.0000 0.05200  0.80900  0.74300  Biso   1.000  H
  H24      1.0000 0.94800  0.19100  0.25700  Biso   1.000  H
  H25      1.0000 0.86900  0.06300  0.90900  Biso   1.000  H
  H26      1.0000 0.13100  0.93700  0.09100  Biso   1.000  H
  H27      1.0000 0.87200  0.92400  0.01100  Biso   1.000  H
  H28      1.0000 0.12800  0.07600  0.98900  Biso   1.000  H
