data_image0
_cell_length_a       11.2152
_cell_length_b       9.3864
_cell_length_c       26.2788
_cell_angle_alpha    90
_cell_angle_beta     90
_cell_angle_gamma    90

_symmetry_space_group_name_H-M    "P 1"
_symmetry_int_tables_number       1

loop_
  _symmetry_equiv_pos_as_xyz
  'x, y, z'

loop_
  _atom_site_label
  _atom_site_occupancy
  _atom_site_fract_x
  _atom_site_fract_y
  _atom_site_fract_z
  _atom_site_thermal_displace_type
  _atom_site_B_iso_or_equiv
  _atom_site_type_symbol
  Cu1      1.0000 0.56886  0.04499  0.62221  Biso   1.000  Cu
  Cu2      1.0000 0.93114  0.95501  0.12221  Biso   1.000  Cu
  Cu3      1.0000 0.43114  0.54499  0.87779  Biso   1.000  Cu
  Cu4      1.0000 0.06886  0.45501  0.37779  Biso   1.000  Cu
  Cu5      1.0000 0.43114  0.95501  0.37779  Biso   1.000  Cu
  Cu6      1.0000 0.06886  0.04499  0.87779  Biso   1.000  Cu
  Cu7      1.0000 0.56886  0.45501  0.12221  Biso   1.000  Cu
  Cu8      1.0000 0.93114  0.54499  0.62221  Biso   1.000  Cu
  N1       1.0000 0.67910  0.96940  0.57187  Biso   1.000  N
  N2       1.0000 0.82090  0.03060  0.07187  Biso   1.000  N
  N3       1.0000 0.32090  0.46940  0.92813  Biso   1.000  N
  N4       1.0000 0.17910  0.53060  0.42813  Biso   1.000  N
  N5       1.0000 0.32090  0.03060  0.42813  Biso   1.000  N
  N6       1.0000 0.17910  0.96940  0.92813  Biso   1.000  N
  N7       1.0000 0.67910  0.53060  0.07187  Biso   1.000  N
  N8       1.0000 0.82090  0.46940  0.57187  Biso   1.000  N
  O1       1.0000 0.50752  0.18070  0.57430  Biso   1.000  O
  O2       1.0000 0.99248  0.81930  0.07430  Biso   1.000  O
  O3       1.0000 0.49248  0.68070  0.92570  Biso   1.000  O
  O4       1.0000 0.00752  0.31930  0.42570  Biso   1.000  O
  O5       1.0000 0.49248  0.81930  0.42570  Biso   1.000  O
  O6       1.0000 0.00752  0.18070  0.92570  Biso   1.000  O
  O7       1.0000 0.50752  0.31930  0.07430  Biso   1.000  O
  O8       1.0000 0.99248  0.68070  0.57430  Biso   1.000  O
  C1       1.0000 0.53480  0.19700  0.52632  Biso   1.000  C
  C2       1.0000 0.96520  0.80300  0.02632  Biso   1.000  C
  C3       1.0000 0.46520  0.69700  0.97368  Biso   1.000  C
  C4       1.0000 0.03480  0.30300  0.47368  Biso   1.000  C
  C5       1.0000 0.46520  0.80300  0.47368  Biso   1.000  C
  C6       1.0000 0.03480  0.19700  0.97368  Biso   1.000  C
  C7       1.0000 0.53480  0.30300  0.02632  Biso   1.000  C
  C8       1.0000 0.96520  0.69700  0.52632  Biso   1.000  C
  O9       1.0000 0.62760  0.88300  0.66314  Biso   1.000  O
  O10      1.0000 0.87240  0.11700  0.16314  Biso   1.000  O
  O11      1.0000 0.37240  0.38300  0.83686  Biso   1.000  O
  O12      1.0000 0.12760  0.61700  0.33686  Biso   1.000  O
  O13      1.0000 0.37240  0.11700  0.33686  Biso   1.000  O
  O14      1.0000 0.12760  0.88300  0.83686  Biso   1.000  O
  O15      1.0000 0.62760  0.61700  0.16314  Biso   1.000  O
  O16      1.0000 0.87240  0.38300  0.66314  Biso   1.000  O
  N9       1.0000 0.44330  0.10430  0.67132  Biso   1.000  N
  N10      1.0000 0.05670  0.89570  0.17132  Biso   1.000  N
  N11      1.0000 0.55670  0.60430  0.82868  Biso   1.000  N
  N12      1.0000 0.94330  0.39570  0.32868  Biso   1.000  N
  N13      1.0000 0.55670  0.89570  0.32868  Biso   1.000  N
  N14      1.0000 0.94330  0.10430  0.82868  Biso   1.000  N
  N15      1.0000 0.44330  0.39570  0.17132  Biso   1.000  N
  N16      1.0000 0.05670  0.60430  0.67132  Biso   1.000  N
  C9       1.0000 0.47940  0.30760  0.49866  Biso   1.000  C
  C10      1.0000 0.02060  0.69240  0.99866  Biso   1.000  C
  C11      1.0000 0.52060  0.80760  0.00134  Biso   1.000  C
  C12      1.0000 0.97940  0.19240  0.50134  Biso   1.000  C
  C13      1.0000 0.52060  0.69240  0.50134  Biso   1.000  C
  C14      1.0000 0.97940  0.30760  0.00134  Biso   1.000  C
  C15      1.0000 0.47940  0.19240  0.99866  Biso   1.000  C
  C16      1.0000 0.02060  0.80760  0.49866  Biso   1.000  C
  H1       1.0000 0.42490  0.36640  0.51500  Biso   1.000  H
  H2       1.0000 0.07510  0.63360  0.01500  Biso   1.000  H
  H3       1.0000 0.57510  0.86640  0.98500  Biso   1.000  H
  H4       1.0000 0.92490  0.13360  0.48500  Biso   1.000  H
  H5       1.0000 0.57510  0.63360  0.48500  Biso   1.000  H
  H6       1.0000 0.92490  0.36640  0.98500  Biso   1.000  H
  H7       1.0000 0.42490  0.13360  0.01500  Biso   1.000  H
  H8       1.0000 0.07510  0.86640  0.51500  Biso   1.000  H
  O17      1.0000 0.74190  0.20460  0.66371  Biso   1.000  O
  O18      1.0000 0.75810  0.79540  0.16371  Biso   1.000  O
  O19      1.0000 0.25810  0.70460  0.83629  Biso   1.000  O
  O20      1.0000 0.24190  0.29540  0.33629  Biso   1.000  O
  O21      1.0000 0.25810  0.79540  0.33629  Biso   1.000  O
  O22      1.0000 0.24190  0.20460  0.83629  Biso   1.000  O
  O23      1.0000 0.74190  0.29540  0.16371  Biso   1.000  O
  O24      1.0000 0.75810  0.70460  0.66371  Biso   1.000  O
  N17      1.0000 0.33550  0.15760  0.73791  Biso   1.000  N
  N18      1.0000 0.16450  0.84240  0.23791  Biso   1.000  N
  N19      1.0000 0.66450  0.65760  0.76209  Biso   1.000  N
  N20      1.0000 0.83550  0.34240  0.26209  Biso   1.000  N
  N21      1.0000 0.66450  0.84240  0.26209  Biso   1.000  N
  N22      1.0000 0.83550  0.15760  0.76209  Biso   1.000  N
  N23      1.0000 0.33550  0.34240  0.23791  Biso   1.000  N
  N24      1.0000 0.16450  0.65760  0.73791  Biso   1.000  N
  H9       1.0000 0.31190  0.16290  0.76900  Biso   1.000  H
  H10      1.0000 0.18810  0.83710  0.26900  Biso   1.000  H
  H11      1.0000 0.68810  0.66290  0.73100  Biso   1.000  H
  H12      1.0000 0.81190  0.33710  0.23100  Biso   1.000  H
  H13      1.0000 0.68810  0.83710  0.23100  Biso   1.000  H
  H14      1.0000 0.81190  0.16290  0.73100  Biso   1.000  H
  H15      1.0000 0.31190  0.33710  0.26900  Biso   1.000  H
  H16      1.0000 0.18810  0.66290  0.76900  Biso   1.000  H
  C17      1.0000 0.50420  0.33010  0.44843  Biso   1.000  C
  C18      1.0000 0.99580  0.66990  0.94843  Biso   1.000  C
  C19      1.0000 0.49580  0.83010  0.05157  Biso   1.000  C
  C20      1.0000 0.00420  0.16990  0.55157  Biso   1.000  C
  C21      1.0000 0.49580  0.66990  0.55157  Biso   1.000  C
  C22      1.0000 0.00420  0.33010  0.05157  Biso   1.000  C
  C23      1.0000 0.50420  0.16990  0.94843  Biso   1.000  C
  C24      1.0000 0.99580  0.83010  0.44843  Biso   1.000  C
  H17      1.0000 0.46600  0.40390  0.43130  Biso   1.000  H
  H18      1.0000 0.03400  0.59610  0.93130  Biso   1.000  H
  H19      1.0000 0.53400  0.90390  0.06870  Biso   1.000  H
  H20      1.0000 0.96600  0.09610  0.56870  Biso   1.000  H
  H21      1.0000 0.53400  0.59610  0.56870  Biso   1.000  H
  H22      1.0000 0.96600  0.40390  0.06870  Biso   1.000  H
  H23      1.0000 0.46600  0.09610  0.93130  Biso   1.000  H
  H24      1.0000 0.03400  0.90390  0.43130  Biso   1.000  H
  C25      1.0000 0.58420  0.24630  0.42257  Biso   1.000  C
  C26      1.0000 0.91580  0.75370  0.92257  Biso   1.000  C
  C27      1.0000 0.41580  0.74630  0.07743  Biso   1.000  C
  C28      1.0000 0.08420  0.25370  0.57743  Biso   1.000  C
  C29      1.0000 0.41580  0.75370  0.57743  Biso   1.000  C
  C30      1.0000 0.08420  0.24630  0.07743  Biso   1.000  C
  C31      1.0000 0.58420  0.25370  0.92257  Biso   1.000  C
  C32      1.0000 0.91580  0.74630  0.42257  Biso   1.000  C
  H25      1.0000 0.60010  0.26300  0.38830  Biso   1.000  H
  H26      1.0000 0.89990  0.73700  0.88830  Biso   1.000  H
  H27      1.0000 0.39990  0.76300  0.11170  Biso   1.000  H
  H28      1.0000 0.10010  0.23700  0.61170  Biso   1.000  H
  H29      1.0000 0.39990  0.73700  0.61170  Biso   1.000  H
  H30      1.0000 0.10010  0.26300  0.11170  Biso   1.000  H
  H31      1.0000 0.60010  0.23700  0.88830  Biso   1.000  H
  H32      1.0000 0.89990  0.76300  0.38830  Biso   1.000  H
  C33      1.0000 0.64050  0.13740  0.44808  Biso   1.000  C
  C34      1.0000 0.85950  0.86260  0.94808  Biso   1.000  C
  C35      1.0000 0.35950  0.63740  0.05192  Biso   1.000  C
  C36      1.0000 0.14050  0.36260  0.55192  Biso   1.000  C
  C37      1.0000 0.35950  0.86260  0.55192  Biso   1.000  C
  C38      1.0000 0.14050  0.13740  0.05192  Biso   1.000  C
  C39      1.0000 0.64050  0.36260  0.94808  Biso   1.000  C
  C40      1.0000 0.85950  0.63740  0.44808  Biso   1.000  C
  H33      1.0000 0.69400  0.07950  0.43070  Biso   1.000  H
  H34      1.0000 0.80600  0.92050  0.93070  Biso   1.000  H
  H35      1.0000 0.30600  0.57950  0.06930  Biso   1.000  H
  H36      1.0000 0.19400  0.42050  0.56930  Biso   1.000  H
  H37      1.0000 0.30600  0.92050  0.56930  Biso   1.000  H
  H38      1.0000 0.19400  0.07950  0.06930  Biso   1.000  H
  H39      1.0000 0.69400  0.42050  0.93070  Biso   1.000  H
  H40      1.0000 0.80600  0.57950  0.43070  Biso   1.000  H
  C41      1.0000 0.61870  0.11180  0.49997  Biso   1.000  C
  C42      1.0000 0.88130  0.88820  0.99997  Biso   1.000  C
  C43      1.0000 0.38130  0.61180  0.00003  Biso   1.000  C
  C44      1.0000 0.11870  0.38820  0.50003  Biso   1.000  C
  C45      1.0000 0.38130  0.88820  0.50003  Biso   1.000  C
  C46      1.0000 0.11870  0.11180  0.00003  Biso   1.000  C
  C47      1.0000 0.61870  0.38820  0.99997  Biso   1.000  C
  C48      1.0000 0.88130  0.61180  0.49997  Biso   1.000  C
  C49      1.0000 0.68430  0.99970  0.52435  Biso   1.000  C
  C50      1.0000 0.81570  0.00030  0.02435  Biso   1.000  C
  C51      1.0000 0.31570  0.49970  0.97565  Biso   1.000  C
  C52      1.0000 0.18430  0.50030  0.47565  Biso   1.000  C
  C53      1.0000 0.31570  0.00030  0.47565  Biso   1.000  C
  C54      1.0000 0.18430  0.99970  0.97565  Biso   1.000  C
  C55      1.0000 0.68430  0.50030  0.02435  Biso   1.000  C
  C56      1.0000 0.81570  0.49970  0.52435  Biso   1.000  C
  H41      1.0000 0.73440  0.94480  0.50410  Biso   1.000  H
  H42      1.0000 0.76560  0.05520  0.00410  Biso   1.000  H
  H43      1.0000 0.26560  0.44480  0.99590  Biso   1.000  H
  H44      1.0000 0.23440  0.55520  0.49590  Biso   1.000  H
  H45      1.0000 0.26560  0.05520  0.49590  Biso   1.000  H
  H46      1.0000 0.23440  0.94480  0.99590  Biso   1.000  H
  H47      1.0000 0.73440  0.55520  0.00410  Biso   1.000  H
  H48      1.0000 0.76560  0.44480  0.50410  Biso   1.000  H
  C57      1.0000 0.75270  0.85320  0.59142  Biso   1.000  C
  C58      1.0000 0.74730  0.14680  0.09142  Biso   1.000  C
  C59      1.0000 0.24730  0.35320  0.90858  Biso   1.000  C
  C60      1.0000 0.25270  0.64680  0.40858  Biso   1.000  C
  C61      1.0000 0.24730  0.14680  0.40858  Biso   1.000  C
  C62      1.0000 0.25270  0.85320  0.90858  Biso   1.000  C
  C63      1.0000 0.75270  0.64680  0.09142  Biso   1.000  C
  C64      1.0000 0.74730  0.35320  0.59142  Biso   1.000  C
  H49      1.0000 0.83520  0.88380  0.59340  Biso   1.000  H
  H50      1.0000 0.66480  0.11620  0.09340  Biso   1.000  H
  H51      1.0000 0.16480  0.38380  0.90660  Biso   1.000  H
  H52      1.0000 0.33520  0.61620  0.40660  Biso   1.000  H
  H53      1.0000 0.16480  0.11620  0.40660  Biso   1.000  H
  H54      1.0000 0.33520  0.88380  0.90660  Biso   1.000  H
  H55      1.0000 0.83520  0.61620  0.09340  Biso   1.000  H
  H56      1.0000 0.66480  0.38380  0.59340  Biso   1.000  H
  H57      1.0000 0.74830  0.77250  0.56840  Biso   1.000  H
  H58      1.0000 0.75170  0.22750  0.06840  Biso   1.000  H
  H59      1.0000 0.25170  0.27250  0.93160  Biso   1.000  H
  H60      1.0000 0.24830  0.72750  0.43160  Biso   1.000  H
  H61      1.0000 0.25170  0.22750  0.43160  Biso   1.000  H
  H62      1.0000 0.24830  0.77250  0.93160  Biso   1.000  H
  H63      1.0000 0.74830  0.72750  0.06840  Biso   1.000  H
  H64      1.0000 0.75170  0.27250  0.56840  Biso   1.000  H
  C65      1.0000 0.71000  0.80930  0.64350  Biso   1.000  C
  C66      1.0000 0.79000  0.19070  0.14350  Biso   1.000  C
  C67      1.0000 0.29000  0.30930  0.85650  Biso   1.000  C
  C68      1.0000 0.21000  0.69070  0.35650  Biso   1.000  C
  C69      1.0000 0.29000  0.19070  0.35650  Biso   1.000  C
  C70      1.0000 0.21000  0.80930  0.85650  Biso   1.000  C
  C71      1.0000 0.71000  0.69070  0.14350  Biso   1.000  C
  C72      1.0000 0.79000  0.30930  0.64350  Biso   1.000  C
  C73      1.0000 0.43310  0.09030  0.72160  Biso   1.000  C
  C74      1.0000 0.06690  0.90970  0.22160  Biso   1.000  C
  C75      1.0000 0.56690  0.59030  0.77840  Biso   1.000  C
  C76      1.0000 0.93310  0.40970  0.27840  Biso   1.000  C
  C77      1.0000 0.56690  0.90970  0.27840  Biso   1.000  C
  C78      1.0000 0.93310  0.09030  0.77840  Biso   1.000  C
  C79      1.0000 0.43310  0.40970  0.22160  Biso   1.000  C
  C80      1.0000 0.06690  0.59030  0.72160  Biso   1.000  C
  C81      1.0000 0.28030  0.21600  0.69744  Biso   1.000  C
  C82      1.0000 0.21970  0.78400  0.19744  Biso   1.000  C
  C83      1.0000 0.71970  0.71600  0.80256  Biso   1.000  C
  C84      1.0000 0.78030  0.28400  0.30256  Biso   1.000  C
  C85      1.0000 0.71970  0.78400  0.30256  Biso   1.000  C
  C86      1.0000 0.78030  0.21600  0.80256  Biso   1.000  C
  C87      1.0000 0.28030  0.28400  0.19744  Biso   1.000  C
  C88      1.0000 0.21970  0.71600  0.69744  Biso   1.000  C
  H65      1.0000 0.21040  0.26920  0.69780  Biso   1.000  H
  H66      1.0000 0.28960  0.73080  0.19780  Biso   1.000  H
  H67      1.0000 0.78960  0.76920  0.80220  Biso   1.000  H
  H68      1.0000 0.71040  0.23080  0.30220  Biso   1.000  H
  H69      1.0000 0.78960  0.73080  0.30220  Biso   1.000  H
  H70      1.0000 0.71040  0.26920  0.80220  Biso   1.000  H
  H71      1.0000 0.21040  0.23080  0.19780  Biso   1.000  H
  H72      1.0000 0.28960  0.76920  0.69780  Biso   1.000  H
  C89      1.0000 0.34590  0.18240  0.65639  Biso   1.000  C
  C90      1.0000 0.15410  0.81760  0.15639  Biso   1.000  C
  C91      1.0000 0.65410  0.68240  0.84361  Biso   1.000  C
  C92      1.0000 0.84590  0.31760  0.34361  Biso   1.000  C
  C93      1.0000 0.65410  0.81760  0.34361  Biso   1.000  C
  C94      1.0000 0.84590  0.18240  0.84361  Biso   1.000  C
  C95      1.0000 0.34590  0.31760  0.15639  Biso   1.000  C
  C96      1.0000 0.15410  0.68240  0.65639  Biso   1.000  C
  H73      1.0000 0.32810  0.20800  0.62310  Biso   1.000  H
  H74      1.0000 0.17190  0.79200  0.12310  Biso   1.000  H
  H75      1.0000 0.67190  0.70800  0.87690  Biso   1.000  H
  H76      1.0000 0.82810  0.29200  0.37690  Biso   1.000  H
  H77      1.0000 0.67190  0.79200  0.37690  Biso   1.000  H
  H78      1.0000 0.82810  0.20800  0.87690  Biso   1.000  H
  H79      1.0000 0.32810  0.29200  0.12310  Biso   1.000  H
  H80      1.0000 0.17190  0.70800  0.62310  Biso   1.000  H
  C97      1.0000 0.51530  0.01320  0.75568  Biso   1.000  C
  C98      1.0000 0.98470  0.98680  0.25568  Biso   1.000  C
  C99      1.0000 0.48470  0.51320  0.74432  Biso   1.000  C
  C100     1.0000 0.01530  0.48680  0.24432  Biso   1.000  C
  C101     1.0000 0.48470  0.98680  0.24432  Biso   1.000  C
  C102     1.0000 0.01530  0.01320  0.74432  Biso   1.000  C
  C103     1.0000 0.51530  0.48680  0.25568  Biso   1.000  C
  C104     1.0000 0.98470  0.51320  0.75568  Biso   1.000  C
  H81      1.0000 0.52470  0.91730  0.74250  Biso   1.000  H
  H82      1.0000 0.97530  0.08270  0.24250  Biso   1.000  H
  H83      1.0000 0.47530  0.41730  0.75750  Biso   1.000  H
  H84      1.0000 0.02470  0.58270  0.25750  Biso   1.000  H
  H85      1.0000 0.47530  0.08270  0.25750  Biso   1.000  H
  H86      1.0000 0.02470  0.91730  0.75750  Biso   1.000  H
  H87      1.0000 0.52470  0.58270  0.24250  Biso   1.000  H
  H88      1.0000 0.97530  0.41730  0.74250  Biso   1.000  H
  H89      1.0000 0.59270  0.05920  0.75360  Biso   1.000  H
  H90      1.0000 0.90730  0.94080  0.25360  Biso   1.000  H
  H91      1.0000 0.40730  0.55920  0.74640  Biso   1.000  H
  H92      1.0000 0.09270  0.44080  0.24640  Biso   1.000  H
  H93      1.0000 0.40730  0.94080  0.24640  Biso   1.000  H
  H94      1.0000 0.09270  0.05920  0.74640  Biso   1.000  H
  H95      1.0000 0.59270  0.44080  0.25360  Biso   1.000  H
  H96      1.0000 0.90730  0.55920  0.75360  Biso   1.000  H
  C105     1.0000 0.48350  0.00260  0.80880  Biso   1.000  C
  C106     1.0000 0.01650  0.99740  0.30880  Biso   1.000  C
  C107     1.0000 0.51650  0.50260  0.69120  Biso   1.000  C
  C108     1.0000 0.98350  0.49740  0.19120  Biso   1.000  C
  C109     1.0000 0.51650  0.99740  0.19120  Biso   1.000  C
  C110     1.0000 0.98350  0.00260  0.69120  Biso   1.000  C
  C111     1.0000 0.48350  0.49740  0.30880  Biso   1.000  C
  C112     1.0000 0.01650  0.50260  0.80880  Biso   1.000  C
  H97      1.0000 0.54380  0.94990  0.82660  Biso   1.000  H
  H98      1.0000 0.95620  0.05010  0.32660  Biso   1.000  H
  H99      1.0000 0.45620  0.44990  0.67340  Biso   1.000  H
  H100     1.0000 0.04380  0.55010  0.17340  Biso   1.000  H
  H101     1.0000 0.45620  0.05010  0.17340  Biso   1.000  H
  H102     1.0000 0.04380  0.94990  0.67340  Biso   1.000  H
  H103     1.0000 0.54380  0.55010  0.32660  Biso   1.000  H
  H104     1.0000 0.95620  0.44990  0.82660  Biso   1.000  H
  H105     1.0000 0.40840  0.95430  0.81190  Biso   1.000  H
  H106     1.0000 0.09160  0.04570  0.31190  Biso   1.000  H
  H107     1.0000 0.59160  0.45430  0.68810  Biso   1.000  H
  H108     1.0000 0.90840  0.54570  0.18810  Biso   1.000  H
  H109     1.0000 0.59160  0.04570  0.18810  Biso   1.000  H
  H110     1.0000 0.90840  0.95430  0.68810  Biso   1.000  H
  H111     1.0000 0.40840  0.54570  0.31190  Biso   1.000  H
  H112     1.0000 0.09160  0.45430  0.81190  Biso   1.000  H
  H113     1.0000 0.47700  0.09640  0.82310  Biso   1.000  H
  H114     1.0000 0.02300  0.90360  0.32310  Biso   1.000  H
  H115     1.0000 0.52300  0.59640  0.67690  Biso   1.000  H
  H116     1.0000 0.97700  0.40360  0.17690  Biso   1.000  H
  H117     1.0000 0.52300  0.90360  0.17690  Biso   1.000  H
  H118     1.0000 0.97700  0.09640  0.67690  Biso   1.000  H
  H119     1.0000 0.47700  0.40360  0.32310  Biso   1.000  H
  H120     1.0000 0.02300  0.59640  0.82310  Biso   1.000  H
