data_image0
_cell_length_a       11.058
_cell_length_b       11.58
_cell_length_c       9.677
_cell_angle_alpha    90
_cell_angle_beta     102.785
_cell_angle_gamma    90

_symmetry_space_group_name_H-M    "P 1"
_symmetry_int_tables_number       1

loop_
  _symmetry_equiv_pos_as_xyz
  'x, y, z'

loop_
  _atom_site_label
  _atom_site_occupancy
  _atom_site_fract_x
  _atom_site_fract_y
  _atom_site_fract_z
  _atom_site_thermal_displace_type
  _atom_site_B_iso_or_equiv
  _atom_site_type_symbol
  Cu1      1.0000 0.28697  0.08156  0.37057  Biso   1.000  Cu
  Cu2      1.0000 0.71303  0.58156  0.12943  Biso   1.000  Cu
  Cu3      1.0000 0.71303  0.91844  0.62943  Biso   1.000  Cu
  Cu4      1.0000 0.28697  0.41844  0.87057  Biso   1.000  Cu
  O1       1.0000 0.39882  0.00871  0.27110  Biso   1.000  O
  O2       1.0000 0.60118  0.50871  0.22890  Biso   1.000  O
  O3       1.0000 0.60118  0.99129  0.72890  Biso   1.000  O
  O4       1.0000 0.39882  0.49129  0.77110  Biso   1.000  O
  O5       1.0000 0.18680  0.14639  0.49942  Biso   1.000  O
  O6       1.0000 0.81320  0.64639  0.00058  Biso   1.000  O
  O7       1.0000 0.81320  0.85361  0.50058  Biso   1.000  O
  O8       1.0000 0.18680  0.35361  0.99942  Biso   1.000  O
  O9       1.0000 0.19944  0.26358  0.68490  Biso   1.000  O
  O10      1.0000 0.80056  0.76358  0.81510  Biso   1.000  O
  O11      1.0000 0.80056  0.73642  0.31510  Biso   1.000  O
  O12      1.0000 0.19944  0.23642  0.18490  Biso   1.000  O
  N1       1.0000 0.41656  0.17814  0.48123  Biso   1.000  N
  N2       1.0000 0.58344  0.67814  0.01877  Biso   1.000  N
  N3       1.0000 0.58344  0.82186  0.51877  Biso   1.000  N
  N4       1.0000 0.41656  0.32186  0.98123  Biso   1.000  N
  N5       1.0000 0.15368  0.97478  0.28150  Biso   1.000  N
  N6       1.0000 0.84632  0.47478  0.21850  Biso   1.000  N
  N7       1.0000 0.84632  0.02522  0.71850  Biso   1.000  N
  N8       1.0000 0.15368  0.52522  0.78150  Biso   1.000  N
  N9       1.0000 0.99462  0.85730  0.24820  Biso   1.000  N
  N10      1.0000 0.00538  0.35730  0.25180  Biso   1.000  N
  N11      1.0000 0.00538  0.14270  0.75180  Biso   1.000  N
  N12      1.0000 0.99462  0.64270  0.74820  Biso   1.000  N
  H1       1.0000 0.93280  0.81870  0.26450  Biso   1.000  H
  H2       1.0000 0.06720  0.31870  0.23550  Biso   1.000  H
  H3       1.0000 0.06720  0.18130  0.73550  Biso   1.000  H
  H4       1.0000 0.93280  0.68130  0.76450  Biso   1.000  H
  C1       1.0000 0.53110  0.18210  0.47390  Biso   1.000  C
  C2       1.0000 0.46890  0.68210  0.02610  Biso   1.000  C
  C3       1.0000 0.46890  0.81790  0.52610  Biso   1.000  C
  C4       1.0000 0.53110  0.31790  0.97390  Biso   1.000  C
  H5       1.0000 0.58430  0.22790  0.53940  Biso   1.000  H
  H6       1.0000 0.41570  0.72790  0.96060  Biso   1.000  H
  H7       1.0000 0.41570  0.77210  0.46060  Biso   1.000  H
  H8       1.0000 0.58430  0.27210  0.03940  Biso   1.000  H
  C5       1.0000 0.58250  0.12090  0.37170  Biso   1.000  C
  C6       1.0000 0.41750  0.62090  0.12830  Biso   1.000  C
  C7       1.0000 0.41750  0.87910  0.62830  Biso   1.000  C
  C8       1.0000 0.58250  0.37910  0.87170  Biso   1.000  C
  C9       1.0000 0.51390  0.03758  0.27670  Biso   1.000  C
  C10      1.0000 0.48610  0.53758  0.22330  Biso   1.000  C
  C11      1.0000 0.48610  0.96242  0.72330  Biso   1.000  C
  C12      1.0000 0.51390  0.46242  0.77670  Biso   1.000  C
  C13      1.0000 0.57630  0.98480  0.18110  Biso   1.000  C
  C14      1.0000 0.42370  0.48480  0.31890  Biso   1.000  C
  C15      1.0000 0.42370  0.01520  0.81890  Biso   1.000  C
  C16      1.0000 0.57630  0.51520  0.68110  Biso   1.000  C
  H9       1.0000 0.53540  0.92880  0.11920  Biso   1.000  H
  H10      1.0000 0.46460  0.42880  0.38080  Biso   1.000  H
  H11      1.0000 0.46460  0.07120  0.88080  Biso   1.000  H
  H12      1.0000 0.53540  0.57120  0.61920  Biso   1.000  H
  C17      1.0000 0.69500  0.01370  0.17680  Biso   1.000  C
  C18      1.0000 0.30500  0.51370  0.32320  Biso   1.000  C
  C19      1.0000 0.30500  0.98630  0.82320  Biso   1.000  C
  C20      1.0000 0.69500  0.48630  0.67680  Biso   1.000  C
  H13      1.0000 0.73310  0.97710  0.11210  Biso   1.000  H
  H14      1.0000 0.26690  0.47710  0.38790  Biso   1.000  H
  H15      1.0000 0.26690  0.02290  0.88790  Biso   1.000  H
  H16      1.0000 0.73310  0.52290  0.61210  Biso   1.000  H
  C21      1.0000 0.76040  0.09690  0.26740  Biso   1.000  C
  C22      1.0000 0.23960  0.59690  0.23260  Biso   1.000  C
  C23      1.0000 0.23960  0.90310  0.73260  Biso   1.000  C
  C24      1.0000 0.76040  0.40310  0.76740  Biso   1.000  C
  H17      1.0000 0.84060  0.11720  0.26200  Biso   1.000  H
  H18      1.0000 0.15940  0.61720  0.23800  Biso   1.000  H
  H19      1.0000 0.15940  0.88280  0.73800  Biso   1.000  H
  H20      1.0000 0.84060  0.38280  0.76200  Biso   1.000  H
  C25      1.0000 0.70500  0.14790  0.36390  Biso   1.000  C
  C26      1.0000 0.29500  0.64790  0.13610  Biso   1.000  C
  C27      1.0000 0.29500  0.85210  0.63610  Biso   1.000  C
  C28      1.0000 0.70500  0.35210  0.86390  Biso   1.000  C
  H21      1.0000 0.74910  0.20200  0.42620  Biso   1.000  H
  H22      1.0000 0.25090  0.70200  0.07380  Biso   1.000  H
  H23      1.0000 0.25090  0.79800  0.57380  Biso   1.000  H
  H24      1.0000 0.74910  0.29800  0.92620  Biso   1.000  H
  C29      1.0000 0.37600  0.24680  0.58830  Biso   1.000  C
  C30      1.0000 0.62400  0.74680  0.91170  Biso   1.000  C
  C31      1.0000 0.62400  0.75320  0.41170  Biso   1.000  C
  C32      1.0000 0.37600  0.25320  0.08830  Biso   1.000  C
  H25      1.0000 0.38140  0.32830  0.56680  Biso   1.000  H
  H26      1.0000 0.61860  0.82830  0.93320  Biso   1.000  H
  H27      1.0000 0.61860  0.67170  0.43320  Biso   1.000  H
  H28      1.0000 0.38140  0.17170  0.06680  Biso   1.000  H
  H29      1.0000 0.42970  0.23220  0.68030  Biso   1.000  H
  H30      1.0000 0.57030  0.73220  0.81970  Biso   1.000  H
  H31      1.0000 0.57030  0.76780  0.31970  Biso   1.000  H
  H32      1.0000 0.42970  0.26780  0.18030  Biso   1.000  H
  C33      1.0000 0.24420  0.21678  0.59210  Biso   1.000  C
  C34      1.0000 0.75580  0.71678  0.90790  Biso   1.000  C
  C35      1.0000 0.75580  0.78322  0.40790  Biso   1.000  C
  C36      1.0000 0.24420  0.28322  0.09210  Biso   1.000  C
  C37      1.0000 0.13370  0.92900  0.14850  Biso   1.000  C
  C38      1.0000 0.86630  0.42900  0.35150  Biso   1.000  C
  C39      1.0000 0.86630  0.07100  0.85150  Biso   1.000  C
  C40      1.0000 0.13370  0.57100  0.64850  Biso   1.000  C
  H33      1.0000 0.18090  0.94520  0.08230  Biso   1.000  H
  H34      1.0000 0.81910  0.44520  0.41770  Biso   1.000  H
  H35      1.0000 0.81910  0.05480  0.91770  Biso   1.000  H
  H36      1.0000 0.18090  0.55480  0.58230  Biso   1.000  H
  C41      1.0000 0.03550  0.85670  0.12680  Biso   1.000  C
  C42      1.0000 0.96450  0.35670  0.37320  Biso   1.000  C
  C43      1.0000 0.96450  0.14330  0.87320  Biso   1.000  C
  C44      1.0000 0.03550  0.64330  0.62680  Biso   1.000  C
  H37      1.0000 0.00270  0.81510  0.04490  Biso   1.000  H
  H38      1.0000 0.99730  0.31510  0.45510  Biso   1.000  H
  H39      1.0000 0.99730  0.18490  0.95510  Biso   1.000  H
  H40      1.0000 0.00270  0.68490  0.54490  Biso   1.000  H
  C45      1.0000 0.06740  0.92850  0.33820  Biso   1.000  C
  C46      1.0000 0.93260  0.42850  0.16180  Biso   1.000  C
  C47      1.0000 0.93260  0.07150  0.66180  Biso   1.000  C
  C48      1.0000 0.06740  0.57150  0.83820  Biso   1.000  C
  H41      1.0000 0.05830  0.94370  0.42980  Biso   1.000  H
  H42      1.0000 0.94170  0.44370  0.07020  Biso   1.000  H
  H43      1.0000 0.94170  0.05630  0.57020  Biso   1.000  H
  H44      1.0000 0.05830  0.55630  0.92980  Biso   1.000  H
