data_image0
_cell_length_a       11.0647
_cell_length_b       11.52
_cell_length_c       9.6867
_cell_angle_alpha    90
_cell_angle_beta     103.199
_cell_angle_gamma    90

_symmetry_space_group_name_H-M    "P 1"
_symmetry_int_tables_number       1

loop_
  _symmetry_equiv_pos_as_xyz
  'x, y, z'

loop_
  _atom_site_label
  _atom_site_occupancy
  _atom_site_fract_x
  _atom_site_fract_y
  _atom_site_fract_z
  _atom_site_thermal_displace_type
  _atom_site_B_iso_or_equiv
  _atom_site_type_symbol
  Cu1      1.0000 0.21308  0.08141  0.12943  Biso   1.000  Cu
  Cu2      1.0000 0.78692  0.58141  0.37057  Biso   1.000  Cu
  Cu3      1.0000 0.78692  0.91859  0.87057  Biso   1.000  Cu
  Cu4      1.0000 0.21308  0.41859  0.62943  Biso   1.000  Cu
  O1       1.0000 0.10167  0.00924  0.22870  Biso   1.000  O
  O2       1.0000 0.89833  0.50924  0.27130  Biso   1.000  O
  O3       1.0000 0.89833  0.99076  0.77130  Biso   1.000  O
  O4       1.0000 0.10167  0.49076  0.72870  Biso   1.000  O
  N1       1.0000 0.08390  0.17800  0.01930  Biso   1.000  N
  N2       1.0000 0.91610  0.67800  0.48070  Biso   1.000  N
  N3       1.0000 0.91610  0.82200  0.98070  Biso   1.000  N
  N4       1.0000 0.08390  0.32200  0.51930  Biso   1.000  N
  C1       1.0000 0.98620  0.03800  0.22310  Biso   1.000  C
  C2       1.0000 0.01380  0.53800  0.27690  Biso   1.000  C
  C3       1.0000 0.01380  0.96200  0.77690  Biso   1.000  C
  C4       1.0000 0.98620  0.46200  0.72310  Biso   1.000  C
  O5       1.0000 0.31317  0.14630  0.00070  Biso   1.000  O
  O6       1.0000 0.68683  0.64630  0.49930  Biso   1.000  O
  O7       1.0000 0.68683  0.85370  0.99930  Biso   1.000  O
  O8       1.0000 0.31317  0.35370  0.50070  Biso   1.000  O
  C5       1.0000 0.92360  0.98440  0.31870  Biso   1.000  C
  C6       1.0000 0.07640  0.48440  0.18130  Biso   1.000  C
  C7       1.0000 0.07640  0.01560  0.68130  Biso   1.000  C
  C8       1.0000 0.92360  0.51560  0.81870  Biso   1.000  C
  H1       1.0000 0.96480  0.92780  0.38040  Biso   1.000  H
  H2       1.0000 0.03520  0.42780  0.11960  Biso   1.000  H
  H3       1.0000 0.03520  0.07220  0.61960  Biso   1.000  H
  H4       1.0000 0.96480  0.57220  0.88040  Biso   1.000  H
  N5       1.0000 0.34620  0.97500  0.21800  Biso   1.000  N
  N6       1.0000 0.65380  0.47500  0.28200  Biso   1.000  N
  N7       1.0000 0.65380  0.02500  0.78200  Biso   1.000  N
  N8       1.0000 0.34620  0.52500  0.71800  Biso   1.000  N
  O9       1.0000 0.30070  0.23620  0.31550  Biso   1.000  O
  O10      1.0000 0.69930  0.73620  0.18450  Biso   1.000  O
  O11      1.0000 0.69930  0.76380  0.68450  Biso   1.000  O
  O12      1.0000 0.30070  0.26380  0.81550  Biso   1.000  O
  N9       1.0000 0.50520  0.85760  0.25180  Biso   1.000  N
  N10      1.0000 0.49480  0.35760  0.24820  Biso   1.000  N
  N11      1.0000 0.49480  0.14240  0.74820  Biso   1.000  N
  N12      1.0000 0.50520  0.64240  0.75180  Biso   1.000  N
  H5       1.0000 0.56710  0.81900  0.23570  Biso   1.000  H
  H6       1.0000 0.43290  0.31900  0.26430  Biso   1.000  H
  H7       1.0000 0.43290  0.18100  0.76430  Biso   1.000  H
  H8       1.0000 0.56710  0.68100  0.73570  Biso   1.000  H
  C9       1.0000 0.80480  0.01320  0.32300  Biso   1.000  C
  C10      1.0000 0.19520  0.51320  0.17700  Biso   1.000  C
  C11      1.0000 0.19520  0.98680  0.67700  Biso   1.000  C
  C12      1.0000 0.80480  0.48680  0.82300  Biso   1.000  C
  H9       1.0000 0.76720  0.97640  0.38770  Biso   1.000  H
  H10      1.0000 0.23280  0.47640  0.11230  Biso   1.000  H
  H11      1.0000 0.23280  0.02360  0.61230  Biso   1.000  H
  H12      1.0000 0.76720  0.52360  0.88770  Biso   1.000  H
  C13      1.0000 0.73910  0.09640  0.23240  Biso   1.000  C
  C14      1.0000 0.26090  0.59640  0.26760  Biso   1.000  C
  C15      1.0000 0.26090  0.90360  0.76760  Biso   1.000  C
  C16      1.0000 0.73910  0.40360  0.73240  Biso   1.000  C
  H13      1.0000 0.65860  0.11620  0.23690  Biso   1.000  H
  H14      1.0000 0.34140  0.61620  0.26310  Biso   1.000  H
  H15      1.0000 0.34140  0.88380  0.76310  Biso   1.000  H
  H16      1.0000 0.65860  0.38380  0.73690  Biso   1.000  H
  C17      1.0000 0.79500  0.14890  0.13610  Biso   1.000  C
  C18      1.0000 0.20500  0.64890  0.36390  Biso   1.000  C
  C19      1.0000 0.20500  0.85110  0.86390  Biso   1.000  C
  C20      1.0000 0.79500  0.35110  0.63610  Biso   1.000  C
  H17      1.0000 0.75120  0.20430  0.07460  Biso   1.000  H
  H18      1.0000 0.24880  0.70430  0.42540  Biso   1.000  H
  H19      1.0000 0.24880  0.79570  0.92540  Biso   1.000  H
  H20      1.0000 0.75120  0.29570  0.57460  Biso   1.000  H
  C21      1.0000 0.91740  0.12050  0.12820  Biso   1.000  C
  C22      1.0000 0.08260  0.62050  0.37180  Biso   1.000  C
  C23      1.0000 0.08260  0.87950  0.87180  Biso   1.000  C
  C24      1.0000 0.91740  0.37950  0.62820  Biso   1.000  C
  C25      1.0000 0.96930  0.18190  0.02670  Biso   1.000  C
  C26      1.0000 0.03070  0.68190  0.47330  Biso   1.000  C
  C27      1.0000 0.03070  0.81810  0.97330  Biso   1.000  C
  C28      1.0000 0.96930  0.31810  0.52670  Biso   1.000  C
  H21      1.0000 0.91600  0.22810  0.96100  Biso   1.000  H
  H22      1.0000 0.08400  0.72810  0.53900  Biso   1.000  H
  H23      1.0000 0.08400  0.77190  0.03900  Biso   1.000  H
  H24      1.0000 0.91600  0.27190  0.46100  Biso   1.000  H
  C29      1.0000 0.12390  0.24690  0.91180  Biso   1.000  C
  C30      1.0000 0.87610  0.74690  0.58820  Biso   1.000  C
  C31      1.0000 0.87610  0.75310  0.08820  Biso   1.000  C
  C32      1.0000 0.12390  0.25310  0.41180  Biso   1.000  C
  H25      1.0000 0.11830  0.32880  0.93280  Biso   1.000  H
  H26      1.0000 0.88170  0.82880  0.56720  Biso   1.000  H
  H27      1.0000 0.88170  0.67120  0.06720  Biso   1.000  H
  H28      1.0000 0.11830  0.17120  0.43280  Biso   1.000  H
  H29      1.0000 0.06970  0.23190  0.81970  Biso   1.000  H
  H30      1.0000 0.93030  0.73190  0.68030  Biso   1.000  H
  H31      1.0000 0.93030  0.76810  0.18030  Biso   1.000  H
  H32      1.0000 0.06970  0.26810  0.31970  Biso   1.000  H
  C33      1.0000 0.25650  0.21680  0.90800  Biso   1.000  C
  C34      1.0000 0.74350  0.71680  0.59200  Biso   1.000  C
  C35      1.0000 0.74350  0.78320  0.09200  Biso   1.000  C
  C36      1.0000 0.25650  0.28320  0.40800  Biso   1.000  C
  C37      1.0000 0.43300  0.92820  0.16230  Biso   1.000  C
  C38      1.0000 0.56700  0.42820  0.33770  Biso   1.000  C
  C39      1.0000 0.56700  0.07180  0.83770  Biso   1.000  C
  C40      1.0000 0.43300  0.57180  0.66230  Biso   1.000  C
  H33      1.0000 0.44210  0.94330  0.07090  Biso   1.000  H
  H34      1.0000 0.55790  0.44330  0.42910  Biso   1.000  H
  H35      1.0000 0.55790  0.05670  0.92910  Biso   1.000  H
  H36      1.0000 0.44210  0.55670  0.57090  Biso   1.000  H
  C41      1.0000 0.46490  0.85640  0.37350  Biso   1.000  C
  C42      1.0000 0.53510  0.35640  0.12650  Biso   1.000  C
  C43      1.0000 0.53510  0.14360  0.62650  Biso   1.000  C
  C44      1.0000 0.46490  0.64360  0.87350  Biso   1.000  C
  H37      1.0000 0.49800  0.81450  0.45560  Biso   1.000  H
  H38      1.0000 0.50200  0.31450  0.04440  Biso   1.000  H
  H39      1.0000 0.50200  0.18550  0.54440  Biso   1.000  H
  H40      1.0000 0.49800  0.68550  0.95560  Biso   1.000  H
  C45      1.0000 0.36630  0.92890  0.35080  Biso   1.000  C
  C46      1.0000 0.63370  0.42890  0.14920  Biso   1.000  C
  C47      1.0000 0.63370  0.07110  0.64920  Biso   1.000  C
  C48      1.0000 0.36630  0.57110  0.85080  Biso   1.000  C
  H41      1.0000 0.31890  0.94510  0.41640  Biso   1.000  H
  H42      1.0000 0.68110  0.44510  0.08360  Biso   1.000  H
  H43      1.0000 0.68110  0.05490  0.58360  Biso   1.000  H
  H44      1.0000 0.31890  0.55490  0.91640  Biso   1.000  H
