data_image0
_cell_length_a       11.057
_cell_length_b       11.509
_cell_length_c       9.676
_cell_angle_alpha    90
_cell_angle_beta     103.141
_cell_angle_gamma    90

_symmetry_space_group_name_H-M    "P 1"
_symmetry_int_tables_number       1

loop_
  _symmetry_equiv_pos_as_xyz
  'x, y, z'

loop_
  _atom_site_label
  _atom_site_occupancy
  _atom_site_fract_x
  _atom_site_fract_y
  _atom_site_fract_z
  _atom_site_thermal_displace_type
  _atom_site_B_iso_or_equiv
  _atom_site_type_symbol
  Cu1      1.0000 0.21325  0.91857  0.12914  Biso   1.000  Cu
  Cu2      1.0000 0.78675  0.41857  0.37086  Biso   1.000  Cu
  Cu3      1.0000 0.78675  0.08143  0.87086  Biso   1.000  Cu
  Cu4      1.0000 0.21325  0.58143  0.62914  Biso   1.000  Cu
  N1       1.0000 0.08410  0.82210  0.01910  Biso   1.000  N
  N2       1.0000 0.91590  0.32210  0.48090  Biso   1.000  N
  N3       1.0000 0.91590  0.17790  0.98090  Biso   1.000  N
  N4       1.0000 0.08410  0.67790  0.51910  Biso   1.000  N
  N5       1.0000 0.34600  0.02550  0.21790  Biso   1.000  N
  N6       1.0000 0.65400  0.52550  0.28210  Biso   1.000  N
  N7       1.0000 0.65400  0.97450  0.78210  Biso   1.000  N
  N8       1.0000 0.34600  0.47450  0.71790  Biso   1.000  N
  N9       1.0000 0.50510  0.14220  0.25160  Biso   1.000  N
  N10      1.0000 0.49490  0.64220  0.24840  Biso   1.000  N
  N11      1.0000 0.49490  0.85780  0.74840  Biso   1.000  N
  N12      1.0000 0.50510  0.35780  0.75160  Biso   1.000  N
  H1       1.0000 0.56680  0.18100  0.23510  Biso   1.000  H
  H2       1.0000 0.43320  0.68100  0.26490  Biso   1.000  H
  H3       1.0000 0.43320  0.81900  0.76490  Biso   1.000  H
  H4       1.0000 0.56680  0.31900  0.73510  Biso   1.000  H
  O1       1.0000 0.31323  0.85361  0.00040  Biso   1.000  O
  O2       1.0000 0.68677  0.35361  0.49960  Biso   1.000  O
  O3       1.0000 0.68677  0.14639  0.99960  Biso   1.000  O
  O4       1.0000 0.31323  0.64639  0.50040  Biso   1.000  O
  O5       1.0000 0.30086  0.73620  0.81530  Biso   1.000  O
  O6       1.0000 0.69914  0.23620  0.68470  Biso   1.000  O
  O7       1.0000 0.69914  0.26380  0.18470  Biso   1.000  O
  O8       1.0000 0.30086  0.76380  0.31530  Biso   1.000  O
  O9       1.0000 0.10178  0.99122  0.22840  Biso   1.000  O
  O10      1.0000 0.89822  0.49122  0.27160  Biso   1.000  O
  O11      1.0000 0.89822  0.00878  0.77160  Biso   1.000  O
  O12      1.0000 0.10178  0.50878  0.72840  Biso   1.000  O
  C1       1.0000 0.25640  0.78290  0.90760  Biso   1.000  C
  C2       1.0000 0.74360  0.28290  0.59240  Biso   1.000  C
  C3       1.0000 0.74360  0.21710  0.09240  Biso   1.000  C
  C4       1.0000 0.25640  0.71710  0.40760  Biso   1.000  C
  C5       1.0000 0.12430  0.75290  0.91190  Biso   1.000  C
  C6       1.0000 0.87570  0.25290  0.58810  Biso   1.000  C
  C7       1.0000 0.87570  0.24710  0.08810  Biso   1.000  C
  C8       1.0000 0.12430  0.74710  0.41190  Biso   1.000  C
  H5       1.0000 0.07000  0.76760  0.81970  Biso   1.000  H
  H6       1.0000 0.93000  0.26760  0.68030  Biso   1.000  H
  H7       1.0000 0.93000  0.23240  0.18030  Biso   1.000  H
  H8       1.0000 0.07000  0.73240  0.31970  Biso   1.000  H
  H9       1.0000 0.11890  0.67100  0.93330  Biso   1.000  H
  H10      1.0000 0.88110  0.17100  0.56670  Biso   1.000  H
  H11      1.0000 0.88110  0.32900  0.06670  Biso   1.000  H
  H12      1.0000 0.11890  0.82900  0.43330  Biso   1.000  H
  C9       1.0000 0.96930  0.81750  0.02620  Biso   1.000  C
  C10      1.0000 0.03070  0.31750  0.47380  Biso   1.000  C
  C11      1.0000 0.03070  0.18250  0.97380  Biso   1.000  C
  C12      1.0000 0.96930  0.68250  0.52620  Biso   1.000  C
  H13      1.0000 0.91600  0.77100  0.96070  Biso   1.000  H
  H14      1.0000 0.08400  0.27100  0.53930  Biso   1.000  H
  H15      1.0000 0.08400  0.22900  0.03930  Biso   1.000  H
  H16      1.0000 0.91600  0.72900  0.46070  Biso   1.000  H
  C13      1.0000 0.91810  0.87920  0.12810  Biso   1.000  C
  C14      1.0000 0.08190  0.37920  0.37190  Biso   1.000  C
  C15      1.0000 0.08190  0.12080  0.87190  Biso   1.000  C
  C16      1.0000 0.91810  0.62080  0.62810  Biso   1.000  C
  C17      1.0000 0.79540  0.85170  0.13570  Biso   1.000  C
  C18      1.0000 0.20460  0.35170  0.36430  Biso   1.000  C
  C19      1.0000 0.20460  0.14830  0.86430  Biso   1.000  C
  C20      1.0000 0.79540  0.64830  0.63570  Biso   1.000  C
  H17      1.0000 0.75100  0.79710  0.07340  Biso   1.000  H
  H18      1.0000 0.24900  0.29710  0.42660  Biso   1.000  H
  H19      1.0000 0.24900  0.20290  0.92660  Biso   1.000  H
  H20      1.0000 0.75100  0.70290  0.57340  Biso   1.000  H
  C21      1.0000 0.74060  0.90350  0.23250  Biso   1.000  C
  C22      1.0000 0.25940  0.40350  0.26750  Biso   1.000  C
  C23      1.0000 0.25940  0.09650  0.76750  Biso   1.000  C
  C24      1.0000 0.74060  0.59650  0.73250  Biso   1.000  C
  H21      1.0000 0.66020  0.88340  0.23740  Biso   1.000  H
  H22      1.0000 0.33980  0.38340  0.26260  Biso   1.000  H
  H23      1.0000 0.33980  0.11660  0.76260  Biso   1.000  H
  H24      1.0000 0.66020  0.61660  0.73740  Biso   1.000  H
  C25      1.0000 0.80560  0.98600  0.32310  Biso   1.000  C
  C26      1.0000 0.19440  0.48600  0.17690  Biso   1.000  C
  C27      1.0000 0.19440  0.01400  0.67690  Biso   1.000  C
  C28      1.0000 0.80560  0.51400  0.82310  Biso   1.000  C
  H25      1.0000 0.76800  0.02230  0.38840  Biso   1.000  H
  H26      1.0000 0.23200  0.52230  0.11160  Biso   1.000  H
  H27      1.0000 0.23200  0.97770  0.61160  Biso   1.000  H
  H28      1.0000 0.76800  0.47770  0.88840  Biso   1.000  H
  C29      1.0000 0.92470  0.01540  0.31850  Biso   1.000  C
  C30      1.0000 0.07530  0.51540  0.18150  Biso   1.000  C
  C31      1.0000 0.07530  0.98460  0.68150  Biso   1.000  C
  C32      1.0000 0.92470  0.48460  0.81850  Biso   1.000  C
  H29      1.0000 0.96600  0.07190  0.38040  Biso   1.000  H
  H30      1.0000 0.03400  0.57190  0.11960  Biso   1.000  H
  H31      1.0000 0.03400  0.92810  0.61960  Biso   1.000  H
  H32      1.0000 0.96600  0.42810  0.88040  Biso   1.000  H
  C33      1.0000 0.98620  0.96240  0.22290  Biso   1.000  C
  C34      1.0000 0.01380  0.46240  0.27710  Biso   1.000  C
  C35      1.0000 0.01380  0.03760  0.77710  Biso   1.000  C
  C36      1.0000 0.98620  0.53760  0.72290  Biso   1.000  C
  C37      1.0000 0.36660  0.07050  0.35130  Biso   1.000  C
  C38      1.0000 0.63340  0.57050  0.14870  Biso   1.000  C
  C39      1.0000 0.63340  0.92950  0.64870  Biso   1.000  C
  C40      1.0000 0.36660  0.42950  0.85130  Biso   1.000  C
  H33      1.0000 0.32000  0.05360  0.41760  Biso   1.000  H
  H34      1.0000 0.68000  0.55360  0.08240  Biso   1.000  H
  H35      1.0000 0.68000  0.94640  0.58240  Biso   1.000  H
  H36      1.0000 0.32000  0.44640  0.91760  Biso   1.000  H
  C41      1.0000 0.46470  0.14340  0.37320  Biso   1.000  C
  C42      1.0000 0.53530  0.64340  0.12680  Biso   1.000  C
  C43      1.0000 0.53530  0.85660  0.62680  Biso   1.000  C
  C44      1.0000 0.46470  0.35660  0.87320  Biso   1.000  C
  H37      1.0000 0.49760  0.18570  0.45500  Biso   1.000  H
  H38      1.0000 0.50240  0.68570  0.04500  Biso   1.000  H
  H39      1.0000 0.50240  0.81430  0.54500  Biso   1.000  H
  H40      1.0000 0.49760  0.31430  0.95500  Biso   1.000  H
  C45      1.0000 0.43260  0.07070  0.16220  Biso   1.000  C
  C46      1.0000 0.56740  0.57070  0.33780  Biso   1.000  C
  C47      1.0000 0.56740  0.92930  0.83780  Biso   1.000  C
  C48      1.0000 0.43260  0.42930  0.66220  Biso   1.000  C
  H41      1.0000 0.44210  0.05460  0.07110  Biso   1.000  H
  H42      1.0000 0.55790  0.55460  0.42890  Biso   1.000  H
  H43      1.0000 0.55790  0.94540  0.92890  Biso   1.000  H
  H44      1.0000 0.44210  0.44540  0.57110  Biso   1.000  H
