data_image0
_cell_length_a       13.337
_cell_length_b       15.33
_cell_length_c       27.719
_cell_angle_alpha    90
_cell_angle_beta     90
_cell_angle_gamma    90

_symmetry_space_group_name_H-M    "P 1"
_symmetry_int_tables_number       1

loop_
  _symmetry_equiv_pos_as_xyz
  'x, y, z'

loop_
  _atom_site_label
  _atom_site_occupancy
  _atom_site_fract_x
  _atom_site_fract_y
  _atom_site_fract_z
  _atom_site_thermal_displace_type
  _atom_site_B_iso_or_equiv
  _atom_site_type_symbol
  Cu1      1.0000 0.27817  0.25229  0.87608  Biso   1.000  Cu
  Cu2      1.0000 0.77817  0.24771  0.12391  Biso   1.000  Cu
  Cu3      1.0000 0.72183  0.75229  0.62391  Biso   1.000  Cu
  Cu4      1.0000 0.22183  0.74771  0.37608  Biso   1.000  Cu
  Cu5      1.0000 0.72183  0.74771  0.12391  Biso   1.000  Cu
  Cu6      1.0000 0.22183  0.75229  0.87608  Biso   1.000  Cu
  Cu7      1.0000 0.27817  0.24771  0.37608  Biso   1.000  Cu
  Cu8      1.0000 0.77817  0.25229  0.62391  Biso   1.000  Cu
  Cu9      1.0000 0.41158  0.01466  0.12684  Biso   1.000  Cu
  Cu10     1.0000 0.91158  0.48534  0.87316  Biso   1.000  Cu
  Cu11     1.0000 0.58842  0.51466  0.37316  Biso   1.000  Cu
  Cu12     1.0000 0.08842  0.98534  0.62684  Biso   1.000  Cu
  Cu13     1.0000 0.58842  0.98534  0.87316  Biso   1.000  Cu
  Cu14     1.0000 0.08842  0.51466  0.12684  Biso   1.000  Cu
  Cu15     1.0000 0.41158  0.48534  0.62684  Biso   1.000  Cu
  Cu16     1.0000 0.91158  0.01466  0.37316  Biso   1.000  Cu
  O1       1.0000 0.22900  0.06830  0.05175  Biso   1.000  O
  O2       1.0000 0.72900  0.43170  0.94825  Biso   1.000  O
  O3       1.0000 0.77100  0.56830  0.44825  Biso   1.000  O
  O4       1.0000 0.27100  0.93170  0.55175  Biso   1.000  O
  O5       1.0000 0.77100  0.93170  0.94825  Biso   1.000  O
  O6       1.0000 0.27100  0.56830  0.05175  Biso   1.000  O
  O7       1.0000 0.22900  0.43170  0.55175  Biso   1.000  O
  O8       1.0000 0.72900  0.06830  0.44825  Biso   1.000  O
  O9       1.0000 0.38310  0.10410  0.07817  Biso   1.000  O
  O10      1.0000 0.88310  0.39590  0.92183  Biso   1.000  O
  O11      1.0000 0.61690  0.60410  0.42183  Biso   1.000  O
  O12      1.0000 0.11690  0.89590  0.57817  Biso   1.000  O
  O13      1.0000 0.61690  0.89590  0.92183  Biso   1.000  O
  O14      1.0000 0.11690  0.60410  0.07817  Biso   1.000  O
  O15      1.0000 0.38310  0.39590  0.57817  Biso   1.000  O
  O16      1.0000 0.88310  0.10410  0.42183  Biso   1.000  O
  C1       1.0000 0.30450  0.11400  0.05229  Biso   1.000  C
  C2       1.0000 0.80450  0.38600  0.94771  Biso   1.000  C
  C3       1.0000 0.69550  0.61400  0.44771  Biso   1.000  C
  C4       1.0000 0.19550  0.88600  0.55229  Biso   1.000  C
  C5       1.0000 0.69550  0.88600  0.94771  Biso   1.000  C
  C6       1.0000 0.19550  0.61400  0.05229  Biso   1.000  C
  C7       1.0000 0.30450  0.38600  0.55229  Biso   1.000  C
  C8       1.0000 0.80450  0.11400  0.44771  Biso   1.000  C
  C9       1.0000 0.30710  0.19640  0.02140  Biso   1.000  C
  C10      1.0000 0.80710  0.30360  0.97860  Biso   1.000  C
  C11      1.0000 0.69290  0.69640  0.47860  Biso   1.000  C
  C12      1.0000 0.19290  0.80360  0.52140  Biso   1.000  C
  C13      1.0000 0.69290  0.80360  0.97860  Biso   1.000  C
  C14      1.0000 0.19290  0.69640  0.02140  Biso   1.000  C
  C15      1.0000 0.30710  0.30360  0.52140  Biso   1.000  C
  C16      1.0000 0.80710  0.19640  0.47860  Biso   1.000  C
  C17      1.0000 0.31490  0.27720  0.04482  Biso   1.000  C
  C18      1.0000 0.81490  0.22280  0.95518  Biso   1.000  C
  C19      1.0000 0.68510  0.77720  0.45518  Biso   1.000  C
  C20      1.0000 0.18510  0.72280  0.54482  Biso   1.000  C
  C21      1.0000 0.68510  0.72280  0.95518  Biso   1.000  C
  C22      1.0000 0.18510  0.77720  0.04482  Biso   1.000  C
  C23      1.0000 0.31490  0.22280  0.54482  Biso   1.000  C
  C24      1.0000 0.81490  0.27720  0.45518  Biso   1.000  C
  C25      1.0000 0.31190  0.35400  0.01824  Biso   1.000  C
  C26      1.0000 0.81190  0.14600  0.98176  Biso   1.000  C
  C27      1.0000 0.68810  0.85400  0.48176  Biso   1.000  C
  C28      1.0000 0.18810  0.64600  0.51824  Biso   1.000  C
  C29      1.0000 0.68810  0.64600  0.98176  Biso   1.000  C
  C30      1.0000 0.18810  0.85400  0.01824  Biso   1.000  C
  C31      1.0000 0.31190  0.14600  0.51824  Biso   1.000  C
  C32      1.0000 0.81190  0.35400  0.48176  Biso   1.000  C
  C33      1.0000 0.30070  0.34970  0.96894  Biso   1.000  C
  C34      1.0000 0.80070  0.15030  0.03106  Biso   1.000  C
  C35      1.0000 0.69930  0.84970  0.53106  Biso   1.000  C
  C36      1.0000 0.19930  0.65030  0.46894  Biso   1.000  C
  C37      1.0000 0.69930  0.65030  0.03106  Biso   1.000  C
  C38      1.0000 0.19930  0.84970  0.96894  Biso   1.000  C
  C39      1.0000 0.30070  0.15030  0.46894  Biso   1.000  C
  C40      1.0000 0.80070  0.34970  0.53106  Biso   1.000  C
  N1       1.0000 0.29560  0.27260  0.94645  Biso   1.000  N
  N2       1.0000 0.79560  0.22740  0.05355  Biso   1.000  N
  N3       1.0000 0.70440  0.77260  0.55355  Biso   1.000  N
  N4       1.0000 0.20440  0.72740  0.44645  Biso   1.000  N
  N5       1.0000 0.70440  0.72740  0.05355  Biso   1.000  N
  N6       1.0000 0.20440  0.77260  0.94645  Biso   1.000  N
  N7       1.0000 0.29560  0.22740  0.44645  Biso   1.000  N
  N8       1.0000 0.79560  0.27260  0.55355  Biso   1.000  N
  C41      1.0000 0.29960  0.19680  0.97159  Biso   1.000  C
  C42      1.0000 0.79960  0.30320  0.02841  Biso   1.000  C
  C43      1.0000 0.70040  0.69680  0.52841  Biso   1.000  C
  C44      1.0000 0.20040  0.80320  0.47159  Biso   1.000  C
  C45      1.0000 0.70040  0.80320  0.02841  Biso   1.000  C
  C46      1.0000 0.20040  0.69680  0.97159  Biso   1.000  C
  C47      1.0000 0.29960  0.30320  0.47159  Biso   1.000  C
  C48      1.0000 0.79960  0.19680  0.52841  Biso   1.000  C
  C49      1.0000 0.30590  0.11580  0.93959  Biso   1.000  C
  C50      1.0000 0.80590  0.38420  0.06041  Biso   1.000  C
  C51      1.0000 0.69410  0.61580  0.56041  Biso   1.000  C
  C52      1.0000 0.19410  0.88420  0.43959  Biso   1.000  C
  C53      1.0000 0.69410  0.88420  0.06041  Biso   1.000  C
  C54      1.0000 0.19410  0.61580  0.93959  Biso   1.000  C
  C55      1.0000 0.30590  0.38420  0.43959  Biso   1.000  C
  C56      1.0000 0.80590  0.11580  0.56041  Biso   1.000  C
  O17      1.0000 0.32700  0.04482  0.95644  Biso   1.000  O
  O18      1.0000 0.82700  0.45518  0.04356  Biso   1.000  O
  O19      1.0000 0.67300  0.54482  0.54356  Biso   1.000  O
  O20      1.0000 0.17300  0.95518  0.45644  Biso   1.000  O
  O21      1.0000 0.67300  0.95518  0.04356  Biso   1.000  O
  O22      1.0000 0.17300  0.54482  0.95644  Biso   1.000  O
  O23      1.0000 0.32700  0.45518  0.45644  Biso   1.000  O
  O24      1.0000 0.82700  0.04482  0.54356  Biso   1.000  O
  O25      1.0000 0.29220  0.13077  0.89466  Biso   1.000  O
  O26      1.0000 0.79220  0.36923  0.10534  Biso   1.000  O
  O27      1.0000 0.70780  0.63077  0.60534  Biso   1.000  O
  O28      1.0000 0.20780  0.86923  0.39466  Biso   1.000  O
  O29      1.0000 0.70780  0.86923  0.10534  Biso   1.000  O
  O30      1.0000 0.20780  0.63077  0.89466  Biso   1.000  O
  O31      1.0000 0.29220  0.36923  0.39466  Biso   1.000  O
  O32      1.0000 0.79220  0.13077  0.60534  Biso   1.000  O
  O33      1.0000 0.39900  0.39750  0.67770  Biso   1.000  O
  O34      1.0000 0.89900  0.10250  0.32230  Biso   1.000  O
  O35      1.0000 0.60100  0.89750  0.82230  Biso   1.000  O
  O36      1.0000 0.10100  0.60250  0.17770  Biso   1.000  O
  O37      1.0000 0.60100  0.60250  0.32230  Biso   1.000  O
  O38      1.0000 0.10100  0.89750  0.67770  Biso   1.000  O
  O39      1.0000 0.39900  0.10250  0.17770  Biso   1.000  O
  O40      1.0000 0.89900  0.39750  0.82230  Biso   1.000  O
  O41      1.0000 0.23980  0.42880  0.69759  Biso   1.000  O
  O42      1.0000 0.73980  0.07120  0.30241  Biso   1.000  O
  O43      1.0000 0.76020  0.92880  0.80241  Biso   1.000  O
  O44      1.0000 0.26020  0.57120  0.19759  Biso   1.000  O
  O45      1.0000 0.76020  0.57120  0.30241  Biso   1.000  O
  O46      1.0000 0.26020  0.92880  0.69759  Biso   1.000  O
  O47      1.0000 0.23980  0.07120  0.19759  Biso   1.000  O
  O48      1.0000 0.73980  0.42880  0.80241  Biso   1.000  O
  C57      1.0000 0.31690  0.38430  0.69989  Biso   1.000  C
  C58      1.0000 0.81690  0.11570  0.30011  Biso   1.000  C
  C59      1.0000 0.68310  0.88430  0.80011  Biso   1.000  C
  C60      1.0000 0.18310  0.61570  0.19989  Biso   1.000  C
  C61      1.0000 0.68310  0.61570  0.30011  Biso   1.000  C
  C62      1.0000 0.18310  0.88430  0.69989  Biso   1.000  C
  C63      1.0000 0.31690  0.11570  0.19989  Biso   1.000  C
  C64      1.0000 0.81690  0.38430  0.80011  Biso   1.000  C
  C65      1.0000 0.31530  0.30230  0.73092  Biso   1.000  C
  C66      1.0000 0.81530  0.19770  0.26908  Biso   1.000  C
  C67      1.0000 0.68470  0.80230  0.76908  Biso   1.000  C
  C68      1.0000 0.18470  0.69770  0.23092  Biso   1.000  C
  C69      1.0000 0.68470  0.69770  0.26908  Biso   1.000  C
  C70      1.0000 0.18470  0.80230  0.73092  Biso   1.000  C
  C71      1.0000 0.31530  0.19770  0.23092  Biso   1.000  C
  C72      1.0000 0.81530  0.30230  0.76908  Biso   1.000  C
  C73      1.0000 0.31780  0.22100  0.70847  Biso   1.000  C
  C74      1.0000 0.81780  0.27900  0.29153  Biso   1.000  C
  C75      1.0000 0.68220  0.72100  0.79153  Biso   1.000  C
  C76      1.0000 0.18220  0.77900  0.20847  Biso   1.000  C
  C77      1.0000 0.68220  0.77900  0.29153  Biso   1.000  C
  C78      1.0000 0.18220  0.72100  0.70847  Biso   1.000  C
  C79      1.0000 0.31780  0.27900  0.20847  Biso   1.000  C
  C80      1.0000 0.81780  0.22100  0.79153  Biso   1.000  C
  C81      1.0000 0.30970  0.14490  0.73543  Biso   1.000  C
  C82      1.0000 0.80970  0.35510  0.26457  Biso   1.000  C
  C83      1.0000 0.69030  0.64490  0.76457  Biso   1.000  C
  C84      1.0000 0.19030  0.85510  0.23543  Biso   1.000  C
  C85      1.0000 0.69030  0.85510  0.26457  Biso   1.000  C
  C86      1.0000 0.19030  0.64490  0.73543  Biso   1.000  C
  C87      1.0000 0.30970  0.35510  0.23543  Biso   1.000  C
  C88      1.0000 0.80970  0.14490  0.76457  Biso   1.000  C
  C89      1.0000 0.29890  0.15150  0.78484  Biso   1.000  C
  C90      1.0000 0.79890  0.34850  0.21516  Biso   1.000  C
  C91      1.0000 0.70110  0.65150  0.71516  Biso   1.000  C
  C92      1.0000 0.20110  0.84850  0.28484  Biso   1.000  C
  C93      1.0000 0.70110  0.84850  0.21516  Biso   1.000  C
  C94      1.0000 0.20110  0.65150  0.78484  Biso   1.000  C
  C95      1.0000 0.29890  0.34850  0.28484  Biso   1.000  C
  C96      1.0000 0.79890  0.15150  0.71516  Biso   1.000  C
  N9       1.0000 0.29770  0.22910  0.80667  Biso   1.000  N
  N10      1.0000 0.79770  0.27090  0.19333  Biso   1.000  N
  N11      1.0000 0.70230  0.72910  0.69333  Biso   1.000  N
  N12      1.0000 0.20230  0.77090  0.30667  Biso   1.000  N
  N13      1.0000 0.70230  0.77090  0.19333  Biso   1.000  N
  N14      1.0000 0.20230  0.72910  0.80667  Biso   1.000  N
  N15      1.0000 0.29770  0.27090  0.30667  Biso   1.000  N
  N16      1.0000 0.79770  0.22910  0.69333  Biso   1.000  N
  C97      1.0000 0.30720  0.30380  0.78091  Biso   1.000  C
  C98      1.0000 0.80720  0.19620  0.21909  Biso   1.000  C
  C99      1.0000 0.69280  0.80380  0.71909  Biso   1.000  C
  C100     1.0000 0.19280  0.69620  0.28091  Biso   1.000  C
  C101     1.0000 0.69280  0.69620  0.21909  Biso   1.000  C
  C102     1.0000 0.19280  0.80380  0.78091  Biso   1.000  C
  C103     1.0000 0.30720  0.19620  0.28091  Biso   1.000  C
  C104     1.0000 0.80720  0.30380  0.71909  Biso   1.000  C
  C105     1.0000 0.31200  0.38590  0.81247  Biso   1.000  C
  C106     1.0000 0.81200  0.11410  0.18753  Biso   1.000  C
  C107     1.0000 0.68800  0.88590  0.68753  Biso   1.000  C
  C108     1.0000 0.18800  0.61410  0.31247  Biso   1.000  C
  C109     1.0000 0.68800  0.61410  0.18753  Biso   1.000  C
  C110     1.0000 0.18800  0.88590  0.81247  Biso   1.000  C
  C111     1.0000 0.31200  0.11410  0.31247  Biso   1.000  C
  C112     1.0000 0.81200  0.38590  0.68753  Biso   1.000  C
  O49      1.0000 0.28890  0.37389  0.85644  Biso   1.000  O
  O50      1.0000 0.78890  0.12611  0.14356  Biso   1.000  O
  O51      1.0000 0.71110  0.87389  0.64356  Biso   1.000  O
  O52      1.0000 0.21110  0.62611  0.35644  Biso   1.000  O
  O53      1.0000 0.71110  0.62611  0.14356  Biso   1.000  O
  O54      1.0000 0.21110  0.87389  0.85644  Biso   1.000  O
  O55      1.0000 0.28890  0.12611  0.35644  Biso   1.000  O
  O56      1.0000 0.78890  0.37389  0.64356  Biso   1.000  O
  O57      1.0000 0.34020  0.45540  0.79530  Biso   1.000  O
  O58      1.0000 0.84020  0.04460  0.20470  Biso   1.000  O
  O59      1.0000 0.65980  0.95540  0.70470  Biso   1.000  O
  O60      1.0000 0.15980  0.54460  0.29530  Biso   1.000  O
  O61      1.0000 0.65980  0.54460  0.20470  Biso   1.000  O
  O62      1.0000 0.15980  0.95540  0.79530  Biso   1.000  O
  O63      1.0000 0.34020  0.04460  0.29530  Biso   1.000  O
  O64      1.0000 0.84020  0.45540  0.70470  Biso   1.000  O
  N17      1.0000 0.42600  0.91360  0.17389  Biso   1.000  N
  N18      1.0000 0.92600  0.58640  0.82611  Biso   1.000  N
  N19      1.0000 0.57400  0.41360  0.32611  Biso   1.000  N
  N20      1.0000 0.07400  0.08640  0.67389  Biso   1.000  N
  N21      1.0000 0.57400  0.08640  0.82611  Biso   1.000  N
  N22      1.0000 0.07400  0.41360  0.17389  Biso   1.000  N
  N23      1.0000 0.42600  0.58640  0.67389  Biso   1.000  N
  N24      1.0000 0.92600  0.91360  0.32611  Biso   1.000  N
  C113     1.0000 0.42850  0.91570  0.22245  Biso   1.000  C
  C114     1.0000 0.92850  0.58430  0.77755  Biso   1.000  C
  C115     1.0000 0.57150  0.41570  0.27755  Biso   1.000  C
  C116     1.0000 0.07150  0.08430  0.72245  Biso   1.000  C
  C117     1.0000 0.57150  0.08430  0.77755  Biso   1.000  C
  C118     1.0000 0.07150  0.41570  0.22245  Biso   1.000  C
  C119     1.0000 0.42850  0.58430  0.72245  Biso   1.000  C
  C120     1.0000 0.92850  0.91570  0.27755  Biso   1.000  C
  C121     1.0000 0.43850  0.83850  0.24920  Biso   1.000  C
  C122     1.0000 0.93850  0.66150  0.75080  Biso   1.000  C
  C123     1.0000 0.56150  0.33850  0.25080  Biso   1.000  C
  C124     1.0000 0.06150  0.16150  0.74920  Biso   1.000  C
  C125     1.0000 0.56150  0.16150  0.75080  Biso   1.000  C
  C126     1.0000 0.06150  0.33850  0.24920  Biso   1.000  C
  C127     1.0000 0.43850  0.66150  0.74920  Biso   1.000  C
  C128     1.0000 0.93850  0.83850  0.25080  Biso   1.000  C
  C129     1.0000 0.44580  0.75890  0.22684  Biso   1.000  C
  C130     1.0000 0.94580  0.74110  0.77316  Biso   1.000  C
  C131     1.0000 0.55420  0.25890  0.27316  Biso   1.000  C
  C132     1.0000 0.05420  0.24110  0.72684  Biso   1.000  C
  C133     1.0000 0.55420  0.24110  0.77316  Biso   1.000  C
  C134     1.0000 0.05420  0.25890  0.22684  Biso   1.000  C
  C135     1.0000 0.44580  0.74110  0.72684  Biso   1.000  C
  C136     1.0000 0.94580  0.75890  0.27316  Biso   1.000  C
  C137     1.0000 0.44620  0.75500  0.17633  Biso   1.000  C
  C138     1.0000 0.94620  0.74500  0.82367  Biso   1.000  C
  C139     1.0000 0.55380  0.25500  0.32367  Biso   1.000  C
  C140     1.0000 0.05380  0.24500  0.67633  Biso   1.000  C
  C141     1.0000 0.55380  0.24500  0.82367  Biso   1.000  C
  C142     1.0000 0.05380  0.25500  0.17633  Biso   1.000  C
  C143     1.0000 0.44620  0.74500  0.67633  Biso   1.000  C
  C144     1.0000 0.94620  0.75500  0.32367  Biso   1.000  C
  C145     1.0000 0.45510  0.67590  0.14870  Biso   1.000  C
  C146     1.0000 0.95510  0.82410  0.85130  Biso   1.000  C
  C147     1.0000 0.54490  0.17590  0.35130  Biso   1.000  C
  C148     1.0000 0.04490  0.32410  0.64870  Biso   1.000  C
  C149     1.0000 0.54490  0.32410  0.85130  Biso   1.000  C
  C150     1.0000 0.04490  0.17590  0.14870  Biso   1.000  C
  C151     1.0000 0.45510  0.82410  0.64870  Biso   1.000  C
  C152     1.0000 0.95510  0.67590  0.35130  Biso   1.000  C
  C153     1.0000 0.45720  0.67720  0.10010  Biso   1.000  C
  C154     1.0000 0.95720  0.82280  0.89990  Biso   1.000  C
  C155     1.0000 0.54280  0.17720  0.39990  Biso   1.000  C
  C156     1.0000 0.04280  0.32280  0.60010  Biso   1.000  C
  C157     1.0000 0.54280  0.32280  0.89990  Biso   1.000  C
  C158     1.0000 0.04280  0.17720  0.10010  Biso   1.000  C
  C159     1.0000 0.45720  0.82280  0.60010  Biso   1.000  C
  C160     1.0000 0.95720  0.67720  0.39990  Biso   1.000  C
  C161     1.0000 0.44710  0.75810  0.07414  Biso   1.000  C
  C162     1.0000 0.94710  0.74190  0.92586  Biso   1.000  C
  C163     1.0000 0.55290  0.25810  0.42586  Biso   1.000  C
  C164     1.0000 0.05290  0.24190  0.57414  Biso   1.000  C
  C165     1.0000 0.55290  0.24190  0.92586  Biso   1.000  C
  C166     1.0000 0.05290  0.25810  0.07414  Biso   1.000  C
  C167     1.0000 0.44710  0.74190  0.57414  Biso   1.000  C
  C168     1.0000 0.94710  0.75810  0.42586  Biso   1.000  C
  C169     1.0000 0.44800  0.76390  0.02320  Biso   1.000  C
  C170     1.0000 0.94800  0.73610  0.97680  Biso   1.000  C
  C171     1.0000 0.55200  0.26390  0.47680  Biso   1.000  C
  C172     1.0000 0.05200  0.23610  0.52320  Biso   1.000  C
  C173     1.0000 0.55200  0.23610  0.97680  Biso   1.000  C
  C174     1.0000 0.05200  0.26390  0.02320  Biso   1.000  C
  C175     1.0000 0.44800  0.73610  0.52320  Biso   1.000  C
  C176     1.0000 0.94800  0.76390  0.47680  Biso   1.000  C
  C177     1.0000 0.43800  0.84540  0.00187  Biso   1.000  C
  C178     1.0000 0.93800  0.65460  0.99813  Biso   1.000  C
  C179     1.0000 0.56200  0.34540  0.49813  Biso   1.000  C
  C180     1.0000 0.06200  0.15460  0.50187  Biso   1.000  C
  C181     1.0000 0.56200  0.15460  0.99813  Biso   1.000  C
  C182     1.0000 0.06200  0.34540  0.00187  Biso   1.000  C
  C183     1.0000 0.43800  0.65460  0.50187  Biso   1.000  C
  C184     1.0000 0.93800  0.84540  0.49813  Biso   1.000  C
  C185     1.0000 0.42520  0.91970  0.03118  Biso   1.000  C
  C186     1.0000 0.92520  0.58030  0.96882  Biso   1.000  C
  C187     1.0000 0.57480  0.41970  0.46882  Biso   1.000  C
  C188     1.0000 0.07480  0.08030  0.53118  Biso   1.000  C
  C189     1.0000 0.57480  0.08030  0.96882  Biso   1.000  C
  C190     1.0000 0.07480  0.41970  0.03118  Biso   1.000  C
  C191     1.0000 0.42520  0.58030  0.53118  Biso   1.000  C
  C192     1.0000 0.92520  0.91970  0.46882  Biso   1.000  C
  N25      1.0000 0.42370  0.91610  0.07896  Biso   1.000  N
  N26      1.0000 0.92370  0.58390  0.92104  Biso   1.000  N
  N27      1.0000 0.57630  0.41610  0.42104  Biso   1.000  N
  N28      1.0000 0.07630  0.08390  0.57896  Biso   1.000  N
  N29      1.0000 0.57630  0.08390  0.92104  Biso   1.000  N
  N30      1.0000 0.07630  0.41610  0.07896  Biso   1.000  N
  N31      1.0000 0.42370  0.58390  0.57896  Biso   1.000  N
  N32      1.0000 0.92370  0.91610  0.42104  Biso   1.000  N
  C193     1.0000 0.43470  0.83650  0.10035  Biso   1.000  C
  C194     1.0000 0.93470  0.66350  0.89965  Biso   1.000  C
  C195     1.0000 0.56530  0.33650  0.39965  Biso   1.000  C
  C196     1.0000 0.06530  0.16350  0.60035  Biso   1.000  C
  C197     1.0000 0.56530  0.16350  0.89965  Biso   1.000  C
  C198     1.0000 0.06530  0.33650  0.10035  Biso   1.000  C
  C199     1.0000 0.43470  0.66350  0.60035  Biso   1.000  C
  C200     1.0000 0.93470  0.83650  0.39965  Biso   1.000  C
  C201     1.0000 0.43610  0.83490  0.15193  Biso   1.000  C
  C202     1.0000 0.93610  0.66510  0.84807  Biso   1.000  C
  C203     1.0000 0.56390  0.33490  0.34807  Biso   1.000  C
  C204     1.0000 0.06390  0.16510  0.65193  Biso   1.000  C
  C205     1.0000 0.56390  0.16510  0.84807  Biso   1.000  C
  C206     1.0000 0.06390  0.33490  0.15193  Biso   1.000  C
  C207     1.0000 0.43610  0.66510  0.65193  Biso   1.000  C
  C208     1.0000 0.93610  0.83490  0.34807  Biso   1.000  C
  O65      1.0000 0.57990  0.04960  0.11963  Biso   1.000  O
  O66      1.0000 0.07990  0.45040  0.88037  Biso   1.000  O
  O67      1.0000 0.42010  0.54960  0.38037  Biso   1.000  O
  O68      1.0000 0.92010  0.95040  0.61963  Biso   1.000  O
  O69      1.0000 0.42010  0.95040  0.88037  Biso   1.000  O
  O70      1.0000 0.92010  0.54960  0.11963  Biso   1.000  O
  O71      1.0000 0.57990  0.45040  0.61963  Biso   1.000  O
  O72      1.0000 0.07990  0.04960  0.38037  Biso   1.000  O
  O73      1.0000 0.10540  0.25100  0.87571  Biso   1.000  O
  O74      1.0000 0.60540  0.24900  0.12429  Biso   1.000  O
  O75      1.0000 0.89460  0.75100  0.62429  Biso   1.000  O
  O76      1.0000 0.39460  0.74900  0.37571  Biso   1.000  O
  O77      1.0000 0.89460  0.74900  0.12429  Biso   1.000  O
  O78      1.0000 0.39460  0.75100  0.87571  Biso   1.000  O
  O79      1.0000 0.10540  0.24900  0.37571  Biso   1.000  O
  O80      1.0000 0.60540  0.25100  0.62429  Biso   1.000  O
  O81      1.0000 0.32680  0.45650  0.12678  Biso   1.000  O
  O82      1.0000 0.82680  0.04350  0.87322  Biso   1.000  O
  O83      1.0000 0.67320  0.95650  0.37322  Biso   1.000  O
  O84      1.0000 0.17320  0.54350  0.62678  Biso   1.000  O
  O85      1.0000 0.67320  0.54350  0.87322  Biso   1.000  O
  O86      1.0000 0.17320  0.95650  0.12678  Biso   1.000  O
  O87      1.0000 0.32680  0.04350  0.62678  Biso   1.000  O
  O88      1.0000 0.82680  0.45650  0.37322  Biso   1.000  O
  O89      1.0000 0.57410  0.44640  0.02136  Biso   1.000  O
  O90      1.0000 0.07410  0.05360  0.97864  Biso   1.000  O
  O91      1.0000 0.42590  0.94640  0.47864  Biso   1.000  O
  O92      1.0000 0.92590  0.55360  0.52136  Biso   1.000  O
  O93      1.0000 0.42590  0.55360  0.97864  Biso   1.000  O
  O94      1.0000 0.92590  0.94640  0.02136  Biso   1.000  O
  O95      1.0000 0.57410  0.05360  0.52136  Biso   1.000  O
  O96      1.0000 0.07410  0.44640  0.47864  Biso   1.000  O
  O97      1.0000 0.55010  0.43140  0.12540  Biso   1.000  O
  O98      1.0000 0.05010  0.06860  0.87460  Biso   1.000  O
  O99      1.0000 0.44990  0.93140  0.37460  Biso   1.000  O
  O100     1.0000 0.94990  0.56860  0.62540  Biso   1.000  O
  O101     1.0000 0.44990  0.56860  0.87460  Biso   1.000  O
  O102     1.0000 0.94990  0.93140  0.12540  Biso   1.000  O
  O103     1.0000 0.55010  0.06860  0.62540  Biso   1.000  O
  O104     1.0000 0.05010  0.43140  0.37460  Biso   1.000  O
  O105     1.0000 0.60450  0.05590  0.22130  Biso   1.000  O
  O106     1.0000 0.10450  0.44410  0.77870  Biso   1.000  O
  O107     1.0000 0.39550  0.55590  0.27870  Biso   1.000  O
  O108     1.0000 0.89550  0.94410  0.72130  Biso   1.000  O
  O109     1.0000 0.39550  0.94410  0.77870  Biso   1.000  O
  O110     1.0000 0.89550  0.55590  0.22130  Biso   1.000  O
  O111     1.0000 0.60450  0.44410  0.72130  Biso   1.000  O
  O112     1.0000 0.10450  0.05590  0.27870  Biso   1.000  O
  H1       1.0000 0.41370  0.97960  0.01490  Biso   1.000  H
  H2       1.0000 0.91370  0.52040  0.98510  Biso   1.000  H
  H3       1.0000 0.58630  0.47960  0.48510  Biso   1.000  H
  H4       1.0000 0.08630  0.02040  0.51490  Biso   1.000  H
  H5       1.0000 0.58630  0.02040  0.98510  Biso   1.000  H
  H6       1.0000 0.08630  0.47960  0.01490  Biso   1.000  H
  H7       1.0000 0.41370  0.52040  0.51490  Biso   1.000  H
  H8       1.0000 0.91370  0.97960  0.48510  Biso   1.000  H
  H9       1.0000 0.44220  0.85060  0.96540  Biso   1.000  H
  H10      1.0000 0.94220  0.64940  0.03460  Biso   1.000  H
  H11      1.0000 0.55780  0.35060  0.53460  Biso   1.000  H
  H12      1.0000 0.05780  0.14940  0.46540  Biso   1.000  H
  H13      1.0000 0.55780  0.14940  0.03460  Biso   1.000  H
  H14      1.0000 0.05780  0.35060  0.96540  Biso   1.000  H
  H15      1.0000 0.44220  0.64940  0.46540  Biso   1.000  H
  H16      1.0000 0.94220  0.85060  0.53460  Biso   1.000  H
  H17      1.0000 0.45240  0.71090  0.00230  Biso   1.000  H
  H18      1.0000 0.95240  0.78910  0.99770  Biso   1.000  H
  H19      1.0000 0.54760  0.21090  0.49770  Biso   1.000  H
  H20      1.0000 0.04760  0.28910  0.50230  Biso   1.000  H
  H21      1.0000 0.54760  0.28910  0.99770  Biso   1.000  H
  H22      1.0000 0.04760  0.21090  0.00230  Biso   1.000  H
  H23      1.0000 0.45240  0.78910  0.50230  Biso   1.000  H
  H24      1.0000 0.95240  0.71090  0.49770  Biso   1.000  H
  H25      1.0000 0.46020  0.61890  0.08210  Biso   1.000  H
  H26      1.0000 0.96020  0.88110  0.91790  Biso   1.000  H
  H27      1.0000 0.53980  0.11890  0.41790  Biso   1.000  H
  H28      1.0000 0.03980  0.38110  0.58210  Biso   1.000  H
  H29      1.0000 0.53980  0.38110  0.91790  Biso   1.000  H
  H30      1.0000 0.03980  0.11890  0.08210  Biso   1.000  H
  H31      1.0000 0.46020  0.88110  0.58210  Biso   1.000  H
  H32      1.0000 0.96020  0.61890  0.41790  Biso   1.000  H
  H33      1.0000 0.46900  0.62100  0.16610  Biso   1.000  H
  H34      1.0000 0.96900  0.87900  0.83390  Biso   1.000  H
  H35      1.0000 0.53100  0.12100  0.33390  Biso   1.000  H
  H36      1.0000 0.03100  0.37900  0.66610  Biso   1.000  H
  H37      1.0000 0.53100  0.37900  0.83390  Biso   1.000  H
  H38      1.0000 0.03100  0.12100  0.16610  Biso   1.000  H
  H39      1.0000 0.46900  0.87900  0.66610  Biso   1.000  H
  H40      1.0000 0.96900  0.62100  0.33390  Biso   1.000  H
  H41      1.0000 0.42200  0.97460  0.23930  Biso   1.000  H
  H42      1.0000 0.92200  0.52540  0.76070  Biso   1.000  H
  H43      1.0000 0.57800  0.47460  0.26070  Biso   1.000  H
  H44      1.0000 0.07800  0.02540  0.73930  Biso   1.000  H
  H45      1.0000 0.57800  0.02540  0.76070  Biso   1.000  H
  H46      1.0000 0.07800  0.47460  0.23930  Biso   1.000  H
  H47      1.0000 0.42200  0.52540  0.73930  Biso   1.000  H
  H48      1.0000 0.92200  0.97460  0.26070  Biso   1.000  H
  H49      1.0000 0.43620  0.84250  0.28530  Biso   1.000  H
  H50      1.0000 0.93620  0.65750  0.71470  Biso   1.000  H
  H51      1.0000 0.56380  0.34250  0.21470  Biso   1.000  H
  H52      1.0000 0.06380  0.15750  0.78530  Biso   1.000  H
  H53      1.0000 0.56380  0.15750  0.71470  Biso   1.000  H
  H54      1.0000 0.06380  0.34250  0.28530  Biso   1.000  H
  H55      1.0000 0.43620  0.65750  0.78530  Biso   1.000  H
  H56      1.0000 0.93620  0.84250  0.21470  Biso   1.000  H
  H57      1.0000 0.45860  0.70360  0.24680  Biso   1.000  H
  H58      1.0000 0.95860  0.79640  0.75320  Biso   1.000  H
  H59      1.0000 0.54140  0.20360  0.25320  Biso   1.000  H
  H60      1.0000 0.04140  0.29640  0.74680  Biso   1.000  H
  H61      1.0000 0.54140  0.29640  0.75320  Biso   1.000  H
  H62      1.0000 0.04140  0.20360  0.24680  Biso   1.000  H
  H63      1.0000 0.45860  0.79640  0.74680  Biso   1.000  H
  H64      1.0000 0.95860  0.70360  0.25320  Biso   1.000  H
  H65      1.0000 0.29510  0.40540  0.94890  Biso   1.000  H
  H66      1.0000 0.79510  0.09460  0.05110  Biso   1.000  H
  H67      1.0000 0.70490  0.90540  0.55110  Biso   1.000  H
  H68      1.0000 0.20490  0.59460  0.44890  Biso   1.000  H
  H69      1.0000 0.70490  0.59460  0.05110  Biso   1.000  H
  H70      1.0000 0.20490  0.90540  0.94890  Biso   1.000  H
  H71      1.0000 0.29510  0.09460  0.44890  Biso   1.000  H
  H72      1.0000 0.79510  0.40540  0.55110  Biso   1.000  H
  H73      1.0000 0.31960  0.41130  0.03510  Biso   1.000  H
  H74      1.0000 0.81960  0.08870  0.96490  Biso   1.000  H
  H75      1.0000 0.68040  0.91130  0.46490  Biso   1.000  H
  H76      1.0000 0.18040  0.58870  0.53510  Biso   1.000  H
  H77      1.0000 0.68040  0.58870  0.96490  Biso   1.000  H
  H78      1.0000 0.18040  0.91130  0.03510  Biso   1.000  H
  H79      1.0000 0.31960  0.08870  0.53510  Biso   1.000  H
  H80      1.0000 0.81960  0.41130  0.46490  Biso   1.000  H
  H81      1.0000 0.32100  0.27940  0.08070  Biso   1.000  H
  H82      1.0000 0.82100  0.22060  0.91930  Biso   1.000  H
  H83      1.0000 0.67900  0.77940  0.41930  Biso   1.000  H
  H84      1.0000 0.17900  0.72060  0.58070  Biso   1.000  H
  H85      1.0000 0.67900  0.72060  0.91930  Biso   1.000  H
  H86      1.0000 0.17900  0.77940  0.08070  Biso   1.000  H
  H87      1.0000 0.32100  0.22060  0.58070  Biso   1.000  H
  H88      1.0000 0.82100  0.27940  0.41930  Biso   1.000  H
  H89      1.0000 0.29040  0.09910  0.80540  Biso   1.000  H
  H90      1.0000 0.79040  0.40090  0.19460  Biso   1.000  H
  H91      1.0000 0.70960  0.59910  0.69460  Biso   1.000  H
  H92      1.0000 0.20960  0.90090  0.30540  Biso   1.000  H
  H93      1.0000 0.70960  0.90090  0.19460  Biso   1.000  H
  H94      1.0000 0.20960  0.59910  0.80540  Biso   1.000  H
  H95      1.0000 0.29040  0.40090  0.30540  Biso   1.000  H
  H96      1.0000 0.79040  0.09910  0.69460  Biso   1.000  H
  H97      1.0000 0.31210  0.08580  0.71850  Biso   1.000  H
  H98      1.0000 0.81210  0.41420  0.28150  Biso   1.000  H
  H99      1.0000 0.68790  0.58580  0.78150  Biso   1.000  H
  H100     1.0000 0.18790  0.91420  0.21850  Biso   1.000  H
  H101     1.0000 0.68790  0.91420  0.28150  Biso   1.000  H
  H102     1.0000 0.18790  0.58580  0.71850  Biso   1.000  H
  H103     1.0000 0.31210  0.41420  0.21850  Biso   1.000  H
  H104     1.0000 0.81210  0.08580  0.78150  Biso   1.000  H
  H105     1.0000 0.32600  0.21900  0.67240  Biso   1.000  H
  H106     1.0000 0.82600  0.28100  0.32760  Biso   1.000  H
  H107     1.0000 0.67400  0.71900  0.82760  Biso   1.000  H
  H108     1.0000 0.17400  0.78100  0.17240  Biso   1.000  H
  H109     1.0000 0.67400  0.78100  0.32760  Biso   1.000  H
  H110     1.0000 0.17400  0.71900  0.67240  Biso   1.000  H
  H111     1.0000 0.32600  0.28100  0.17240  Biso   1.000  H
  H112     1.0000 0.82600  0.21900  0.82760  Biso   1.000  H
  H113     1.0000 0.13810  0.28870  0.85720  Biso   1.000  H
  H114     1.0000 0.63810  0.21130  0.14280  Biso   1.000  H
  H115     1.0000 0.86190  0.78870  0.64280  Biso   1.000  H
  H116     1.0000 0.36190  0.71130  0.35720  Biso   1.000  H
  H117     1.0000 0.86190  0.71130  0.14280  Biso   1.000  H
  H118     1.0000 0.36190  0.78870  0.85720  Biso   1.000  H
  H119     1.0000 0.13810  0.21130  0.35720  Biso   1.000  H
  H120     1.0000 0.63810  0.28870  0.64280  Biso   1.000  H
  H121     1.0000 0.04020  0.26640  0.87770  Biso   1.000  H
  H122     1.0000 0.54020  0.23360  0.12230  Biso   1.000  H
  H123     1.0000 0.95980  0.76640  0.62230  Biso   1.000  H
  H124     1.0000 0.45980  0.73360  0.37770  Biso   1.000  H
  H125     1.0000 0.95980  0.73360  0.12230  Biso   1.000  H
  H126     1.0000 0.45980  0.76640  0.87770  Biso   1.000  H
  H127     1.0000 0.04020  0.23360  0.37770  Biso   1.000  H
  H128     1.0000 0.54020  0.26640  0.62230  Biso   1.000  H
  H129     1.0000 0.61030  0.01010  0.10100  Biso   1.000  H
  H130     1.0000 0.11030  0.48990  0.89900  Biso   1.000  H
  H131     1.0000 0.38970  0.51010  0.39900  Biso   1.000  H
  H132     1.0000 0.88970  0.98990  0.60100  Biso   1.000  H
  H133     1.0000 0.38970  0.98990  0.89900  Biso   1.000  H
  H134     1.0000 0.88970  0.51010  0.10100  Biso   1.000  H
  H135     1.0000 0.61030  0.48990  0.60100  Biso   1.000  H
  H136     1.0000 0.11030  0.01010  0.39900  Biso   1.000  H
  H137     1.0000 0.61510  0.05770  0.14670  Biso   1.000  H
  H138     1.0000 0.11510  0.44230  0.85330  Biso   1.000  H
  H139     1.0000 0.38490  0.55770  0.35330  Biso   1.000  H
  H140     1.0000 0.88490  0.94230  0.64670  Biso   1.000  H
  H141     1.0000 0.38490  0.94230  0.85330  Biso   1.000  H
  H142     1.0000 0.88490  0.55770  0.14670  Biso   1.000  H
  H143     1.0000 0.61510  0.44230  0.64670  Biso   1.000  H
  H144     1.0000 0.11510  0.05770  0.35330  Biso   1.000  H
  H145     1.0000 0.39020  0.47910  0.12180  Biso   1.000  H
  H146     1.0000 0.89020  0.02090  0.87820  Biso   1.000  H
  H147     1.0000 0.60980  0.97910  0.37820  Biso   1.000  H
  H148     1.0000 0.10980  0.52090  0.62180  Biso   1.000  H
  H149     1.0000 0.60980  0.52090  0.87820  Biso   1.000  H
  H150     1.0000 0.10980  0.97910  0.12180  Biso   1.000  H
  H151     1.0000 0.39020  0.02090  0.62180  Biso   1.000  H
  H152     1.0000 0.89020  0.47910  0.37820  Biso   1.000  H
  H153     1.0000 0.28980  0.48510  0.14830  Biso   1.000  H
  H154     1.0000 0.78980  0.01490  0.85170  Biso   1.000  H
  H155     1.0000 0.71020  0.98510  0.35170  Biso   1.000  H
  H156     1.0000 0.21020  0.51490  0.64830  Biso   1.000  H
  H157     1.0000 0.71020  0.51490  0.85170  Biso   1.000  H
  H158     1.0000 0.21020  0.98510  0.14830  Biso   1.000  H
  H159     1.0000 0.28980  0.01490  0.64830  Biso   1.000  H
  H160     1.0000 0.78980  0.48510  0.35170  Biso   1.000  H
  H161     1.0000 0.54040  0.45490  0.04850  Biso   1.000  H
  H162     1.0000 0.04040  0.04510  0.95150  Biso   1.000  H
  H163     1.0000 0.45960  0.95490  0.45150  Biso   1.000  H
  H164     1.0000 0.95960  0.54510  0.54850  Biso   1.000  H
  H165     1.0000 0.45960  0.54510  0.95150  Biso   1.000  H
  H166     1.0000 0.95960  0.95490  0.04850  Biso   1.000  H
  H167     1.0000 0.54040  0.04510  0.54850  Biso   1.000  H
  H168     1.0000 0.04040  0.45490  0.45150  Biso   1.000  H
  H169     1.0000 0.56270  0.48950  0.00070  Biso   1.000  H
  H170     1.0000 0.06270  0.01050  0.99930  Biso   1.000  H
  H171     1.0000 0.43730  0.98950  0.49930  Biso   1.000  H
  H172     1.0000 0.93730  0.51050  0.50070  Biso   1.000  H
  H173     1.0000 0.43730  0.51050  0.99930  Biso   1.000  H
  H174     1.0000 0.93730  0.98950  0.00070  Biso   1.000  H
  H175     1.0000 0.56270  0.01050  0.50070  Biso   1.000  H
  H176     1.0000 0.06270  0.48950  0.49930  Biso   1.000  H
  H177     1.0000 0.50650  0.38890  0.11620  Biso   1.000  H
  H178     1.0000 0.00650  0.11110  0.88380  Biso   1.000  H
  H179     1.0000 0.49350  0.88890  0.38380  Biso   1.000  H
  H180     1.0000 0.99350  0.61110  0.61620  Biso   1.000  H
  H181     1.0000 0.49350  0.61110  0.88380  Biso   1.000  H
  H182     1.0000 0.99350  0.88890  0.11620  Biso   1.000  H
  H183     1.0000 0.50650  0.11110  0.61620  Biso   1.000  H
  H184     1.0000 0.00650  0.38890  0.38380  Biso   1.000  H
  H185     1.0000 0.52420  0.48240  0.11930  Biso   1.000  H
  H186     1.0000 0.02420  0.01760  0.88070  Biso   1.000  H
  H187     1.0000 0.47580  0.98240  0.38070  Biso   1.000  H
  H188     1.0000 0.97580  0.51760  0.61930  Biso   1.000  H
  H189     1.0000 0.47580  0.51760  0.88070  Biso   1.000  H
  H190     1.0000 0.97580  0.98240  0.11930  Biso   1.000  H
  H191     1.0000 0.52420  0.01760  0.61930  Biso   1.000  H
  H192     1.0000 0.02420  0.48240  0.38070  Biso   1.000  H
  H193     1.0000 0.61430  0.11220  0.21490  Biso   1.000  H
  H194     1.0000 0.11430  0.38780  0.78510  Biso   1.000  H
  H195     1.0000 0.38570  0.61220  0.28510  Biso   1.000  H
  H196     1.0000 0.88570  0.88780  0.71490  Biso   1.000  H
  H197     1.0000 0.38570  0.88780  0.78510  Biso   1.000  H
  H198     1.0000 0.88570  0.61220  0.21490  Biso   1.000  H
  H199     1.0000 0.61430  0.38780  0.71490  Biso   1.000  H
  H200     1.0000 0.11430  0.11220  0.28510  Biso   1.000  H
  H201     1.0000 0.59630  0.04850  0.25330  Biso   1.000  H
  H202     1.0000 0.09630  0.45150  0.74670  Biso   1.000  H
  H203     1.0000 0.40370  0.54850  0.24670  Biso   1.000  H
  H204     1.0000 0.90370  0.95150  0.75330  Biso   1.000  H
  H205     1.0000 0.40370  0.95150  0.74670  Biso   1.000  H
  H206     1.0000 0.90370  0.54850  0.25330  Biso   1.000  H
  H207     1.0000 0.59630  0.45150  0.75330  Biso   1.000  H
  H208     1.0000 0.09630  0.04850  0.24670  Biso   1.000  H
