data_image0
_cell_length_a       5.0353
_cell_length_b       11.8001
_cell_length_c       13.8595
_cell_angle_alpha    84.539
_cell_angle_beta     85.553
_cell_angle_gamma    85.61

_symmetry_space_group_name_H-M    "P 1"
_symmetry_int_tables_number       1

loop_
  _symmetry_equiv_pos_as_xyz
  'x, y, z'

loop_
  _atom_site_label
  _atom_site_occupancy
  _atom_site_fract_x
  _atom_site_fract_y
  _atom_site_fract_z
  _atom_site_thermal_displace_type
  _atom_site_B_iso_or_equiv
  _atom_site_type_symbol
  Cu1      1.0000 0.21339  0.05196  0.47144  Biso   1.000  Cu
  Cu2      1.0000 0.78661  0.94804  0.52856  Biso   1.000  Cu
  Cl1      1.0000 0.39928  0.36470  0.09685  Biso   1.000  Cl
  Cl2      1.0000 0.60072  0.63530  0.90315  Biso   1.000  Cl
  Cl3      1.0000 0.70130  0.61157  0.13820  Biso   1.000  Cl
  Cl4      1.0000 0.29870  0.38843  0.86180  Biso   1.000  Cl
  O1       1.0000 0.37110  0.90947  0.54253  Biso   1.000  O
  O2       1.0000 0.62890  0.09053  0.45747  Biso   1.000  O
  O3       1.0000 0.00090  0.17993  0.40983  Biso   1.000  O
  O4       1.0000 0.99910  0.82007  0.59017  Biso   1.000  O
  O5       1.0000 0.63190  0.29482  0.56079  Biso   1.000  O
  O6       1.0000 0.36810  0.70518  0.43921  Biso   1.000  O
  O7       1.0000 0.28290  0.41394  0.56834  Biso   1.000  O
  O8       1.0000 0.71710  0.58606  0.43166  Biso   1.000  O
  O9       1.0000 0.21240  0.97459  0.35393  Biso   1.000  O
  O10      1.0000 0.78760  0.02541  0.64607  Biso   1.000  O
  O11      1.0000 0.15640  0.11767  0.59558  Biso   1.000  O
  O12      1.0000 0.84360  0.88233  0.40442  Biso   1.000  O
  O13      1.0000 0.14200  0.10970  0.17610  Biso   1.000  O
  O14      1.0000 0.85800  0.89030  0.82390  Biso   1.000  O
  O15      1.0000 0.52680  0.02370  0.13998  Biso   1.000  O
  O16      1.0000 0.47320  0.97630  0.86002  Biso   1.000  O
  N1       1.0000 0.44970  0.35283  0.52330  Biso   1.000  N
  N2       1.0000 0.55030  0.64717  0.47670  Biso   1.000  N
  N3       1.0000 0.28650  0.02437  0.16027  Biso   1.000  N
  N4       1.0000 0.71350  0.97563  0.83973  Biso   1.000  N
  C1       1.0000 0.43070  0.35200  0.41832  Biso   1.000  C
  C2       1.0000 0.56930  0.64800  0.58168  Biso   1.000  C
  C3       1.0000 0.26090  0.43380  0.37210  Biso   1.000  C
  C4       1.0000 0.73910  0.56620  0.62790  Biso   1.000  C
  H1       1.0000 0.15710  0.48640  0.40730  Biso   1.000  H
  H2       1.0000 0.84290  0.51360  0.59270  Biso   1.000  H
  C5       1.0000 0.24810  0.43610  0.27280  Biso   1.000  C
  C6       1.0000 0.75190  0.56390  0.72720  Biso   1.000  C
  H3       1.0000 0.13390  0.48990  0.24030  Biso   1.000  H
  H4       1.0000 0.86610  0.51010  0.75970  Biso   1.000  H
  C7       1.0000 0.40630  0.35770  0.22185  Biso   1.000  C
  C8       1.0000 0.59370  0.64230  0.77815  Biso   1.000  C
  C9       1.0000 0.57500  0.27440  0.26839  Biso   1.000  C
  C10      1.0000 0.42500  0.72560  0.73161  Biso   1.000  C
  H5       1.0000 0.67800  0.22190  0.23290  Biso   1.000  H
  H6       1.0000 0.32200  0.77810  0.76710  Biso   1.000  H
  C11      1.0000 0.58770  0.27050  0.36849  Biso   1.000  C
  C12      1.0000 0.41230  0.72950  0.63151  Biso   1.000  C
  C13      1.0000 0.75370  0.17490  0.41697  Biso   1.000  C
  C14      1.0000 0.24630  0.82510  0.58303  Biso   1.000  C
  C15      1.0000 0.02720  0.91190  0.34205  Biso   1.000  C
  C16      1.0000 0.97280  0.08810  0.65795  Biso   1.000  C
  C17      1.0000 0.02470  0.86830  0.24379  Biso   1.000  C
  C18      1.0000 0.97530  0.13170  0.75621  Biso   1.000  C
  C19      1.0000 0.15690  0.91680  0.16019  Biso   1.000  C
  C20      1.0000 0.84310  0.08320  0.83981  Biso   1.000  C
  C21      1.0000 0.16180  0.87210  0.07137  Biso   1.000  C
  C22      1.0000 0.83820  0.12790  0.92863  Biso   1.000  C
  H7       1.0000 0.25770  0.90520  0.01730  Biso   1.000  H
  H8       1.0000 0.74230  0.09480  0.98270  Biso   1.000  H
  C23      1.0000 0.02120  0.77690  0.06434  Biso   1.000  C
  C24      1.0000 0.97880  0.22310  0.93566  Biso   1.000  C
  H9       1.0000 0.02000  0.74550  0.00530  Biso   1.000  H
  H10      1.0000 0.98000  0.25450  0.99470  Biso   1.000  H
  C25      1.0000 0.88310  0.72940  0.14635  Biso   1.000  C
  C26      1.0000 0.11690  0.27060  0.85365  Biso   1.000  C
  C27      1.0000 0.88480  0.77190  0.23593  Biso   1.000  C
  C28      1.0000 0.11520  0.22810  0.76407  Biso   1.000  C
  H11      1.0000 0.79400  0.73680  0.29030  Biso   1.000  H
  H12      1.0000 0.20600  0.26320  0.70970  Biso   1.000  H
