data_image0
_cell_length_a       10.5455
_cell_length_b       10.5455
_cell_length_c       33.728
_cell_angle_alpha    90
_cell_angle_beta     90
_cell_angle_gamma    120

_symmetry_space_group_name_H-M    "P 1"
_symmetry_int_tables_number       1

loop_
  _symmetry_equiv_pos_as_xyz
  'x, y, z'

loop_
  _atom_site_label
  _atom_site_occupancy
  _atom_site_fract_x
  _atom_site_fract_y
  _atom_site_fract_z
  _atom_site_thermal_displace_type
  _atom_site_B_iso_or_equiv
  _atom_site_type_symbol
  Cu1      1.0000 0.00000  0.00000  0.50000  Biso   1.000  Cu
  Cu2      1.0000 0.66667  0.33333  0.83333  Biso   1.000  Cu
  Cu3      1.0000 0.33333  0.66667  0.16667  Biso   1.000  Cu
  Cl1      1.0000 0.33330  0.66670  0.45984  Biso   1.000  Cl
  Cl2      1.0000 0.99997  0.00003  0.79317  Biso   1.000  Cl
  Cl3      1.0000 0.66663  0.33337  0.12651  Biso   1.000  Cl
  Cl4      1.0000 0.66670  0.33330  0.54016  Biso   1.000  Cl
  Cl5      1.0000 0.33337  0.66663  0.87349  Biso   1.000  Cl
  Cl6      1.0000 0.00003  0.99997  0.20683  Biso   1.000  Cl
  S1       1.0000 0.94592  0.59055  0.43361  Biso   1.000  S
  S2       1.0000 0.40945  0.35537  0.43361  Biso   1.000  S
  S3       1.0000 0.64463  0.05408  0.43361  Biso   1.000  S
  S4       1.0000 0.61259  0.92388  0.76694  Biso   1.000  S
  S5       1.0000 0.07612  0.68870  0.76694  Biso   1.000  S
  S6       1.0000 0.31130  0.38741  0.76694  Biso   1.000  S
  S7       1.0000 0.27925  0.25722  0.10028  Biso   1.000  S
  S8       1.0000 0.74278  0.02204  0.10028  Biso   1.000  S
  S9       1.0000 0.97796  0.72075  0.10028  Biso   1.000  S
  S10      1.0000 0.05408  0.40945  0.56639  Biso   1.000  S
  S11      1.0000 0.59055  0.64463  0.56639  Biso   1.000  S
  S12      1.0000 0.35537  0.94592  0.56639  Biso   1.000  S
  S13      1.0000 0.72075  0.74278  0.89972  Biso   1.000  S
  S14      1.0000 0.25722  0.97796  0.89972  Biso   1.000  S
  S15      1.0000 0.02204  0.27925  0.89972  Biso   1.000  S
  S16      1.0000 0.38741  0.07612  0.23306  Biso   1.000  S
  S17      1.0000 0.92388  0.31130  0.23306  Biso   1.000  S
  S18      1.0000 0.68870  0.61259  0.23306  Biso   1.000  S
  S19      1.0000 0.71904  0.56831  0.37580  Biso   1.000  S
  S20      1.0000 0.43169  0.15073  0.37580  Biso   1.000  S
  S21      1.0000 0.84927  0.28096  0.37580  Biso   1.000  S
  S22      1.0000 0.38571  0.90164  0.70913  Biso   1.000  S
  S23      1.0000 0.09836  0.48406  0.70913  Biso   1.000  S
  S24      1.0000 0.51594  0.61429  0.70913  Biso   1.000  S
  S25      1.0000 0.05237  0.23498  0.04247  Biso   1.000  S
  S26      1.0000 0.76502  0.81740  0.04247  Biso   1.000  S
  S27      1.0000 0.18260  0.94763  0.04247  Biso   1.000  S
  S28      1.0000 0.28096  0.43169  0.62420  Biso   1.000  S
  S29      1.0000 0.56831  0.84927  0.62420  Biso   1.000  S
  S30      1.0000 0.15073  0.71904  0.62420  Biso   1.000  S
  S31      1.0000 0.94763  0.76502  0.95753  Biso   1.000  S
  S32      1.0000 0.23498  0.18260  0.95753  Biso   1.000  S
  S33      1.0000 0.81740  0.05237  0.95753  Biso   1.000  S
  S34      1.0000 0.61429  0.09836  0.29087  Biso   1.000  S
  S35      1.0000 0.90164  0.51594  0.29087  Biso   1.000  S
  S36      1.0000 0.48406  0.38571  0.29087  Biso   1.000  S
  O1       1.0000 0.35990  0.80630  0.47130  Biso   1.000  O
  O2       1.0000 0.19370  0.55360  0.47130  Biso   1.000  O
  O3       1.0000 0.44640  0.64010  0.47130  Biso   1.000  O
  O4       1.0000 0.02657  0.13963  0.80463  Biso   1.000  O
  O5       1.0000 0.86037  0.88693  0.80463  Biso   1.000  O
  O6       1.0000 0.11307  0.97343  0.80463  Biso   1.000  O
  O7       1.0000 0.69323  0.47297  0.13797  Biso   1.000  O
  O8       1.0000 0.52703  0.22027  0.13797  Biso   1.000  O
  O9       1.0000 0.77973  0.30677  0.13797  Biso   1.000  O
  O10      1.0000 0.64010  0.19370  0.52870  Biso   1.000  O
  O11      1.0000 0.80630  0.44640  0.52870  Biso   1.000  O
  O12      1.0000 0.55360  0.35990  0.52870  Biso   1.000  O
  O13      1.0000 0.30677  0.52703  0.86203  Biso   1.000  O
  O14      1.0000 0.47297  0.77973  0.86203  Biso   1.000  O
  O15      1.0000 0.22027  0.69323  0.86203  Biso   1.000  O
  O16      1.0000 0.97343  0.86037  0.19537  Biso   1.000  O
  O17      1.0000 0.13963  0.11307  0.19537  Biso   1.000  O
  O18      1.0000 0.88693  0.02657  0.19537  Biso   1.000  O
  O19      1.0000 0.33330  0.66670  0.41650  Biso   1.000  O
  O20      1.0000 0.99997  0.00003  0.74983  Biso   1.000  O
  O21      1.0000 0.66663  0.33337  0.08317  Biso   1.000  O
  O22      1.0000 0.66670  0.33330  0.58350  Biso   1.000  O
  O23      1.0000 0.33337  0.66663  0.91683  Biso   1.000  O
  O24      1.0000 0.00003  0.99997  0.25017  Biso   1.000  O
  N1       1.0000 0.85190  0.77220  0.43379  Biso   1.000  N
  N2       1.0000 0.22780  0.07970  0.43379  Biso   1.000  N
  N3       1.0000 0.92030  0.14810  0.43379  Biso   1.000  N
  N4       1.0000 0.51857  0.10553  0.76712  Biso   1.000  N
  N5       1.0000 0.89447  0.41303  0.76712  Biso   1.000  N
  N6       1.0000 0.58697  0.48143  0.76712  Biso   1.000  N
  N7       1.0000 0.18523  0.43887  0.10046  Biso   1.000  N
  N8       1.0000 0.56113  0.74637  0.10046  Biso   1.000  N
  N9       1.0000 0.25363  0.81477  0.10046  Biso   1.000  N
  N10      1.0000 0.14810  0.22780  0.56621  Biso   1.000  N
  N11      1.0000 0.77220  0.92030  0.56621  Biso   1.000  N
  N12      1.0000 0.07970  0.85190  0.56621  Biso   1.000  N
  N13      1.0000 0.81477  0.56113  0.89954  Biso   1.000  N
  N14      1.0000 0.43887  0.25363  0.89954  Biso   1.000  N
  N15      1.0000 0.74637  0.18523  0.89954  Biso   1.000  N
  N16      1.0000 0.48143  0.89447  0.23288  Biso   1.000  N
  N17      1.0000 0.10553  0.58697  0.23288  Biso   1.000  N
  N18      1.0000 0.41303  0.51857  0.23288  Biso   1.000  N
  N19      1.0000 0.95370  0.81330  0.46412  Biso   1.000  N
  N20      1.0000 0.18670  0.14040  0.46412  Biso   1.000  N
  N21      1.0000 0.85960  0.04630  0.46412  Biso   1.000  N
  N22      1.0000 0.62037  0.14663  0.79745  Biso   1.000  N
  N23      1.0000 0.85337  0.47373  0.79745  Biso   1.000  N
  N24      1.0000 0.52627  0.37963  0.79745  Biso   1.000  N
  N25      1.0000 0.28703  0.47997  0.13079  Biso   1.000  N
  N26      1.0000 0.52003  0.80707  0.13079  Biso   1.000  N
  N27      1.0000 0.19293  0.71297  0.13079  Biso   1.000  N
  N28      1.0000 0.04630  0.18670  0.53588  Biso   1.000  N
  N29      1.0000 0.81330  0.85960  0.53588  Biso   1.000  N
  N30      1.0000 0.14040  0.95370  0.53588  Biso   1.000  N
  N31      1.0000 0.71297  0.52003  0.86921  Biso   1.000  N
  N32      1.0000 0.47997  0.19293  0.86921  Biso   1.000  N
  N33      1.0000 0.80707  0.28703  0.86921  Biso   1.000  N
  N34      1.0000 0.37963  0.85337  0.20255  Biso   1.000  N
  N35      1.0000 0.14663  0.52627  0.20255  Biso   1.000  N
  N36      1.0000 0.47373  0.62037  0.20255  Biso   1.000  N
  C1       1.0000 0.00990  0.73000  0.46704  Biso   1.000  C
  C2       1.0000 0.27000  0.27990  0.46704  Biso   1.000  C
  C3       1.0000 0.72010  0.99010  0.46704  Biso   1.000  C
  C4       1.0000 0.67657  0.06333  0.80037  Biso   1.000  C
  C5       1.0000 0.93667  0.61323  0.80037  Biso   1.000  C
  C6       1.0000 0.38677  0.32343  0.80037  Biso   1.000  C
  C7       1.0000 0.34323  0.39667  0.13371  Biso   1.000  C
  C8       1.0000 0.60333  0.94657  0.13371  Biso   1.000  C
  C9       1.0000 0.05343  0.65677  0.13371  Biso   1.000  C
  C10      1.0000 0.99010  0.27000  0.53296  Biso   1.000  C
  C11      1.0000 0.73000  0.72010  0.53296  Biso   1.000  C
  C12      1.0000 0.27990  0.00990  0.53296  Biso   1.000  C
  C13      1.0000 0.65677  0.60333  0.86629  Biso   1.000  C
  C14      1.0000 0.39667  0.05343  0.86629  Biso   1.000  C
  C15      1.0000 0.94657  0.34323  0.86629  Biso   1.000  C
  C16      1.0000 0.32343  0.93667  0.19963  Biso   1.000  C
  C17      1.0000 0.06333  0.38677  0.19963  Biso   1.000  C
  C18      1.0000 0.61323  0.67657  0.19963  Biso   1.000  C
  H1       1.0000 0.08020  0.74480  0.48600  Biso   1.000  H
  H2       1.0000 0.25520  0.33540  0.48600  Biso   1.000  H
  H3       1.0000 0.66460  0.91980  0.48600  Biso   1.000  H
  H4       1.0000 0.74687  0.07813  0.81933  Biso   1.000  H
  H5       1.0000 0.92187  0.66873  0.81933  Biso   1.000  H
  H6       1.0000 0.33127  0.25313  0.81933  Biso   1.000  H
  H7       1.0000 0.41353  0.41147  0.15267  Biso   1.000  H
  H8       1.0000 0.58853  0.00207  0.15267  Biso   1.000  H
  H9       1.0000 0.99793  0.58647  0.15267  Biso   1.000  H
  H10      1.0000 0.91980  0.25520  0.51400  Biso   1.000  H
  H11      1.0000 0.74480  0.66460  0.51400  Biso   1.000  H
  H12      1.0000 0.33540  0.08020  0.51400  Biso   1.000  H
  H13      1.0000 0.58647  0.58853  0.84733  Biso   1.000  H
  H14      1.0000 0.41147  0.99793  0.84733  Biso   1.000  H
  H15      1.0000 0.00207  0.41353  0.84733  Biso   1.000  H
  H16      1.0000 0.25313  0.92187  0.18067  Biso   1.000  H
  H17      1.0000 0.07813  0.33127  0.18067  Biso   1.000  H
  H18      1.0000 0.66873  0.74687  0.18067  Biso   1.000  H
  C19      1.0000 0.83660  0.65700  0.41560  Biso   1.000  C
  C20      1.0000 0.34300  0.17960  0.41560  Biso   1.000  C
  C21      1.0000 0.82040  0.16340  0.41560  Biso   1.000  C
  C22      1.0000 0.50327  0.99033  0.74893  Biso   1.000  C
  C23      1.0000 0.00967  0.51293  0.74893  Biso   1.000  C
  C24      1.0000 0.48707  0.49673  0.74893  Biso   1.000  C
  C25      1.0000 0.16993  0.32367  0.08227  Biso   1.000  C
  C26      1.0000 0.67633  0.84627  0.08227  Biso   1.000  C
  C27      1.0000 0.15373  0.83007  0.08227  Biso   1.000  C
  C28      1.0000 0.16340  0.34300  0.58440  Biso   1.000  C
  C29      1.0000 0.65700  0.82040  0.58440  Biso   1.000  C
  C30      1.0000 0.17960  0.83660  0.58440  Biso   1.000  C
  C31      1.0000 0.83007  0.67633  0.91773  Biso   1.000  C
  C32      1.0000 0.32367  0.15373  0.91773  Biso   1.000  C
  C33      1.0000 0.84627  0.16993  0.91773  Biso   1.000  C
  C34      1.0000 0.49673  0.00967  0.25107  Biso   1.000  C
  C35      1.0000 0.99033  0.48707  0.25107  Biso   1.000  C
  C36      1.0000 0.51293  0.50327  0.25107  Biso   1.000  C
  C37      1.0000 0.63290  0.67820  0.36973  Biso   1.000  C
  C38      1.0000 0.32180  0.95470  0.36973  Biso   1.000  C
  C39      1.0000 0.04530  0.36710  0.36973  Biso   1.000  C
  C40      1.0000 0.29957  0.01153  0.70306  Biso   1.000  C
  C41      1.0000 0.98847  0.28803  0.70306  Biso   1.000  C
  C42      1.0000 0.71197  0.70043  0.70306  Biso   1.000  C
  C43      1.0000 0.96623  0.34487  0.03640  Biso   1.000  C
  C44      1.0000 0.65513  0.62137  0.03640  Biso   1.000  C
  C45      1.0000 0.37863  0.03377  0.03640  Biso   1.000  C
  C46      1.0000 0.36710  0.32180  0.63027  Biso   1.000  C
  C47      1.0000 0.67820  0.04530  0.63027  Biso   1.000  C
  C48      1.0000 0.95470  0.63290  0.63027  Biso   1.000  C
  C49      1.0000 0.03377  0.65513  0.96360  Biso   1.000  C
  C50      1.0000 0.34487  0.37863  0.96360  Biso   1.000  C
  C51      1.0000 0.62137  0.96623  0.96360  Biso   1.000  C
  C52      1.0000 0.70043  0.98847  0.29694  Biso   1.000  C
  C53      1.0000 0.01153  0.71197  0.29694  Biso   1.000  C
  C54      1.0000 0.28803  0.29957  0.29694  Biso   1.000  C
  H19      1.0000 0.53230  0.61580  0.36130  Biso   1.000  H
  H20      1.0000 0.38420  0.91650  0.36130  Biso   1.000  H
  H21      1.0000 0.08350  0.46770  0.36130  Biso   1.000  H
  H22      1.0000 0.19897  0.94913  0.69463  Biso   1.000  H
  H23      1.0000 0.05087  0.24983  0.69463  Biso   1.000  H
  H24      1.0000 0.75017  0.80103  0.69463  Biso   1.000  H
  H25      1.0000 0.86563  0.28247  0.02797  Biso   1.000  H
  H26      1.0000 0.71753  0.58317  0.02797  Biso   1.000  H
  H27      1.0000 0.41683  0.13437  0.02797  Biso   1.000  H
  H28      1.0000 0.46770  0.38420  0.63870  Biso   1.000  H
  H29      1.0000 0.61580  0.08350  0.63870  Biso   1.000  H
  H30      1.0000 0.91650  0.53230  0.63870  Biso   1.000  H
  H31      1.0000 0.13437  0.71753  0.97203  Biso   1.000  H
  H32      1.0000 0.28247  0.41683  0.97203  Biso   1.000  H
  H33      1.0000 0.58317  0.86563  0.97203  Biso   1.000  H
  H34      1.0000 0.80103  0.05087  0.30537  Biso   1.000  H
  H35      1.0000 0.94913  0.75017  0.30537  Biso   1.000  H
  H36      1.0000 0.24983  0.19897  0.30537  Biso   1.000  H
  H37      1.0000 0.63130  0.72080  0.39510  Biso   1.000  H
  H38      1.0000 0.27920  0.91050  0.39510  Biso   1.000  H
  H39      1.0000 0.08950  0.36870  0.39510  Biso   1.000  H
  H40      1.0000 0.29797  0.05413  0.72843  Biso   1.000  H
  H41      1.0000 0.94587  0.24383  0.72843  Biso   1.000  H
  H42      1.0000 0.75617  0.70203  0.72843  Biso   1.000  H
  H43      1.0000 0.96463  0.38747  0.06177  Biso   1.000  H
  H44      1.0000 0.61253  0.57717  0.06177  Biso   1.000  H
  H45      1.0000 0.42283  0.03537  0.06177  Biso   1.000  H
  H46      1.0000 0.36870  0.27920  0.60490  Biso   1.000  H
  H47      1.0000 0.72080  0.08950  0.60490  Biso   1.000  H
  H48      1.0000 0.91050  0.63130  0.60490  Biso   1.000  H
  H49      1.0000 0.03537  0.61253  0.93823  Biso   1.000  H
  H50      1.0000 0.38747  0.42283  0.93823  Biso   1.000  H
  H51      1.0000 0.57717  0.96463  0.93823  Biso   1.000  H
  H52      1.0000 0.70203  0.94587  0.27157  Biso   1.000  H
  H53      1.0000 0.05413  0.75617  0.27157  Biso   1.000  H
  H54      1.0000 0.24383  0.29797  0.27157  Biso   1.000  H
  C55      1.0000 0.71190  0.80030  0.33947  Biso   1.000  C
  C56      1.0000 0.19970  0.91160  0.33947  Biso   1.000  C
  C57      1.0000 0.08840  0.28810  0.33947  Biso   1.000  C
  C58      1.0000 0.37857  0.13363  0.67280  Biso   1.000  C
  C59      1.0000 0.86637  0.24493  0.67280  Biso   1.000  C
  C60      1.0000 0.75507  0.62143  0.67280  Biso   1.000  C
  C61      1.0000 0.04523  0.46697  0.00614  Biso   1.000  C
  C62      1.0000 0.53303  0.57827  0.00614  Biso   1.000  C
  C63      1.0000 0.42173  0.95477  0.00614  Biso   1.000  C
  C64      1.0000 0.28810  0.19970  0.66053  Biso   1.000  C
  C65      1.0000 0.80030  0.08840  0.66053  Biso   1.000  C
  C66      1.0000 0.91160  0.71190  0.66053  Biso   1.000  C
  C67      1.0000 0.95477  0.53303  0.99386  Biso   1.000  C
  C68      1.0000 0.46697  0.42173  0.99386  Biso   1.000  C
  C69      1.0000 0.57827  0.04523  0.99386  Biso   1.000  C
  C70      1.0000 0.62143  0.86637  0.32720  Biso   1.000  C
  C71      1.0000 0.13363  0.75507  0.32720  Biso   1.000  C
  C72      1.0000 0.24493  0.37857  0.32720  Biso   1.000  C
  H55      1.0000 0.80320  0.87580  0.35080  Biso   1.000  H
  H56      1.0000 0.12420  0.92740  0.35080  Biso   1.000  H
  H57      1.0000 0.07260  0.19680  0.35080  Biso   1.000  H
  H58      1.0000 0.46987  0.20913  0.68413  Biso   1.000  H
  H59      1.0000 0.79087  0.26073  0.68413  Biso   1.000  H
  H60      1.0000 0.73927  0.53013  0.68413  Biso   1.000  H
  H61      1.0000 0.13653  0.54247  0.01747  Biso   1.000  H
  H62      1.0000 0.45753  0.59407  0.01747  Biso   1.000  H
  H63      1.0000 0.40593  0.86347  0.01747  Biso   1.000  H
  H64      1.0000 0.19680  0.12420  0.64920  Biso   1.000  H
  H65      1.0000 0.87580  0.07260  0.64920  Biso   1.000  H
  H66      1.0000 0.92740  0.80320  0.64920  Biso   1.000  H
  H67      1.0000 0.86347  0.45753  0.98253  Biso   1.000  H
  H68      1.0000 0.54247  0.40593  0.98253  Biso   1.000  H
  H69      1.0000 0.59407  0.13653  0.98253  Biso   1.000  H
  H70      1.0000 0.53013  0.79087  0.31587  Biso   1.000  H
  H71      1.0000 0.20913  0.73927  0.31587  Biso   1.000  H
  H72      1.0000 0.26073  0.46987  0.31587  Biso   1.000  H
  H73      1.0000 0.73510  0.76130  0.31630  Biso   1.000  H
  H74      1.0000 0.23870  0.97380  0.31630  Biso   1.000  H
  H75      1.0000 0.02620  0.26490  0.31630  Biso   1.000  H
  H76      1.0000 0.40177  0.09463  0.64963  Biso   1.000  H
  H77      1.0000 0.90537  0.30713  0.64963  Biso   1.000  H
  H78      1.0000 0.69287  0.59823  0.64963  Biso   1.000  H
  H79      1.0000 0.06843  0.42797  0.98297  Biso   1.000  H
  H80      1.0000 0.57203  0.64047  0.98297  Biso   1.000  H
  H81      1.0000 0.35953  0.93157  0.98297  Biso   1.000  H
  H82      1.0000 0.26490  0.23870  0.68370  Biso   1.000  H
  H83      1.0000 0.76130  0.02620  0.68370  Biso   1.000  H
  H84      1.0000 0.97380  0.73510  0.68370  Biso   1.000  H
  H85      1.0000 0.93157  0.57203  0.01703  Biso   1.000  H
  H86      1.0000 0.42797  0.35953  0.01703  Biso   1.000  H
  H87      1.0000 0.64047  0.06843  0.01703  Biso   1.000  H
  H88      1.0000 0.59823  0.90537  0.35037  Biso   1.000  H
  H89      1.0000 0.09463  0.69287  0.35037  Biso   1.000  H
  H90      1.0000 0.30713  0.40177  0.35037  Biso   1.000  H
