data_image0
_cell_length_a       5.712
_cell_length_b       8.741
_cell_length_c       27.1
_cell_angle_alpha    97.596
_cell_angle_beta     91.516
_cell_angle_gamma    100.966

_symmetry_space_group_name_H-M    "P 1"
_symmetry_int_tables_number       1

loop_
  _symmetry_equiv_pos_as_xyz
  'x, y, z'

loop_
  _atom_site_label
  _atom_site_occupancy
  _atom_site_fract_x
  _atom_site_fract_y
  _atom_site_fract_z
  _atom_site_thermal_displace_type
  _atom_site_B_iso_or_equiv
  _atom_site_type_symbol
  Cu1      1.0000 0.00000  0.50000  0.50000  Biso   1.000  Cu
  O1       1.0000 0.70680  0.58720  0.51077  Biso   1.000  O
  O2       1.0000 0.29320  0.41280  0.48923  Biso   1.000  O
  O3       1.0000 0.07930  0.51400  0.57127  Biso   1.000  O
  O4       1.0000 0.92070  0.48600  0.42873  Biso   1.000  O
  O5       1.0000 0.73540  0.25520  0.50049  Biso   1.000  O
  O6       1.0000 0.26460  0.74480  0.49951  Biso   1.000  O
  Cu2      1.0000 0.51574  0.42788  0.54647  Biso   1.000  Cu
  Cu3      1.0000 0.48426  0.57212  0.45353  Biso   1.000  Cu
  C1       1.0000 0.94880  0.51160  0.60810  Biso   1.000  C
  C2       1.0000 0.05120  0.48840  0.39190  Biso   1.000  C
  O7       1.0000 0.72220  0.48820  0.60564  Biso   1.000  O
  O8       1.0000 0.27780  0.51180  0.39436  Biso   1.000  O
  O9       1.0000 0.34500  0.24670  0.57675  Biso   1.000  O
  O10      1.0000 0.65500  0.75330  0.42325  Biso   1.000  O
  C3       1.0000 0.06670  0.53230  0.65910  Biso   1.000  C
  C4       1.0000 0.93330  0.46770  0.34090  Biso   1.000  C
  H1       1.0000 0.24030  0.54850  0.65660  Biso   1.000  H
  H2       1.0000 0.75970  0.45150  0.34340  Biso   1.000  H
  H3       1.0000 0.01170  0.43810  0.67480  Biso   1.000  H
  H4       1.0000 0.98830  0.56190  0.32520  Biso   1.000  H
  H5       1.0000 0.02550  0.62400  0.67930  Biso   1.000  H
  H6       1.0000 0.97450  0.37600  0.32070  Biso   1.000  H
  Cu4      1.0000 0.50000  0.00000  0.00000  Biso   1.000  Cu
  O11      1.0000 0.75970  0.25270  0.00673  Biso   1.000  O
  O12      1.0000 0.24030  0.74730  0.99327  Biso   1.000  O
  O13      1.0000 0.42370  0.00090  0.93010  Biso   1.000  O
  O14      1.0000 0.57630  0.99910  0.06990  Biso   1.000  O
  O15      1.0000 0.79330  0.91550  0.98623  Biso   1.000  O
  O16      1.0000 0.20670  0.08450  0.01377  Biso   1.000  O
  Cu5      1.0000 0.01334  0.90993  0.04284  Biso   1.000  Cu
  Cu6      1.0000 0.98666  0.09007  0.95716  Biso   1.000  Cu
  O17      1.0000 0.22120  0.94680  0.10257  Biso   1.000  O
  O18      1.0000 0.77880  0.05320  0.89743  Biso   1.000  O
  O19      1.0000 0.83240  0.72140  0.06580  Biso   1.000  O
  O20      1.0000 0.16760  0.27860  0.93420  Biso   1.000  O
  C5       1.0000 0.44290  0.98220  0.10580  Biso   1.000  C
  C6       1.0000 0.55710  0.01780  0.89420  Biso   1.000  C
  C7       1.0000 0.56640  0.00290  0.15680  Biso   1.000  C
  C8       1.0000 0.43360  0.99710  0.84320  Biso   1.000  C
  H7       1.0000 0.44670  0.98340  0.18170  Biso   1.000  H
  H8       1.0000 0.55330  0.01660  0.81830  Biso   1.000  H
  H9       1.0000 0.67410  0.92820  0.15720  Biso   1.000  H
  H10      1.0000 0.32590  0.07180  0.84280  Biso   1.000  H
  H11      1.0000 0.65840  0.11060  0.16470  Biso   1.000  H
  H12      1.0000 0.34160  0.88940  0.83530  Biso   1.000  H
  S1       1.0000 0.76360  0.98604  0.59081  Biso   1.000  S
  S2       1.0000 0.23640  0.01396  0.40919  Biso   1.000  S
  O21      1.0000 0.87760  0.14890  0.58817  Biso   1.000  O
  O22      1.0000 0.12240  0.85110  0.41183  Biso   1.000  O
  O23      1.0000 0.87290  0.87680  0.55935  Biso   1.000  O
  O24      1.0000 0.12710  0.12320  0.44065  Biso   1.000  O
  O25      1.0000 0.50440  0.96260  0.58159  Biso   1.000  O
  O26      1.0000 0.49560  0.03740  0.41841  Biso   1.000  O
  C9       1.0000 0.81280  0.95250  0.65300  Biso   1.000  C
  C10      1.0000 0.18720  0.04750  0.34700  Biso   1.000  C
  C11      1.0000 0.07160  0.97730  0.72440  Biso   1.000  C
  C12      1.0000 0.92840  0.02270  0.27560  Biso   1.000  C
  C13      1.0000 0.03240  0.00950  0.67720  Biso   1.000  C
  C14      1.0000 0.96760  0.99050  0.32280  Biso   1.000  C
  C15      1.0000 0.63650  0.86370  0.67560  Biso   1.000  C
  C16      1.0000 0.36350  0.13630  0.32440  Biso   1.000  C
  C17      1.0000 0.89340  0.88910  0.74790  Biso   1.000  C
  C18      1.0000 0.10660  0.11090  0.25210  Biso   1.000  C
  C19      1.0000 0.67810  0.83350  0.72360  Biso   1.000  C
  C20      1.0000 0.32190  0.16650  0.27640  Biso   1.000  C
  H13      1.0000 0.22350  0.01630  0.74130  Biso   1.000  H
  H14      1.0000 0.77650  0.98370  0.25870  Biso   1.000  H
  H15      1.0000 0.15580  0.07080  0.66140  Biso   1.000  H
  H16      1.0000 0.84420  0.92920  0.33860  Biso   1.000  H
  H17      1.0000 0.48570  0.82260  0.65850  Biso   1.000  H
  H18      1.0000 0.51430  0.17740  0.34150  Biso   1.000  H
  H19      1.0000 0.92150  0.86760  0.78080  Biso   1.000  H
  H20      1.0000 0.07850  0.13240  0.21920  Biso   1.000  H
  H21      1.0000 0.55410  0.77310  0.73960  Biso   1.000  H
  H22      1.0000 0.44590  0.22690  0.26040  Biso   1.000  H
  S3       1.0000 0.74900  0.52052  0.90286  Biso   1.000  S
  S4       1.0000 0.25100  0.47948  0.09714  Biso   1.000  S
  O27      1.0000 0.63150  0.39770  0.92975  Biso   1.000  O
  O28      1.0000 0.36850  0.60230  0.07025  Biso   1.000  O
  O29      1.0000 0.00890  0.53560  0.90761  Biso   1.000  O
  O30      1.0000 0.99110  0.46440  0.09239  Biso   1.000  O
  O31      1.0000 0.66750  0.66580  0.91503  Biso   1.000  O
  O32      1.0000 0.33250  0.33420  0.08497  Biso   1.000  O
  C21      1.0000 0.66300  0.45720  0.83880  Biso   1.000  C
  C22      1.0000 0.33700  0.54280  0.16120  Biso   1.000  C
  C23      1.0000 0.40070  0.44880  0.76910  Biso   1.000  C
  C24      1.0000 0.59930  0.55120  0.23090  Biso   1.000  C
  C25      1.0000 0.72360  0.31650  0.76060  Biso   1.000  C
  C26      1.0000 0.27640  0.68350  0.23940  Biso   1.000  C
  C27      1.0000 0.53200  0.36030  0.73980  Biso   1.000  C
  C28      1.0000 0.46800  0.63970  0.26020  Biso   1.000  C
  C29      1.0000 0.79110  0.36510  0.81050  Biso   1.000  C
  C30      1.0000 0.20890  0.63490  0.18950  Biso   1.000  C
  C31      1.0000 0.46600  0.49910  0.81860  Biso   1.000  C
  C32      1.0000 0.53400  0.50090  0.18140  Biso   1.000  C
  H23      1.0000 0.26270  0.47580  0.75490  Biso   1.000  H
  H24      1.0000 0.73730  0.52420  0.24510  Biso   1.000  H
  H25      1.0000 0.81190  0.25210  0.74070  Biso   1.000  H
  H26      1.0000 0.18810  0.74790  0.25930  Biso   1.000  H
  H27      1.0000 0.48920  0.32990  0.70530  Biso   1.000  H
  H28      1.0000 0.51080  0.67010  0.29470  Biso   1.000  H
  H29      1.0000 0.92540  0.33450  0.82500  Biso   1.000  H
  H30      1.0000 0.07460  0.66550  0.17500  Biso   1.000  H
  H31      1.0000 0.37590  0.56200  0.83860  Biso   1.000  H
  H32      1.0000 0.62410  0.43800  0.16140  Biso   1.000  H
