data_image0
_cell_length_a       9.523
_cell_length_b       14.45
_cell_length_c       20.41
_cell_angle_alpha    71.148
_cell_angle_beta     79.669
_cell_angle_gamma    76.292

_symmetry_space_group_name_H-M    "P 1"
_symmetry_int_tables_number       1

loop_
  _symmetry_equiv_pos_as_xyz
  'x, y, z'

loop_
  _atom_site_label
  _atom_site_occupancy
  _atom_site_fract_x
  _atom_site_fract_y
  _atom_site_fract_z
  _atom_site_thermal_displace_type
  _atom_site_B_iso_or_equiv
  _atom_site_type_symbol
  Cu1      1.0000 0.60461  0.90398  0.00167  Biso   1.000  Cu
  Cu2      1.0000 0.39539  0.09602  0.99833  Biso   1.000  Cu
  Cu3      1.0000 0.37423  0.88314  0.12732  Biso   1.000  Cu
  Cu4      1.0000 0.62577  0.11686  0.87268  Biso   1.000  Cu
  Cu5      1.0000 0.14538  0.85733  0.25296  Biso   1.000  Cu
  Cu6      1.0000 0.85462  0.14267  0.74704  Biso   1.000  Cu
  Cu7      1.0000 0.35527  0.66815  0.24869  Biso   1.000  Cu
  Cu8      1.0000 0.64473  0.33185  0.75131  Biso   1.000  Cu
  Cu9      1.0000 0.12503  0.63002  0.37394  Biso   1.000  Cu
  Cu10     1.0000 0.87497  0.36998  0.62606  Biso   1.000  Cu
  Cu11     1.0000 0.90133  0.59579  0.50270  Biso   1.000  Cu
  Cu12     1.0000 0.09867  0.40421  0.49730  Biso   1.000  Cu
  O1       1.0000 0.81580  0.85550  0.98830  Biso   1.000  O
  O2       1.0000 0.18420  0.14450  0.01170  Biso   1.000  O
  H1       1.0000 0.85900  0.83800  0.03050  Biso   1.000  H
  H2       1.0000 0.14100  0.16200  0.96950  Biso   1.000  H
  H3       1.0000 0.89400  0.87000  0.95200  Biso   1.000  H
  H4       1.0000 0.10600  0.13000  0.04800  Biso   1.000  H
  O3       1.0000 0.57700  0.77080  0.01510  Biso   1.000  O
  O4       1.0000 0.42300  0.22920  0.98490  Biso   1.000  O
  O5       1.0000 0.41900  0.75100  0.11330  Biso   1.000  O
  O6       1.0000 0.58100  0.24900  0.88670  Biso   1.000  O
  O7       1.0000 0.39550  0.95230  0.02600  Biso   1.000  O
  O8       1.0000 0.60450  0.04770  0.97400  Biso   1.000  O
  O9       1.0000 0.32760  0.01350  0.14180  Biso   1.000  O
  O10      1.0000 0.67240  0.98650  0.85820  Biso   1.000  O
  O11      1.0000 0.17180  0.99230  0.24020  Biso   1.000  O
  O12      1.0000 0.82820  0.00770  0.75980  Biso   1.000  O
  O13      1.0000 0.93410  0.90530  0.27050  Biso   1.000  O
  O14      1.0000 0.06590  0.09470  0.72950  Biso   1.000  O
  H5       1.0000 0.90500  0.91700  0.22570  Biso   1.000  H
  H6       1.0000 0.09500  0.08300  0.77430  Biso   1.000  H
  H7       1.0000 0.86300  0.87200  0.30200  Biso   1.000  H
  H8       1.0000 0.13700  0.12800  0.69800  Biso   1.000  H
  O15      1.0000 0.35460  0.81080  0.22830  Biso   1.000  O
  O16      1.0000 0.64540  0.18920  0.77170  Biso   1.000  O
  O17      1.0000 0.56660  0.61630  0.24000  Biso   1.000  O
  O18      1.0000 0.43340  0.38370  0.76000  Biso   1.000  O
  H9       1.0000 0.58360  0.64200  0.27500  Biso   1.000  H
  H10      1.0000 0.41640  0.35800  0.72500  Biso   1.000  H
  H11      1.0000 0.64460  0.63200  0.20420  Biso   1.000  H
  H12      1.0000 0.35540  0.36800  0.79580  Biso   1.000  H
  O19      1.0000 0.32530  0.54220  0.25010  Biso   1.000  O
  O20      1.0000 0.67470  0.45780  0.74990  Biso   1.000  O
  O21      1.0000 0.17060  0.50610  0.34820  Biso   1.000  O
  O22      1.0000 0.82940  0.49390  0.65180  Biso   1.000  O
  O23      1.0000 0.14420  0.71510  0.27460  Biso   1.000  O
  O24      1.0000 0.85580  0.28490  0.72540  Biso   1.000  O
  O25      1.0000 0.08170  0.75510  0.39810  Biso   1.000  O
  O26      1.0000 0.91830  0.24490  0.60190  Biso   1.000  O
  O27      1.0000 0.93870  0.72220  0.49970  Biso   1.000  O
  O28      1.0000 0.06130  0.27780  0.50030  Biso   1.000  O
  O29      1.0000 0.69010  0.64810  0.52080  Biso   1.000  O
  O30      1.0000 0.30990  0.35190  0.47920  Biso   1.000  O
  H13      1.0000 0.65200  0.64600  0.48100  Biso   1.000  H
  H14      1.0000 0.34800  0.35400  0.51900  Biso   1.000  H
  H15      1.0000 0.67500  0.71780  0.51600  Biso   1.000  H
  H16      1.0000 0.32500  0.28220  0.48400  Biso   1.000  H
  O31      1.0000 0.10610  0.54550  0.47380  Biso   1.000  O
  O32      1.0000 0.89390  0.45450  0.52620  Biso   1.000  O
  O33      1.0000 0.62350  0.88390  0.12000  Biso   1.000  O
  O34      1.0000 0.37650  0.11610  0.88000  Biso   1.000  O
  O35      1.0000 0.12440  0.88650  0.13460  Biso   1.000  O
  O36      1.0000 0.87560  0.11350  0.86540  Biso   1.000  O
  O37      1.0000 0.87860  0.62820  0.38410  Biso   1.000  O
  O38      1.0000 0.12140  0.37180  0.61590  Biso   1.000  O
  O39      1.0000 0.37270  0.63200  0.36900  Biso   1.000  O
  O40      1.0000 0.62730  0.36800  0.63100  Biso   1.000  O
  C1       1.0000 0.50170  0.72060  0.06490  Biso   1.000  C
  C2       1.0000 0.49830  0.27940  0.93510  Biso   1.000  C
  C3       1.0000 0.50670  0.61400  0.06940  Biso   1.000  C
  C4       1.0000 0.49330  0.38600  0.93060  Biso   1.000  C
  H17      1.0000 0.42210  0.59110  0.09990  Biso   1.000  H
  H18      1.0000 0.57790  0.40890  0.90010  Biso   1.000  H
  H19      1.0000 0.59600  0.57240  0.08840  Biso   1.000  H
  H20      1.0000 0.40400  0.42760  0.91160  Biso   1.000  H
  H21      1.0000 0.50530  0.60890  0.02270  Biso   1.000  H
  H22      1.0000 0.49470  0.39110  0.97730  Biso   1.000  H
  C5       1.0000 0.24790  0.04300  0.19110  Biso   1.000  C
  C6       1.0000 0.75210  0.95700  0.80890  Biso   1.000  C
  C7       1.0000 0.23910  0.15170  0.18570  Biso   1.000  C
  C8       1.0000 0.76090  0.84830  0.81430  Biso   1.000  C
  H23      1.0000 0.32300  0.15790  0.20460  Biso   1.000  H
  H24      1.0000 0.67700  0.84210  0.79540  Biso   1.000  H
  H25      1.0000 0.14920  0.17540  0.21240  Biso   1.000  H
  H26      1.0000 0.85080  0.82460  0.78760  Biso   1.000  H
  H27      1.0000 0.23940  0.19190  0.13680  Biso   1.000  H
  H28      1.0000 0.76060  0.80810  0.86320  Biso   1.000  H
  C9       1.0000 0.01450  0.77480  0.45370  Biso   1.000  C
  C10      1.0000 0.98550  0.22520  0.54630  Biso   1.000  C
  C11      1.0000 0.03400  0.87120  0.46120  Biso   1.000  C
  C12      1.0000 0.96600  0.12880  0.53880  Biso   1.000  C
  H29      1.0000 0.11820  0.89290  0.42960  Biso   1.000  H
  H30      1.0000 0.88180  0.10710  0.57040  Biso   1.000  H
  H31      1.0000 0.04990  0.86120  0.50930  Biso   1.000  H
  H32      1.0000 0.95010  0.13880  0.49070  Biso   1.000  H
  H33      1.0000 0.94660  0.92220  0.44940  Biso   1.000  H
  H34      1.0000 0.05340  0.07780  0.55060  Biso   1.000  H
  C13      1.0000 0.24000  0.48860  0.28880  Biso   1.000  C
  C14      1.0000 0.76000  0.51140  0.71120  Biso   1.000  C
  C15      1.0000 0.22600  0.39690  0.27410  Biso   1.000  C
  C16      1.0000 0.77400  0.60310  0.72590  Biso   1.000  C
  H35      1.0000 0.13620  0.40940  0.25320  Biso   1.000  H
  H36      1.0000 0.86380  0.59060  0.74680  Biso   1.000  H
  H37      1.0000 0.22400  0.34240  0.31770  Biso   1.000  H
  H38      1.0000 0.77600  0.65760  0.68230  Biso   1.000  H
  H39      1.0000 0.30960  0.37840  0.24190  Biso   1.000  H
  H40      1.0000 0.69040  0.62160  0.75810  Biso   1.000  H
  C17      1.0000 0.25200  0.48220  0.30550  Biso   1.000  C
  C18      1.0000 0.74800  0.51780  0.69450  Biso   1.000  C
  C19      1.0000 0.27100  0.38020  0.29600  Biso   1.000  C
  C20      1.0000 0.72900  0.61980  0.70400  Biso   1.000  C
  H41      1.0000 0.37270  0.35810  0.27940  Biso   1.000  H
  H42      1.0000 0.62730  0.64190  0.72060  Biso   1.000  H
  H43      1.0000 0.20820  0.38340  0.26190  Biso   1.000  H
  H44      1.0000 0.79180  0.61660  0.73810  Biso   1.000  H
  H45      1.0000 0.24440  0.33280  0.34070  Biso   1.000  H
  H46      1.0000 0.75560  0.66720  0.65930  Biso   1.000  H
  S1       1.0000 0.18890  0.90833  0.89118  Biso   1.000  S
  S2       1.0000 0.81110  0.09167  0.10882  Biso   1.000  S
  O41      1.0000 0.23000  0.88780  0.95960  Biso   1.000  O
  O42      1.0000 0.77000  0.11220  0.04040  Biso   1.000  O
  O43      1.0000 0.03150  0.92150  0.89020  Biso   1.000  O
  O44      1.0000 0.96850  0.07850  0.10980  Biso   1.000  O
  O45      1.0000 0.24440  0.99120  0.83900  Biso   1.000  O
  O46      1.0000 0.75560  0.00880  0.16100  Biso   1.000  O
  C21      1.0000 0.27000  0.79930  0.86280  Biso   1.000  C
  C22      1.0000 0.73000  0.20070  0.13720  Biso   1.000  C
  C23      1.0000 0.39960  0.74470  0.88520  Biso   1.000  C
  C24      1.0000 0.60040  0.25530  0.11480  Biso   1.000  C
  H47      1.0000 0.44470  0.76280  0.91590  Biso   1.000  H
  H48      1.0000 0.55530  0.23720  0.08410  Biso   1.000  H
  C25      1.0000 0.46490  0.66190  0.86220  Biso   1.000  C
  C26      1.0000 0.53510  0.33810  0.13780  Biso   1.000  C
  H49      1.0000 0.55500  0.62260  0.87710  Biso   1.000  H
  H50      1.0000 0.44500  0.37740  0.12290  Biso   1.000  H
  C27      1.0000 0.39630  0.63770  0.81710  Biso   1.000  C
  C28      1.0000 0.60370  0.36230  0.18290  Biso   1.000  C
  H51      1.0000 0.44040  0.58150  0.80120  Biso   1.000  H
  H52      1.0000 0.55960  0.41850  0.19880  Biso   1.000  H
  C29      1.0000 0.26380  0.69420  0.79480  Biso   1.000  C
  C30      1.0000 0.73620  0.30580  0.20520  Biso   1.000  C
  H53      1.0000 0.21630  0.67640  0.76480  Biso   1.000  H
  H54      1.0000 0.78370  0.32360  0.23520  Biso   1.000  H
  C31      1.0000 0.20290  0.77740  0.81790  Biso   1.000  C
  C32      1.0000 0.79710  0.22260  0.18210  Biso   1.000  C
  H55      1.0000 0.11470  0.81890  0.80210  Biso   1.000  H
  H56      1.0000 0.88530  0.18110  0.19790  Biso   1.000  H
  S3       1.0000 0.57840  0.83392  0.35839  Biso   1.000  S
  S4       1.0000 0.42160  0.16608  0.64161  Biso   1.000  S
  O47      1.0000 0.56120  0.84320  0.28680  Biso   1.000  O
  O48      1.0000 0.43880  0.15680  0.71320  Biso   1.000  O
  O49      1.0000 0.73020  0.82210  0.36790  Biso   1.000  O
  O50      1.0000 0.26980  0.17790  0.63210  Biso   1.000  O
  O51      1.0000 0.51220  0.75610  0.41080  Biso   1.000  O
  O52      1.0000 0.48780  0.24390  0.58920  Biso   1.000  O
  C33      1.0000 0.48840  0.94950  0.37350  Biso   1.000  C
  C34      1.0000 0.51160  0.05050  0.62650  Biso   1.000  C
  C35      1.0000 0.50050  0.03690  0.32190  Biso   1.000  C
  C36      1.0000 0.49950  0.96310  0.67810  Biso   1.000  C
  H57      1.0000 0.55260  0.03530  0.27790  Biso   1.000  H
  H58      1.0000 0.44740  0.96470  0.72210  Biso   1.000  H
  C37      1.0000 0.43820  0.12600  0.33360  Biso   1.000  C
  C38      1.0000 0.56180  0.87400  0.66640  Biso   1.000  C
  H59      1.0000 0.44520  0.18660  0.29780  Biso   1.000  H
  H60      1.0000 0.55480  0.81340  0.70220  Biso   1.000  H
  C39      1.0000 0.36360  0.12670  0.39900  Biso   1.000  C
  C40      1.0000 0.63640  0.87330  0.60100  Biso   1.000  C
  H61      1.0000 0.32140  0.18870  0.40770  Biso   1.000  H
  H62      1.0000 0.67860  0.81130  0.59230  Biso   1.000  H
  C41      1.0000 0.35040  0.04220  0.44950  Biso   1.000  C
  C42      1.0000 0.64960  0.95780  0.55050  Biso   1.000  C
  H63      1.0000 0.29910  0.04330  0.49370  Biso   1.000  H
  H64      1.0000 0.70090  0.95670  0.50630  Biso   1.000  H
  C43      1.0000 0.41500  0.95130  0.43520  Biso   1.000  C
  C44      1.0000 0.58500  0.04870  0.56480  Biso   1.000  C
  H65      1.0000 0.40590  0.89030  0.47030  Biso   1.000  H
  H66      1.0000 0.59410  0.10970  0.52970  Biso   1.000  H
  S5       1.0000 0.33010  0.57602  0.60038  Biso   1.000  S
  S6       1.0000 0.66990  0.42398  0.39962  Biso   1.000  S
  O53      1.0000 0.31150  0.58950  0.52930  Biso   1.000  O
  O54      1.0000 0.68850  0.41050  0.47070  Biso   1.000  O
  O55      1.0000 0.48070  0.56490  0.61090  Biso   1.000  O
  O56      1.0000 0.51930  0.43510  0.38910  Biso   1.000  O
  O57      1.0000 0.26670  0.49560  0.65040  Biso   1.000  O
  O58      1.0000 0.73330  0.50440  0.34960  Biso   1.000  O
  C45      1.0000 0.23560  0.68780  0.61980  Biso   1.000  C
  C46      1.0000 0.76440  0.31220  0.38020  Biso   1.000  C
  C47      1.0000 0.30700  0.76460  0.61150  Biso   1.000  C
  C48      1.0000 0.69300  0.23540  0.38850  Biso   1.000  C
  H67      1.0000 0.40830  0.75760  0.59650  Biso   1.000  H
  H68      1.0000 0.59170  0.24240  0.40350  Biso   1.000  H
  C49      1.0000 0.22910  0.85230  0.62520  Biso   1.000  C
  C50      1.0000 0.77090  0.14770  0.37480  Biso   1.000  C
  H69      1.0000 0.27690  0.90600  0.61810  Biso   1.000  H
  H70      1.0000 0.72310  0.09400  0.38190  Biso   1.000  H
  C51      1.0000 0.08260  0.86150  0.64910  Biso   1.000  C
  C52      1.0000 0.91740  0.13850  0.35090  Biso   1.000  C
  H71      1.0000 0.03060  0.92030  0.66020  Biso   1.000  H
  H72      1.0000 0.96940  0.07970  0.33980  Biso   1.000  H
  C53      1.0000 0.01090  0.78290  0.65690  Biso   1.000  C
  C54      1.0000 0.98910  0.21710  0.34310  Biso   1.000  C
  H73      1.0000 0.90980  0.78920  0.67220  Biso   1.000  H
  H74      1.0000 0.09020  0.21080  0.32780  Biso   1.000  H
  C55      1.0000 0.08890  0.69610  0.64220  Biso   1.000  C
  C56      1.0000 0.91110  0.30390  0.35780  Biso   1.000  C
  H75      1.0000 0.04130  0.64280  0.64750  Biso   1.000  H
  H76      1.0000 0.95870  0.35720  0.35250  Biso   1.000  H
  S7       1.0000 0.93080  0.67945  0.14452  Biso   1.000  S
  S8       1.0000 0.06920  0.32055  0.85548  Biso   1.000  S
  O59      1.0000 0.98200  0.77040  0.09900  Biso   1.000  O
  O60      1.0000 0.01800  0.22960  0.90100  Biso   1.000  O
  O61      1.0000 0.77550  0.68850  0.14210  Biso   1.000  O
  O62      1.0000 0.22450  0.31150  0.85790  Biso   1.000  O
  O63      1.0000 0.97180  0.64850  0.21410  Biso   1.000  O
  O64      1.0000 0.02820  0.35150  0.78590  Biso   1.000  O
  C57      1.0000 0.02000  0.58500  0.10650  Biso   1.000  C
  C58      1.0000 0.98000  0.41500  0.89350  Biso   1.000  C
  C59      1.0000 0.12420  0.60110  0.05150  Biso   1.000  C
  C60      1.0000 0.87580  0.39890  0.94850  Biso   1.000  C
  H77      1.0000 0.15000  0.66490  0.03270  Biso   1.000  H
  H78      1.0000 0.85000  0.33510  0.96730  Biso   1.000  H
  C61      1.0000 0.19280  0.52610  0.02280  Biso   1.000  C
  C62      1.0000 0.80720  0.47390  0.97720  Biso   1.000  C
  H79      1.0000 0.26450  0.53880  0.98380  Biso   1.000  H
  H80      1.0000 0.73550  0.46120  0.01620  Biso   1.000  H
  C63      1.0000 0.15820  0.43100  0.05010  Biso   1.000  C
  C64      1.0000 0.84180  0.56900  0.94990  Biso   1.000  C
  H81      1.0000 0.20960  0.37810  0.03190  Biso   1.000  H
  H82      1.0000 0.79040  0.62190  0.96810  Biso   1.000  H
  C65      1.0000 0.04770  0.41560  0.10430  Biso   1.000  C
  C66      1.0000 0.95230  0.58440  0.89570  Biso   1.000  C
  H83      1.0000 0.01750  0.35320  0.12150  Biso   1.000  H
  H84      1.0000 0.98250  0.64680  0.87850  Biso   1.000  H
  C67      1.0000 0.98130  0.49150  0.13340  Biso   1.000  C
  C68      1.0000 0.01870  0.50850  0.86660  Biso   1.000  C
  H85      1.0000 0.90870  0.47980  0.17210  Biso   1.000  H
  H86      1.0000 0.09130  0.52020  0.82790  Biso   1.000  H
