data_image0
_cell_length_a       15.944
_cell_length_b       7.361
_cell_length_c       9.693
_cell_angle_alpha    90
_cell_angle_beta     106.172
_cell_angle_gamma    90

_symmetry_space_group_name_H-M    "P 1"
_symmetry_int_tables_number       1

loop_
  _symmetry_equiv_pos_as_xyz
  'x, y, z'

loop_
  _atom_site_label
  _atom_site_occupancy
  _atom_site_fract_x
  _atom_site_fract_y
  _atom_site_fract_z
  _atom_site_thermal_displace_type
  _atom_site_B_iso_or_equiv
  _atom_site_type_symbol
  Cu1      1.0000 0.87404  0.50230  0.23367  Biso   1.000  Cu
  Cu2      1.0000 0.12596  0.00230  0.26633  Biso   1.000  Cu
  Cu3      1.0000 0.12596  0.49770  0.76633  Biso   1.000  Cu
  Cu4      1.0000 0.87404  0.99770  0.73367  Biso   1.000  Cu
  Cl1      1.0000 0.48020  0.62890  0.66311  Biso   1.000  Cl
  Cl2      1.0000 0.51980  0.12890  0.83689  Biso   1.000  Cl
  Cl3      1.0000 0.51980  0.37110  0.33689  Biso   1.000  Cl
  Cl4      1.0000 0.48020  0.87110  0.16311  Biso   1.000  Cl
  O1       1.0000 0.91274  0.62971  0.42265  Biso   1.000  O
  O2       1.0000 0.08726  0.12971  0.07735  Biso   1.000  O
  O3       1.0000 0.08726  0.37029  0.57735  Biso   1.000  O
  O4       1.0000 0.91274  0.87029  0.92265  Biso   1.000  O
  O5       1.0000 0.82085  0.40413  0.04311  Biso   1.000  O
  O6       1.0000 0.17915  0.90413  0.45689  Biso   1.000  O
  O7       1.0000 0.17915  0.59587  0.95689  Biso   1.000  O
  O8       1.0000 0.82085  0.09587  0.54311  Biso   1.000  O
  N1       1.0000 0.75986  0.52390  0.26721  Biso   1.000  N
  N2       1.0000 0.24014  0.02390  0.23279  Biso   1.000  N
  N3       1.0000 0.24014  0.47610  0.73279  Biso   1.000  N
  N4       1.0000 0.75986  0.97610  0.76721  Biso   1.000  N
  C1       1.0000 0.64514  0.49840  0.72060  Biso   1.000  C
  C2       1.0000 0.35486  0.99840  0.77940  Biso   1.000  C
  C3       1.0000 0.35486  0.50160  0.27940  Biso   1.000  C
  C4       1.0000 0.64514  0.00160  0.22060  Biso   1.000  C
  H1       1.0000 0.63440  0.48870  0.62150  Biso   1.000  H
  H2       1.0000 0.36560  0.98870  0.87850  Biso   1.000  H
  H3       1.0000 0.36560  0.51130  0.37850  Biso   1.000  H
  H4       1.0000 0.63440  0.01130  0.12150  Biso   1.000  H
  C5       1.0000 0.85567  0.63340  0.49320  Biso   1.000  C
  C6       1.0000 0.14433  0.13340  0.00680  Biso   1.000  C
  C7       1.0000 0.14433  0.36660  0.50680  Biso   1.000  C
  C8       1.0000 0.85567  0.86660  0.99320  Biso   1.000  C
  C9       1.0000 0.68745  0.54400  0.17100  Biso   1.000  C
  C10      1.0000 0.31255  0.04400  0.32900  Biso   1.000  C
  C11      1.0000 0.31255  0.45600  0.82900  Biso   1.000  C
  C12      1.0000 0.68745  0.95600  0.67100  Biso   1.000  C
  H5       1.0000 0.63860  0.57380  0.20100  Biso   1.000  H
  H6       1.0000 0.36140  0.07380  0.29900  Biso   1.000  H
  H7       1.0000 0.36140  0.42620  0.79900  Biso   1.000  H
  H8       1.0000 0.63860  0.92620  0.70100  Biso   1.000  H
  C13      1.0000 0.72572  0.44660  0.81120  Biso   1.000  C
  C14      1.0000 0.27428  0.94660  0.68880  Biso   1.000  C
  C15      1.0000 0.27428  0.55340  0.18880  Biso   1.000  C
  C16      1.0000 0.72572  0.05340  0.31120  Biso   1.000  C
  H9       1.0000 0.76870  0.40450  0.77130  Biso   1.000  H
  H10      1.0000 0.23130  0.90450  0.72870  Biso   1.000  H
  H11      1.0000 0.23130  0.59550  0.22870  Biso   1.000  H
  H12      1.0000 0.76870  0.09550  0.27130  Biso   1.000  H
  C17      1.0000 0.76660  0.55380  0.41890  Biso   1.000  C
  C18      1.0000 0.23340  0.05380  0.08110  Biso   1.000  C
  C19      1.0000 0.23340  0.44620  0.58110  Biso   1.000  C
  C20      1.0000 0.76660  0.94620  0.91890  Biso   1.000  C
  H13      1.0000 0.75900  0.43970  0.46390  Biso   1.000  H
  H14      1.0000 0.24100  0.93970  0.03610  Biso   1.000  H
  H15      1.0000 0.24100  0.56030  0.53610  Biso   1.000  H
  H16      1.0000 0.75900  0.06030  0.96390  Biso   1.000  H
  H17      1.0000 0.72110  0.63670  0.42800  Biso   1.000  H
  H18      1.0000 0.27890  0.13670  0.07200  Biso   1.000  H
  H19      1.0000 0.27890  0.36330  0.57200  Biso   1.000  H
  H20      1.0000 0.72110  0.86330  0.92800  Biso   1.000  H
  C21      1.0000 0.58143  0.56410  0.77830  Biso   1.000  C
  C22      1.0000 0.41857  0.06410  0.72170  Biso   1.000  C
  C23      1.0000 0.41857  0.43590  0.22170  Biso   1.000  C
  C24      1.0000 0.58143  0.93590  0.27830  Biso   1.000  C
  C25      1.0000 0.59559  0.57610  0.92390  Biso   1.000  C
  C26      1.0000 0.40441  0.07610  0.57610  Biso   1.000  C
  C27      1.0000 0.40441  0.42390  0.07610  Biso   1.000  C
  C28      1.0000 0.59559  0.92390  0.42390  Biso   1.000  C
  H21      1.0000 0.55160  0.61960  0.96090  Biso   1.000  H
  H22      1.0000 0.44840  0.11960  0.53910  Biso   1.000  H
  H23      1.0000 0.44840  0.38040  0.03910  Biso   1.000  H
  H24      1.0000 0.55160  0.88040  0.46090  Biso   1.000  H
  C29      1.0000 0.74388  0.45610  0.96190  Biso   1.000  C
  C30      1.0000 0.25612  0.95610  0.53810  Biso   1.000  C
  C31      1.0000 0.25612  0.54390  0.03810  Biso   1.000  C
  C32      1.0000 0.74388  0.04390  0.46190  Biso   1.000  C
  C33      1.0000 0.67594  0.52330  0.01790  Biso   1.000  C
  C34      1.0000 0.32406  0.02330  0.48210  Biso   1.000  C
  C35      1.0000 0.32406  0.47670  0.98210  Biso   1.000  C
  C36      1.0000 0.67594  0.97670  0.51790  Biso   1.000  C
  O9       1.0000 0.98896  0.47240  0.20479  Biso   1.000  O
  O10      1.0000 0.01104  0.97240  0.29521  Biso   1.000  O
  O11      1.0000 0.01104  0.52760  0.79521  Biso   1.000  O
  O12      1.0000 0.98896  0.02760  0.70479  Biso   1.000  O
  O13      1.0000 0.86900  0.69024  0.61772  Biso   1.000  O
  O14      1.0000 0.13100  0.19024  0.88228  Biso   1.000  O
  O15      1.0000 0.13100  0.30976  0.38228  Biso   1.000  O
  O16      1.0000 0.86900  0.80976  0.11772  Biso   1.000  O
  O17      1.0000 0.93047  0.23470  0.40070  Biso   1.000  O
  O18      1.0000 0.06953  0.73470  0.09930  Biso   1.000  O
  O19      1.0000 0.06953  0.76530  0.59930  Biso   1.000  O
  O20      1.0000 0.93047  0.26530  0.90070  Biso   1.000  O
  H25      1.0000 0.97260  0.26100  0.46000  Biso   1.000  H
  H26      1.0000 0.02740  0.76100  0.04000  Biso   1.000  H
  H27      1.0000 0.02740  0.73900  0.54000  Biso   1.000  H
  H28      1.0000 0.97260  0.23900  0.96000  Biso   1.000  H
  H29      1.0000 0.02700  0.42500  0.24900  Biso   1.000  H
  H30      1.0000 0.97300  0.92500  0.25100  Biso   1.000  H
  H31      1.0000 0.97300  0.57500  0.75100  Biso   1.000  H
  H32      1.0000 0.02700  0.07500  0.74900  Biso   1.000  H
  H33      1.0000 0.89870  0.19300  0.44500  Biso   1.000  H
  H34      1.0000 0.10130  0.69300  0.05500  Biso   1.000  H
  H35      1.0000 0.10130  0.80700  0.55500  Biso   1.000  H
  H36      1.0000 0.89870  0.30700  0.94500  Biso   1.000  H
  H37      1.0000 0.00890  0.54600  0.16800  Biso   1.000  H
  H38      1.0000 0.99110  0.04600  0.33200  Biso   1.000  H
  H39      1.0000 0.99110  0.45400  0.83200  Biso   1.000  H
  H40      1.0000 0.00890  0.95400  0.66800  Biso   1.000  H
