data_image0
_cell_length_a       10.217
_cell_length_b       10.53
_cell_length_c       13.012
_cell_angle_alpha    102.523
_cell_angle_beta     111.915
_cell_angle_gamma    99.646

_symmetry_space_group_name_H-M    "P 1"
_symmetry_int_tables_number       1

loop_
  _symmetry_equiv_pos_as_xyz
  'x, y, z'

loop_
  _atom_site_label
  _atom_site_occupancy
  _atom_site_fract_x
  _atom_site_fract_y
  _atom_site_fract_z
  _atom_site_thermal_displace_type
  _atom_site_B_iso_or_equiv
  _atom_site_type_symbol
  Cu1      1.0000 0.40139  0.16541  0.55492  Biso   1.000  Cu
  Cu2      1.0000 0.59861  0.83459  0.44508  Biso   1.000  Cu
  O1       1.0000 0.21380  0.17560  0.56703  Biso   1.000  O
  O2       1.0000 0.78620  0.82440  0.43297  Biso   1.000  O
  O3       1.0000 0.69950  0.05700  0.54260  Biso   1.000  O
  O4       1.0000 0.30050  0.94300  0.45740  Biso   1.000  O
  O5       1.0000 0.33830  0.39240  0.63410  Biso   1.000  O
  O6       1.0000 0.66170  0.60760  0.36590  Biso   1.000  O
  N1       1.0000 0.49210  0.13890  0.71160  Biso   1.000  N
  N2       1.0000 0.50790  0.86110  0.28840  Biso   1.000  N
  C1       1.0000 0.83930  0.28080  0.58410  Biso   1.000  C
  C2       1.0000 0.16070  0.71920  0.41590  Biso   1.000  C
  N3       1.0000 0.32160  0.21010  0.40310  Biso   1.000  N
  N4       1.0000 0.67840  0.78990  0.59690  Biso   1.000  N
  O7       1.0000 0.59650  0.22570  0.56150  Biso   1.000  O
  O8       1.0000 0.40350  0.77430  0.43850  Biso   1.000  O
  C3       1.0000 0.22450  0.30080  0.60250  Biso   1.000  C
  C4       1.0000 0.77550  0.69920  0.39750  Biso   1.000  C
  C5       1.0000 0.96240  0.24260  0.58150  Biso   1.000  C
  C6       1.0000 0.03760  0.75740  0.41850  Biso   1.000  C
  H1       1.0000 0.95930  0.15150  0.56300  Biso   1.000  H
  H2       1.0000 0.04070  0.84850  0.43700  Biso   1.000  H
  C7       1.0000 0.08960  0.33900  0.60610  Biso   1.000  C
  C8       1.0000 0.91040  0.66100  0.39390  Biso   1.000  C
  C9       1.0000 0.84610  0.41710  0.61010  Biso   1.000  C
  C10      1.0000 0.15390  0.58290  0.38990  Biso   1.000  C
  H3       1.0000 0.76390  0.44390  0.61010  Biso   1.000  H
  H4       1.0000 0.23610  0.55610  0.38990  Biso   1.000  H
  C11      1.0000 0.70160  0.17740  0.56090  Biso   1.000  C
  C12      1.0000 0.29840  0.82260  0.43910  Biso   1.000  C
  C13      1.0000 0.62210  0.09940  0.92960  Biso   1.000  C
  C14      1.0000 0.37790  0.90060  0.07040  Biso   1.000  C
  O9       1.0000 0.43790  0.56750  0.86010  Biso   1.000  O
  O10      1.0000 0.56210  0.43250  0.13990  Biso   1.000  O
  N5       1.0000 0.24980  0.38840  0.06450  Biso   1.000  N
  N6       1.0000 0.75020  0.61160  0.93550  Biso   1.000  N
  C15      1.0000 0.09370  0.47470  0.63360  Biso   1.000  C
  C16      1.0000 0.90630  0.52530  0.36640  Biso   1.000  C
  H5       1.0000 0.17870  0.53980  0.65060  Biso   1.000  H
  H6       1.0000 0.82130  0.46020  0.34940  Biso   1.000  H
  C17      1.0000 0.60550  0.00920  0.82900  Biso   1.000  C
  C18      1.0000 0.39450  0.99080  0.17100  Biso   1.000  C
  H7       1.0000 0.63720  0.93180  0.83170  Biso   1.000  H
  H8       1.0000 0.36280  0.06820  0.16830  Biso   1.000  H
  C19      1.0000 0.20870  0.27780  0.19670  Biso   1.000  C
  C20      1.0000 0.79130  0.72220  0.80330  Biso   1.000  C
  C21      1.0000 0.15030  0.31300  0.08660  Biso   1.000  C
  C22      1.0000 0.84970  0.68700  0.91340  Biso   1.000  C
  C23      1.0000 0.68940  0.07540  0.04500  Biso   1.000  C
  C24      1.0000 0.31060  0.92460  0.95500  Biso   1.000  C
  C25      1.0000 0.34260  0.35220  0.28720  Biso   1.000  C
  C26      1.0000 0.65740  0.64780  0.71280  Biso   1.000  C
  H9       1.0000 0.39750  0.42710  0.28040  Biso   1.000  H
  H10      1.0000 0.60250  0.57290  0.71960  Biso   1.000  H
  C27      1.0000 0.97220  0.51390  0.63590  Biso   1.000  C
  C28      1.0000 0.02780  0.48610  0.36410  Biso   1.000  C
  H11      1.0000 0.97540  0.60510  0.65470  Biso   1.000  H
  H12      1.0000 0.02460  0.39490  0.34530  Biso   1.000  H
  C29      1.0000 0.57190  0.21220  0.91760  Biso   1.000  C
  C30      1.0000 0.42810  0.78780  0.08240  Biso   1.000  C
  H13      1.0000 0.58090  0.27730  0.98270  Biso   1.000  H
  H14      1.0000 0.41910  0.72270  0.01730  Biso   1.000  H
  C31      1.0000 0.19170  0.13910  0.31730  Biso   1.000  C
  C32      1.0000 0.80830  0.86090  0.68270  Biso   1.000  C
  H15      1.0000 0.13760  0.06610  0.32720  Biso   1.000  H
  H16      1.0000 0.86240  0.93390  0.67280  Biso   1.000  H
  N7       1.0000 0.73330  0.96340  0.04300  Biso   1.000  N
  N8       1.0000 0.26670  0.03660  0.95700  Biso   1.000  N
  C33      1.0000 0.80510  0.01640  0.24730  Biso   1.000  C
  C34      1.0000 0.19490  0.98360  0.75270  Biso   1.000  C
  H17      1.0000 0.84340  0.99260  0.31520  Biso   1.000  H
  H18      1.0000 0.15660  0.00740  0.68480  Biso   1.000  H
  C35      1.0000 0.13370  0.16880  0.21450  Biso   1.000  C
  C36      1.0000 0.86630  0.83120  0.78550  Biso   1.000  C
  H19      1.0000 0.04310  0.11510  0.15640  Biso   1.000  H
  H20      1.0000 0.95690  0.88490  0.84360  Biso   1.000  H
  C37      1.0000 0.54230  0.03320  0.72490  Biso   1.000  C
  C38      1.0000 0.45770  0.96680  0.27510  Biso   1.000  C
  H21      1.0000 0.53410  0.97060  0.65870  Biso   1.000  H
  H22      1.0000 0.46590  0.02940  0.34130  Biso   1.000  H
  C39      1.0000 0.39450  0.31610  0.38640  Biso   1.000  C
  C40      1.0000 0.60550  0.68390  0.61360  Biso   1.000  C
  H23      1.0000 0.48520  0.36780  0.44550  Biso   1.000  H
  H24      1.0000 0.51480  0.63220  0.55450  Biso   1.000  H
  C41      1.0000 0.70420  0.16380  0.14540  Biso   1.000  C
  C42      1.0000 0.29580  0.83620  0.85460  Biso   1.000  C
  H25      1.0000 0.67520  0.24280  0.14450  Biso   1.000  H
  H26      1.0000 0.32480  0.75720  0.85550  Biso   1.000  H
  C43      1.0000 0.78890  0.93650  0.14460  Biso   1.000  C
  C44      1.0000 0.21110  0.06350  0.85540  Biso   1.000  C
  H27      1.0000 0.81830  0.85740  0.14410  Biso   1.000  H
  H28      1.0000 0.18170  0.14260  0.85590  Biso   1.000  H
  C45      1.0000 0.00470  0.27120  0.01310  Biso   1.000  C
  C46      1.0000 0.99530  0.72880  0.98690  Biso   1.000  C
  H29      1.0000 0.93840  0.21820  0.03050  Biso   1.000  H
  H30      1.0000 0.06160  0.78180  0.96950  Biso   1.000  H
  C47      1.0000 0.50870  0.22730  0.80890  Biso   1.000  C
  C48      1.0000 0.49130  0.77270  0.19110  Biso   1.000  C
  H31      1.0000 0.47560  0.30370  0.80300  Biso   1.000  H
  H32      1.0000 0.52440  0.69630  0.19700  Biso   1.000  H
  C49      1.0000 0.20040  0.42220  0.96610  Biso   1.000  C
  C50      1.0000 0.79960  0.57780  0.03390  Biso   1.000  C
  H33      1.0000 0.26800  0.47400  0.94910  Biso   1.000  H
  H34      1.0000 0.73200  0.52600  0.05090  Biso   1.000  H
  C51      1.0000 0.76340  0.13290  0.24850  Biso   1.000  C
  C52      1.0000 0.23660  0.86710  0.75150  Biso   1.000  C
  H35      1.0000 0.77470  0.19120  0.31800  Biso   1.000  H
  H36      1.0000 0.22530  0.80880  0.68200  Biso   1.000  H
  C53      1.0000 0.95610  0.30840  0.91220  Biso   1.000  C
  C54      1.0000 0.04390  0.69160  0.08780  Biso   1.000  C
  H37      1.0000 0.85710  0.28160  0.86130  Biso   1.000  H
  H38      1.0000 0.14290  0.71840  0.13870  Biso   1.000  H
  C55      1.0000 0.05570  0.38430  0.88950  Biso   1.000  C
  C56      1.0000 0.94430  0.61570  0.11050  Biso   1.000  C
  H39      1.0000 0.02630  0.41070  0.82250  Biso   1.000  H
  H40      1.0000 0.97370  0.58930  0.17750  Biso   1.000  H
  H41      1.0000 0.53300  0.59000  0.88800  Biso   1.000  H
  H42      1.0000 0.46700  0.41000  0.11200  Biso   1.000  H
  H43      1.0000 0.41000  0.51200  0.78900  Biso   1.000  H
  H44      1.0000 0.59000  0.48800  0.21100  Biso   1.000  H
