data_image0
_cell_length_a       7.6775
_cell_length_b       15.528
_cell_length_c       14.045
_cell_angle_alpha    90
_cell_angle_beta     96.221
_cell_angle_gamma    90

_symmetry_space_group_name_H-M    "P 1"
_symmetry_int_tables_number       1

loop_
  _symmetry_equiv_pos_as_xyz
  'x, y, z'

loop_
  _atom_site_label
  _atom_site_occupancy
  _atom_site_fract_x
  _atom_site_fract_y
  _atom_site_fract_z
  _atom_site_thermal_displace_type
  _atom_site_B_iso_or_equiv
  _atom_site_type_symbol
  O1       1.0000 0.28300  0.30930  0.24960  Biso   1.000  O
  O2       1.0000 0.21700  0.80930  0.75040  Biso   1.000  O
  O3       1.0000 0.71700  0.69070  0.75040  Biso   1.000  O
  O4       1.0000 0.78300  0.19070  0.24960  Biso   1.000  O
  H1       1.0000 0.30610  0.25500  0.28710  Biso   1.000  H
  H2       1.0000 0.19390  0.75500  0.71290  Biso   1.000  H
  H3       1.0000 0.69390  0.74500  0.71290  Biso   1.000  H
  H4       1.0000 0.80610  0.24500  0.28710  Biso   1.000  H
  H5       1.0000 0.35460  0.33010  0.21880  Biso   1.000  H
  H6       1.0000 0.14540  0.83010  0.78120  Biso   1.000  H
  H7       1.0000 0.64540  0.66990  0.78120  Biso   1.000  H
  H8       1.0000 0.85460  0.16990  0.21880  Biso   1.000  H
  Cl1      1.0000 0.86840  0.42136  0.16419  Biso   1.000  Cl
  Cl2      1.0000 0.63160  0.92136  0.83581  Biso   1.000  Cl
  Cl3      1.0000 0.13160  0.57864  0.83581  Biso   1.000  Cl
  Cl4      1.0000 0.36840  0.07864  0.16419  Biso   1.000  Cl
  O5       1.0000 0.91360  0.48100  0.23750  Biso   1.000  O
  O6       1.0000 0.58640  0.98100  0.76250  Biso   1.000  O
  O7       1.0000 0.08640  0.51900  0.76250  Biso   1.000  O
  O8       1.0000 0.41360  0.01900  0.23750  Biso   1.000  O
  O9       1.0000 0.69100  0.39830  0.16110  Biso   1.000  O
  O10      1.0000 0.80900  0.89830  0.83890  Biso   1.000  O
  O11      1.0000 0.30900  0.60170  0.83890  Biso   1.000  O
  O12      1.0000 0.19100  0.10170  0.16110  Biso   1.000  O
  O13      1.0000 0.89940  0.46010  0.07630  Biso   1.000  O
  O14      1.0000 0.60060  0.96010  0.92370  Biso   1.000  O
  O15      1.0000 0.10060  0.53990  0.92370  Biso   1.000  O
  O16      1.0000 0.39940  0.03990  0.07630  Biso   1.000  O
  O17      1.0000 0.96330  0.34760  0.18030  Biso   1.000  O
  O18      1.0000 0.53670  0.84760  0.81970  Biso   1.000  O
  O19      1.0000 0.03670  0.65240  0.81970  Biso   1.000  O
  O20      1.0000 0.46330  0.15240  0.18030  Biso   1.000  O
  Cu1      1.0000 0.89737  0.80751  0.29799  Biso   1.000  Cu
  Cu2      1.0000 0.60263  0.30751  0.70201  Biso   1.000  Cu
  Cu3      1.0000 0.10263  0.19249  0.70201  Biso   1.000  Cu
  Cu4      1.0000 0.39737  0.69249  0.29799  Biso   1.000  Cu
  Cl5      1.0000 0.73730  0.68960  0.34092  Biso   1.000  Cl
  Cl6      1.0000 0.76270  0.18960  0.65908  Biso   1.000  Cl
  Cl7      1.0000 0.26270  0.31040  0.65908  Biso   1.000  Cl
  Cl8      1.0000 0.23730  0.81040  0.34092  Biso   1.000  Cl
  N1       1.0000 0.93000  0.76310  0.17200  Biso   1.000  N
  N2       1.0000 0.57000  0.26310  0.82800  Biso   1.000  N
  N3       1.0000 0.07000  0.23690  0.82800  Biso   1.000  N
  N4       1.0000 0.43000  0.73690  0.17200  Biso   1.000  N
  N5       1.0000 0.95190  0.67450  0.05230  Biso   1.000  N
  N6       1.0000 0.54810  0.17450  0.94770  Biso   1.000  N
  N7       1.0000 0.04810  0.32550  0.94770  Biso   1.000  N
  N8       1.0000 0.45190  0.82550  0.05230  Biso   1.000  N
  H9       1.0000 0.95290  0.62770  0.01960  Biso   1.000  H
  H10      1.0000 0.54710  0.12770  0.98040  Biso   1.000  H
  H11      1.0000 0.04710  0.37230  0.98040  Biso   1.000  H
  H12      1.0000 0.45290  0.87230  0.01960  Biso   1.000  H
  N9       1.0000 0.84100  0.92510  0.24280  Biso   1.000  N
  N10      1.0000 0.65900  0.42510  0.75720  Biso   1.000  N
  N11      1.0000 0.15900  0.07490  0.75720  Biso   1.000  N
  N12      1.0000 0.34100  0.57490  0.24280  Biso   1.000  N
  N13      1.0000 0.86900  0.87070  0.42310  Biso   1.000  N
  N14      1.0000 0.63100  0.37070  0.57690  Biso   1.000  N
  N15      1.0000 0.13100  0.12930  0.57690  Biso   1.000  N
  N16      1.0000 0.36900  0.62930  0.42310  Biso   1.000  N
  C1       1.0000 0.92480  0.68140  0.14370  Biso   1.000  C
  C2       1.0000 0.57520  0.18140  0.85630  Biso   1.000  C
  C3       1.0000 0.07520  0.31860  0.85630  Biso   1.000  C
  C4       1.0000 0.42480  0.81860  0.14370  Biso   1.000  C
  H13      1.0000 0.90460  0.63500  0.18290  Biso   1.000  H
  H14      1.0000 0.59540  0.13500  0.81710  Biso   1.000  H
  H15      1.0000 0.09540  0.36500  0.81710  Biso   1.000  H
  H16      1.0000 0.40460  0.86500  0.18290  Biso   1.000  H
  C5       1.0000 0.97790  0.75560  0.02020  Biso   1.000  C
  C6       1.0000 0.52210  0.25560  0.97980  Biso   1.000  C
  C7       1.0000 0.02210  0.24440  0.97980  Biso   1.000  C
  C8       1.0000 0.47790  0.74440  0.02020  Biso   1.000  C
  H17      1.0000 0.00070  0.77070  0.95860  Biso   1.000  H
  H18      1.0000 0.49930  0.27070  0.04140  Biso   1.000  H
  H19      1.0000 0.99930  0.22930  0.04140  Biso   1.000  H
  H20      1.0000 0.50070  0.72930  0.95860  Biso   1.000  H
  C9       1.0000 0.96460  0.80990  0.09320  Biso   1.000  C
  C10      1.0000 0.53540  0.30990  0.90680  Biso   1.000  C
  C11      1.0000 0.03540  0.19010  0.90680  Biso   1.000  C
  C12      1.0000 0.46460  0.69010  0.09320  Biso   1.000  C
  C13      1.0000 0.98620  0.90590  0.09890  Biso   1.000  C
  C14      1.0000 0.51380  0.40590  0.90110  Biso   1.000  C
  C15      1.0000 0.01380  0.09410  0.90110  Biso   1.000  C
  C16      1.0000 0.48620  0.59410  0.09890  Biso   1.000  C
  H21      1.0000 0.99040  0.92840  0.03470  Biso   1.000  H
  H22      1.0000 0.50960  0.42840  0.96530  Biso   1.000  H
  H23      1.0000 0.00960  0.07160  0.96530  Biso   1.000  H
  H24      1.0000 0.49040  0.57160  0.03470  Biso   1.000  H
  H25      1.0000 0.09720  0.91910  0.13580  Biso   1.000  H
  H26      1.0000 0.40280  0.41910  0.86420  Biso   1.000  H
  H27      1.0000 0.90280  0.08090  0.86420  Biso   1.000  H
  H28      1.0000 0.59720  0.58090  0.13580  Biso   1.000  H
  C17      1.0000 0.84180  0.95060  0.14380  Biso   1.000  C
  C18      1.0000 0.65820  0.45060  0.85620  Biso   1.000  C
  C19      1.0000 0.15820  0.04940  0.85620  Biso   1.000  C
  C20      1.0000 0.34180  0.54940  0.14380  Biso   1.000  C
  H29      1.0000 0.85760  0.01240  0.14030  Biso   1.000  H
  H30      1.0000 0.64240  0.51240  0.85970  Biso   1.000  H
  H31      1.0000 0.14240  0.98760  0.85970  Biso   1.000  H
  H32      1.0000 0.35760  0.48760  0.14030  Biso   1.000  H
  H33      1.0000 0.72980  0.93630  0.10850  Biso   1.000  H
  H34      1.0000 0.77020  0.43630  0.89150  Biso   1.000  H
  H35      1.0000 0.27020  0.06370  0.89150  Biso   1.000  H
  H36      1.0000 0.22980  0.56370  0.10850  Biso   1.000  H
  C21      1.0000 0.79910  0.97880  0.30410  Biso   1.000  C
  C22      1.0000 0.70090  0.47880  0.69590  Biso   1.000  C
  C23      1.0000 0.20090  0.02120  0.69590  Biso   1.000  C
  C24      1.0000 0.29910  0.52120  0.30410  Biso   1.000  C
  H37      1.0000 0.76810  0.03490  0.28640  Biso   1.000  H
  H38      1.0000 0.73190  0.53490  0.71360  Biso   1.000  H
  H39      1.0000 0.23190  0.96510  0.71360  Biso   1.000  H
  H40      1.0000 0.26810  0.46510  0.28640  Biso   1.000  H
  C25      1.0000 0.80060  0.95060  0.40390  Biso   1.000  C
  C26      1.0000 0.69940  0.45060  0.59610  Biso   1.000  C
  C27      1.0000 0.19940  0.04940  0.59610  Biso   1.000  C
  C28      1.0000 0.30060  0.54940  0.40390  Biso   1.000  C
  C29      1.0000 0.74860  0.00410  0.47510  Biso   1.000  C
  C30      1.0000 0.75140  0.50410  0.52490  Biso   1.000  C
  C31      1.0000 0.25140  0.99590  0.52490  Biso   1.000  C
  C32      1.0000 0.24860  0.49590  0.47510  Biso   1.000  C
  H41      1.0000 0.70450  0.05890  0.46070  Biso   1.000  H
  H42      1.0000 0.79550  0.55890  0.53930  Biso   1.000  H
  H43      1.0000 0.29550  0.94110  0.53930  Biso   1.000  H
  H44      1.0000 0.20450  0.44110  0.46070  Biso   1.000  H
  C33      1.0000 0.76470  0.97340  0.56710  Biso   1.000  C
  C34      1.0000 0.73530  0.47340  0.43290  Biso   1.000  C
  C35      1.0000 0.23530  0.02660  0.43290  Biso   1.000  C
  C36      1.0000 0.26470  0.52660  0.56710  Biso   1.000  C
  H45      1.0000 0.72570  0.00590  0.61620  Biso   1.000  H
  H46      1.0000 0.77430  0.50590  0.38380  Biso   1.000  H
  H47      1.0000 0.27430  0.99410  0.38380  Biso   1.000  H
  H48      1.0000 0.22570  0.49410  0.61620  Biso   1.000  H
  C37      1.0000 0.83840  0.89470  0.58570  Biso   1.000  C
  C38      1.0000 0.66160  0.39470  0.41430  Biso   1.000  C
  C39      1.0000 0.16160  0.10530  0.41430  Biso   1.000  C
  C40      1.0000 0.33840  0.60530  0.58570  Biso   1.000  C
  H49      1.0000 0.85400  0.87480  0.64850  Biso   1.000  H
  H50      1.0000 0.64600  0.37480  0.35150  Biso   1.000  H
  H51      1.0000 0.14600  0.12520  0.35150  Biso   1.000  H
  H52      1.0000 0.35400  0.62520  0.64850  Biso   1.000  H
  C41      1.0000 0.89050  0.84400  0.51350  Biso   1.000  C
  C42      1.0000 0.60950  0.34400  0.48650  Biso   1.000  C
  C43      1.0000 0.10950  0.15600  0.48650  Biso   1.000  C
  C44      1.0000 0.39050  0.65600  0.51350  Biso   1.000  C
  C45      1.0000 0.98010  0.75910  0.53600  Biso   1.000  C
  C46      1.0000 0.51990  0.25910  0.46400  Biso   1.000  C
  C47      1.0000 0.01990  0.24090  0.46400  Biso   1.000  C
  C48      1.0000 0.48010  0.74090  0.53600  Biso   1.000  C
  H53      1.0000 0.01940  0.73570  0.47880  Biso   1.000  H
  H54      1.0000 0.48060  0.23570  0.52120  Biso   1.000  H
  H55      1.0000 0.98060  0.26430  0.52120  Biso   1.000  H
  H56      1.0000 0.51940  0.76430  0.47880  Biso   1.000  H
  H57      1.0000 0.89940  0.71980  0.56050  Biso   1.000  H
  H58      1.0000 0.60060  0.21980  0.43950  Biso   1.000  H
  H59      1.0000 0.10060  0.28020  0.43950  Biso   1.000  H
  H60      1.0000 0.39940  0.78020  0.56050  Biso   1.000  H
  H61      1.0000 0.07890  0.76760  0.58310  Biso   1.000  H
  H62      1.0000 0.42110  0.26760  0.41690  Biso   1.000  H
  H63      1.0000 0.92110  0.23240  0.41690  Biso   1.000  H
  H64      1.0000 0.57890  0.73240  0.58310  Biso   1.000  H
