data_image0
_cell_length_a       13.368
_cell_length_b       7.891
_cell_length_c       20.48
_cell_angle_alpha    90
_cell_angle_beta     108.69
_cell_angle_gamma    90

_symmetry_space_group_name_H-M    "P 1"
_symmetry_int_tables_number       1

loop_
  _symmetry_equiv_pos_as_xyz
  'x, y, z'

loop_
  _atom_site_label
  _atom_site_occupancy
  _atom_site_fract_x
  _atom_site_fract_y
  _atom_site_fract_z
  _atom_site_thermal_displace_type
  _atom_site_B_iso_or_equiv
  _atom_site_type_symbol
  Cu1      1.0000 0.31733  0.13748  0.30750  Biso   1.000  Cu
  Cu2      1.0000 0.68267  0.63748  0.19250  Biso   1.000  Cu
  Cu3      1.0000 0.68267  0.86252  0.69250  Biso   1.000  Cu
  Cu4      1.0000 0.31733  0.36252  0.80750  Biso   1.000  Cu
  O1       1.0000 0.29270  0.25070  0.21831  Biso   1.000  O
  O2       1.0000 0.70730  0.75070  0.28169  Biso   1.000  O
  O3       1.0000 0.70730  0.74930  0.78169  Biso   1.000  O
  O4       1.0000 0.29270  0.24930  0.71831  Biso   1.000  O
  O5       1.0000 0.31980  0.46290  0.29279  Biso   1.000  O
  O6       1.0000 0.68020  0.96290  0.20721  Biso   1.000  O
  O7       1.0000 0.68020  0.53710  0.70721  Biso   1.000  O
  O8       1.0000 0.31980  0.03710  0.79279  Biso   1.000  O
  O9       1.0000 0.96350  0.10910  0.09366  Biso   1.000  O
  O10      1.0000 0.03650  0.60910  0.40634  Biso   1.000  O
  O11      1.0000 0.03650  0.89090  0.90634  Biso   1.000  O
  O12      1.0000 0.96350  0.39090  0.59366  Biso   1.000  O
  O13      1.0000 0.37110  0.58180  0.50825  Biso   1.000  O
  O14      1.0000 0.62890  0.08180  0.99175  Biso   1.000  O
  O15      1.0000 0.62890  0.41820  0.49175  Biso   1.000  O
  O16      1.0000 0.37110  0.91820  0.00825  Biso   1.000  O
  O17      1.0000 0.29580  0.86130  0.28289  Biso   1.000  O
  O18      1.0000 0.70420  0.36130  0.21711  Biso   1.000  O
  O19      1.0000 0.70420  0.13870  0.71711  Biso   1.000  O
  O20      1.0000 0.29580  0.63870  0.78289  Biso   1.000  O
  O21      1.0000 0.44480  0.77890  0.26628  Biso   1.000  O
  O22      1.0000 0.55520  0.27890  0.23372  Biso   1.000  O
  O23      1.0000 0.55520  0.22110  0.73372  Biso   1.000  O
  O24      1.0000 0.44480  0.72110  0.76628  Biso   1.000  O
  N1       1.0000 0.15910  0.14960  0.29372  Biso   1.000  N
  N2       1.0000 0.84090  0.64960  0.20628  Biso   1.000  N
  N3       1.0000 0.84090  0.85040  0.70628  Biso   1.000  N
  N4       1.0000 0.15910  0.35040  0.79372  Biso   1.000  N
  N5       1.0000 0.81610  0.12030  0.12200  Biso   1.000  N
  N6       1.0000 0.18390  0.62030  0.37800  Biso   1.000  N
  N7       1.0000 0.18390  0.87970  0.87800  Biso   1.000  N
  N8       1.0000 0.81610  0.37970  0.62200  Biso   1.000  N
  N9       1.0000 0.35520  0.12500  0.41018  Biso   1.000  N
  N10      1.0000 0.64480  0.62500  0.08982  Biso   1.000  N
  N11      1.0000 0.64480  0.87500  0.58982  Biso   1.000  N
  N12      1.0000 0.35520  0.37500  0.91018  Biso   1.000  N
  N13      1.0000 0.45440  0.47050  0.61300  Biso   1.000  N
  N14      1.0000 0.54560  0.97050  0.88700  Biso   1.000  N
  N15      1.0000 0.54560  0.52950  0.38700  Biso   1.000  N
  N16      1.0000 0.45440  0.02950  0.11300  Biso   1.000  N
  C1       1.0000 0.29500  0.40890  0.23280  Biso   1.000  C
  C2       1.0000 0.70500  0.90890  0.26720  Biso   1.000  C
  C3       1.0000 0.70500  0.59110  0.76720  Biso   1.000  C
  C4       1.0000 0.29500  0.09110  0.73280  Biso   1.000  C
  C5       1.0000 0.25880  0.53060  0.17390  Biso   1.000  C
  C6       1.0000 0.74120  0.03060  0.32610  Biso   1.000  C
  C7       1.0000 0.74120  0.46940  0.82610  Biso   1.000  C
  C8       1.0000 0.25880  0.96940  0.67390  Biso   1.000  C
  C9       1.0000 0.28000  0.70380  0.18280  Biso   1.000  C
  C10      1.0000 0.72000  0.20380  0.31720  Biso   1.000  C
  C11      1.0000 0.72000  0.29620  0.81720  Biso   1.000  C
  C12      1.0000 0.28000  0.79620  0.68280  Biso   1.000  C
  C13      1.0000 0.23720  0.81230  0.12820  Biso   1.000  C
  C14      1.0000 0.76280  0.31230  0.37180  Biso   1.000  C
  C15      1.0000 0.76280  0.18770  0.87180  Biso   1.000  C
  C16      1.0000 0.23720  0.68770  0.62820  Biso   1.000  C
  C17      1.0000 0.17480  0.75270  0.06480  Biso   1.000  C
  C18      1.0000 0.82520  0.25270  0.43520  Biso   1.000  C
  C19      1.0000 0.82520  0.24730  0.93520  Biso   1.000  C
  C20      1.0000 0.17480  0.74730  0.56480  Biso   1.000  C
  C21      1.0000 0.15380  0.58320  0.05580  Biso   1.000  C
  C22      1.0000 0.84620  0.08320  0.44420  Biso   1.000  C
  C23      1.0000 0.84620  0.41680  0.94420  Biso   1.000  C
  C24      1.0000 0.15380  0.91680  0.55580  Biso   1.000  C
  C25      1.0000 0.19570  0.47130  0.10940  Biso   1.000  C
  C26      1.0000 0.80430  0.97130  0.39060  Biso   1.000  C
  C27      1.0000 0.80430  0.52870  0.89060  Biso   1.000  C
  C28      1.0000 0.19570  0.02870  0.60940  Biso   1.000  C
  C29      1.0000 0.09280  0.13130  0.22860  Biso   1.000  C
  C30      1.0000 0.90720  0.63130  0.27140  Biso   1.000  C
  C31      1.0000 0.90720  0.86870  0.77140  Biso   1.000  C
  C32      1.0000 0.09280  0.36870  0.72860  Biso   1.000  C
  C33      1.0000 0.98440  0.14560  0.21140  Biso   1.000  C
  C34      1.0000 0.01560  0.64560  0.28860  Biso   1.000  C
  C35      1.0000 0.01560  0.85440  0.78860  Biso   1.000  C
  C36      1.0000 0.98440  0.35440  0.71140  Biso   1.000  C
  C37      1.0000 0.94250  0.17990  0.26290  Biso   1.000  C
  C38      1.0000 0.05750  0.67990  0.23710  Biso   1.000  C
  C39      1.0000 0.05750  0.82010  0.73710  Biso   1.000  C
  C40      1.0000 0.94250  0.32010  0.76290  Biso   1.000  C
  C41      1.0000 0.00900  0.19410  0.32960  Biso   1.000  C
  C42      1.0000 0.99100  0.69410  0.17040  Biso   1.000  C
  C43      1.0000 0.99100  0.80590  0.67040  Biso   1.000  C
  C44      1.0000 0.00900  0.30590  0.82960  Biso   1.000  C
  C45      1.0000 0.11570  0.17900  0.34290  Biso   1.000  C
  C46      1.0000 0.88430  0.67900  0.15710  Biso   1.000  C
  C47      1.0000 0.88430  0.82100  0.65710  Biso   1.000  C
  C48      1.0000 0.11570  0.32100  0.84290  Biso   1.000  C
  C49      1.0000 0.37150  0.27220  0.44420  Biso   1.000  C
  C50      1.0000 0.62850  0.77220  0.05580  Biso   1.000  C
  C51      1.0000 0.62850  0.72780  0.55580  Biso   1.000  C
  C52      1.0000 0.37150  0.22780  0.94420  Biso   1.000  C
  C53      1.0000 0.39180  0.28590  0.51490  Biso   1.000  C
  C54      1.0000 0.60820  0.78590  0.98510  Biso   1.000  C
  C55      1.0000 0.60820  0.71410  0.48510  Biso   1.000  C
  C56      1.0000 0.39180  0.21410  0.01490  Biso   1.000  C
  C57      1.0000 0.39280  0.13730  0.55080  Biso   1.000  C
  C58      1.0000 0.60720  0.63730  0.94920  Biso   1.000  C
  C59      1.0000 0.60720  0.86270  0.44920  Biso   1.000  C
  C60      1.0000 0.39280  0.36270  0.05080  Biso   1.000  C
  C61      1.0000 0.37700  0.98570  0.51700  Biso   1.000  C
  C62      1.0000 0.62300  0.48570  0.98300  Biso   1.000  C
  C63      1.0000 0.62300  0.01430  0.48300  Biso   1.000  C
  C64      1.0000 0.37700  0.51430  0.01700  Biso   1.000  C
  C65      1.0000 0.35840  0.98310  0.44730  Biso   1.000  C
  C66      1.0000 0.64160  0.48310  0.05270  Biso   1.000  C
  C67      1.0000 0.64160  0.01690  0.55270  Biso   1.000  C
  C68      1.0000 0.35840  0.51690  0.94730  Biso   1.000  C
  C69      1.0000 0.40520  0.45940  0.54520  Biso   1.000  C
  C70      1.0000 0.59480  0.95940  0.95480  Biso   1.000  C
  C71      1.0000 0.59480  0.54060  0.45480  Biso   1.000  C
  C72      1.0000 0.40520  0.04060  0.04520  Biso   1.000  C
  C73      1.0000 0.91950  0.12420  0.13700  Biso   1.000  C
  C74      1.0000 0.08050  0.62420  0.36300  Biso   1.000  C
  C75      1.0000 0.08050  0.87580  0.86300  Biso   1.000  C
  C76      1.0000 0.91950  0.37580  0.63700  Biso   1.000  C
  C77      1.0000 0.34560  0.78280  0.25020  Biso   1.000  C
  C78      1.0000 0.65440  0.28280  0.24980  Biso   1.000  C
  C79      1.0000 0.65440  0.21720  0.74980  Biso   1.000  C
  C80      1.0000 0.34560  0.71720  0.75020  Biso   1.000  C
  O25      1.0000 0.47060  0.10900  0.31570  Biso   1.000  O
  O26      1.0000 0.52940  0.60900  0.18430  Biso   1.000  O
  O27      1.0000 0.52940  0.89100  0.68430  Biso   1.000  O
  O28      1.0000 0.47060  0.39100  0.81570  Biso   1.000  O
  O29      1.0000 0.89990  0.83110  0.99840  Biso   1.000  O
  O30      1.0000 0.10010  0.33110  0.50160  Biso   1.000  O
  O31      1.0000 0.10010  0.16890  0.00160  Biso   1.000  O
  O32      1.0000 0.89990  0.66890  0.49840  Biso   1.000  O
  H1       1.0000 0.78800  0.10600  0.15100  Biso   1.000  H
  H2       1.0000 0.21200  0.60600  0.34900  Biso   1.000  H
  H3       1.0000 0.21200  0.89400  0.84900  Biso   1.000  H
  H4       1.0000 0.78800  0.39400  0.65100  Biso   1.000  H
  H5       1.0000 0.78400  0.09900  0.08400  Biso   1.000  H
  H6       1.0000 0.21600  0.59900  0.41600  Biso   1.000  H
  H7       1.0000 0.21600  0.90100  0.91600  Biso   1.000  H
  H8       1.0000 0.78400  0.40100  0.58400  Biso   1.000  H
  H9       1.0000 0.46500  0.56600  0.62300  Biso   1.000  H
  H10      1.0000 0.53500  0.06600  0.87700  Biso   1.000  H
  H11      1.0000 0.53500  0.43400  0.37700  Biso   1.000  H
  H12      1.0000 0.46500  0.93400  0.12300  Biso   1.000  H
  H13      1.0000 0.48400  0.39100  0.63800  Biso   1.000  H
  H14      1.0000 0.51600  0.89100  0.86200  Biso   1.000  H
  H15      1.0000 0.51600  0.60900  0.36200  Biso   1.000  H
  H16      1.0000 0.48400  0.10900  0.13800  Biso   1.000  H
  H17      1.0000 0.25300  0.92700  0.13000  Biso   1.000  H
  H18      1.0000 0.74700  0.42700  0.37000  Biso   1.000  H
  H19      1.0000 0.74700  0.07300  0.87000  Biso   1.000  H
  H20      1.0000 0.25300  0.57300  0.63000  Biso   1.000  H
  H21      1.0000 0.14500  0.82900  0.03000  Biso   1.000  H
  H22      1.0000 0.85500  0.32900  0.47000  Biso   1.000  H
  H23      1.0000 0.85500  0.17100  0.97000  Biso   1.000  H
  H24      1.0000 0.14500  0.67100  0.53000  Biso   1.000  H
  H25      1.0000 0.10900  0.54500  0.01600  Biso   1.000  H
  H26      1.0000 0.89100  0.04500  0.48400  Biso   1.000  H
  H27      1.0000 0.89100  0.45500  0.98400  Biso   1.000  H
  H28      1.0000 0.10900  0.95500  0.51600  Biso   1.000  H
  H29      1.0000 0.18300  0.35900  0.10500  Biso   1.000  H
  H30      1.0000 0.81700  0.85900  0.39500  Biso   1.000  H
  H31      1.0000 0.81700  0.64100  0.89500  Biso   1.000  H
  H32      1.0000 0.18300  0.14100  0.60500  Biso   1.000  H
  H33      1.0000 0.12500  0.11200  0.19600  Biso   1.000  H
  H34      1.0000 0.87500  0.61200  0.30400  Biso   1.000  H
  H35      1.0000 0.87500  0.88800  0.80400  Biso   1.000  H
  H36      1.0000 0.12500  0.38800  0.69600  Biso   1.000  H
  H37      1.0000 0.86700  0.19900  0.25300  Biso   1.000  H
  H38      1.0000 0.13300  0.69900  0.24700  Biso   1.000  H
  H39      1.0000 0.13300  0.80100  0.74700  Biso   1.000  H
  H40      1.0000 0.86700  0.30100  0.75300  Biso   1.000  H
  H41      1.0000 0.98000  0.21400  0.36500  Biso   1.000  H
  H42      1.0000 0.02000  0.71400  0.13500  Biso   1.000  H
  H43      1.0000 0.02000  0.78600  0.63500  Biso   1.000  H
  H44      1.0000 0.98000  0.28600  0.86500  Biso   1.000  H
  H45      1.0000 0.16500  0.19600  0.38600  Biso   1.000  H
  H46      1.0000 0.83500  0.69600  0.11400  Biso   1.000  H
  H47      1.0000 0.83500  0.80400  0.61400  Biso   1.000  H
  H48      1.0000 0.16500  0.30400  0.88600  Biso   1.000  H
  H49      1.0000 0.37400  0.36300  0.42040  Biso   1.000  H
  H50      1.0000 0.62600  0.86300  0.07960  Biso   1.000  H
  H51      1.0000 0.62600  0.63700  0.57960  Biso   1.000  H
  H52      1.0000 0.37400  0.13700  0.92040  Biso   1.000  H
  H53      1.0000 0.40500  0.14300  0.59600  Biso   1.000  H
  H54      1.0000 0.59500  0.64300  0.90400  Biso   1.000  H
  H55      1.0000 0.59500  0.85700  0.40400  Biso   1.000  H
  H56      1.0000 0.40500  0.35700  0.09600  Biso   1.000  H
  H57      1.0000 0.37900  0.88300  0.53800  Biso   1.000  H
  H58      1.0000 0.62100  0.38300  0.96200  Biso   1.000  H
  H59      1.0000 0.62100  0.11700  0.46200  Biso   1.000  H
  H60      1.0000 0.37900  0.61700  0.03800  Biso   1.000  H
  H61      1.0000 0.35200  0.88200  0.42200  Biso   1.000  H
  H62      1.0000 0.64800  0.38200  0.07800  Biso   1.000  H
  H63      1.0000 0.64800  0.11800  0.57800  Biso   1.000  H
  H64      1.0000 0.35200  0.61800  0.92200  Biso   1.000  H
  H65      1.0000 0.48300  0.15100  0.28200  Biso   1.000  H
  H66      1.0000 0.51700  0.65100  0.21800  Biso   1.000  H
  H67      1.0000 0.51700  0.84900  0.71800  Biso   1.000  H
  H68      1.0000 0.48300  0.34900  0.78200  Biso   1.000  H
  H69      1.0000 0.47400  0.02700  0.30900  Biso   1.000  H
  H70      1.0000 0.52600  0.52700  0.19100  Biso   1.000  H
  H71      1.0000 0.52600  0.97300  0.69100  Biso   1.000  H
  H72      1.0000 0.47400  0.47300  0.80900  Biso   1.000  H
  H73      1.0000 0.90610  0.92680  0.02050  Biso   1.000  H
  H74      1.0000 0.09390  0.42680  0.47950  Biso   1.000  H
  H75      1.0000 0.09390  0.07320  0.97950  Biso   1.000  H
  H76      1.0000 0.90610  0.57320  0.52050  Biso   1.000  H
  H77      1.0000 0.91710  0.88620  0.96790  Biso   1.000  H
  H78      1.0000 0.08290  0.38620  0.53210  Biso   1.000  H
  H79      1.0000 0.08290  0.11380  0.03210  Biso   1.000  H
  H80      1.0000 0.91710  0.61380  0.46790  Biso   1.000  H
