data_image0
_cell_length_a       8.388
_cell_length_b       26.571
_cell_length_c       8.325
_cell_angle_alpha    90
_cell_angle_beta     90
_cell_angle_gamma    90

_symmetry_space_group_name_H-M    "P 1"
_symmetry_int_tables_number       1

loop_
  _symmetry_equiv_pos_as_xyz
  'x, y, z'

loop_
  _atom_site_label
  _atom_site_occupancy
  _atom_site_fract_x
  _atom_site_fract_y
  _atom_site_fract_z
  _atom_site_thermal_displace_type
  _atom_site_B_iso_or_equiv
  _atom_site_type_symbol
  Ba1      1.0000 0.06454  0.22789  0.00381  Biso   1.000  Ba
  Ba2      1.0000 0.43546  0.77211  0.50381  Biso   1.000  Ba
  Ba3      1.0000 0.93546  0.72789  0.49619  Biso   1.000  Ba
  Ba4      1.0000 0.56454  0.27211  0.99619  Biso   1.000  Ba
  Cu1      1.0000 0.08351  0.14738  0.47281  Biso   1.000  Cu
  Cu2      1.0000 0.41649  0.85262  0.97281  Biso   1.000  Cu
  Cu3      1.0000 0.91649  0.64738  0.02719  Biso   1.000  Cu
  Cu4      1.0000 0.58351  0.35262  0.52719  Biso   1.000  Cu
  Cl1      1.0000 0.06046  0.07617  0.07478  Biso   1.000  Cl
  Cl2      1.0000 0.43954  0.92383  0.57478  Biso   1.000  Cl
  Cl3      1.0000 0.93954  0.57617  0.42522  Biso   1.000  Cl
  Cl4      1.0000 0.56046  0.42383  0.92522  Biso   1.000  Cl
  O1       1.0000 0.14250  0.19334  0.69830  Biso   1.000  O
  O2       1.0000 0.35750  0.80666  0.19830  Biso   1.000  O
  O3       1.0000 0.85750  0.69334  0.80170  Biso   1.000  O
  O4       1.0000 0.64250  0.30666  0.30170  Biso   1.000  O
  O5       1.0000 0.36160  0.21466  0.82940  Biso   1.000  O
  O6       1.0000 0.13840  0.78534  0.32940  Biso   1.000  O
  O7       1.0000 0.63840  0.71466  0.67060  Biso   1.000  O
  O8       1.0000 0.86160  0.28534  0.17060  Biso   1.000  O
  O9       1.0000 0.15360  0.20045  0.33040  Biso   1.000  O
  O10      1.0000 0.34640  0.79955  0.83040  Biso   1.000  O
  O11      1.0000 0.84640  0.70045  0.16960  Biso   1.000  O
  O12      1.0000 0.65360  0.29955  0.66960  Biso   1.000  O
  O13      1.0000 0.33460  0.24147  0.19730  Biso   1.000  O
  O14      1.0000 0.16540  0.75853  0.69730  Biso   1.000  O
  O15      1.0000 0.66540  0.74147  0.30270  Biso   1.000  O
  O16      1.0000 0.83460  0.25853  0.80270  Biso   1.000  O
  O17      1.0000 0.85940  0.15121  0.40820  Biso   1.000  O
  O18      1.0000 0.64060  0.84879  0.90820  Biso   1.000  O
  O19      1.0000 0.14060  0.65121  0.09180  Biso   1.000  O
  O20      1.0000 0.35940  0.34879  0.59180  Biso   1.000  O
  O21      1.0000 0.64000  0.10449  0.40270  Biso   1.000  O
  O22      1.0000 0.86000  0.89551  0.90270  Biso   1.000  O
  O23      1.0000 0.36000  0.60449  0.09730  Biso   1.000  O
  O24      1.0000 0.14000  0.39551  0.59730  Biso   1.000  O
  O25      1.0000 0.60810  0.04531  0.87470  Biso   1.000  O
  O26      1.0000 0.89190  0.95469  0.37470  Biso   1.000  O
  O27      1.0000 0.39190  0.54531  0.62530  Biso   1.000  O
  O28      1.0000 0.10810  0.45469  0.12530  Biso   1.000  O
  H1       1.0000 0.57290  0.06260  0.94820  Biso   1.000  H
  H2       1.0000 0.92710  0.93740  0.44820  Biso   1.000  H
  H3       1.0000 0.42710  0.56260  0.55180  Biso   1.000  H
  H4       1.0000 0.07290  0.43740  0.05180  Biso   1.000  H
  O29      1.0000 0.73660  0.11527  0.79910  Biso   1.000  O
  O30      1.0000 0.76340  0.88473  0.29910  Biso   1.000  O
  O31      1.0000 0.26340  0.61527  0.70090  Biso   1.000  O
  O32      1.0000 0.23660  0.38473  0.20090  Biso   1.000  O
  O33      1.0000 0.08920  0.12128  0.98610  Biso   1.000  O
  O34      1.0000 0.41080  0.87872  0.48610  Biso   1.000  O
  O35      1.0000 0.91080  0.62128  0.51390  Biso   1.000  O
  O36      1.0000 0.58920  0.37872  0.01390  Biso   1.000  O
  O37      1.0000 0.08990  0.03450  0.97570  Biso   1.000  O
  O38      1.0000 0.41010  0.96550  0.47570  Biso   1.000  O
  O39      1.0000 0.91010  0.53450  0.52430  Biso   1.000  O
  O40      1.0000 0.58990  0.46550  0.02430  Biso   1.000  O
  O41      1.0000 0.89940  0.07531  0.12880  Biso   1.000  O
  O42      1.0000 0.60060  0.92469  0.62880  Biso   1.000  O
  O43      1.0000 0.10060  0.57531  0.37120  Biso   1.000  O
  O44      1.0000 0.39940  0.42469  0.87120  Biso   1.000  O
  O45      1.0000 0.16330  0.07450  0.21100  Biso   1.000  O
  O46      1.0000 0.33670  0.92550  0.71100  Biso   1.000  O
  O47      1.0000 0.83670  0.57450  0.28900  Biso   1.000  O
  O48      1.0000 0.66330  0.42550  0.78900  Biso   1.000  O
  O49      1.0000 0.75300  0.18373  0.07390  Biso   1.000  O
  O50      1.0000 0.74700  0.81627  0.57390  Biso   1.000  O
  O51      1.0000 0.24700  0.68373  0.42610  Biso   1.000  O
  O52      1.0000 0.25300  0.31627  0.92610  Biso   1.000  O
  H5       1.0000 0.73140  0.15480  0.03620  Biso   1.000  H
  H6       1.0000 0.76860  0.84520  0.53620  Biso   1.000  H
  H7       1.0000 0.26860  0.65480  0.46380  Biso   1.000  H
  H8       1.0000 0.23140  0.34520  0.96380  Biso   1.000  H
  H9       1.0000 0.77500  0.17280  0.16720  Biso   1.000  H
  H10      1.0000 0.72500  0.82720  0.66720  Biso   1.000  H
  H11      1.0000 0.22500  0.67280  0.33280  Biso   1.000  H
  H12      1.0000 0.27500  0.32720  0.83280  Biso   1.000  H
  N1       1.0000 0.30890  0.12569  0.51940  Biso   1.000  N
  N2       1.0000 0.19110  0.87431  0.01940  Biso   1.000  N
  N3       1.0000 0.69110  0.62569  0.98060  Biso   1.000  N
  N4       1.0000 0.80890  0.37431  0.48060  Biso   1.000  N
  H13      1.0000 0.35630  0.11510  0.42700  Biso   1.000  H
  H14      1.0000 0.14370  0.88490  0.92700  Biso   1.000  H
  H15      1.0000 0.64370  0.61510  0.07300  Biso   1.000  H
  H16      1.0000 0.85630  0.38490  0.57300  Biso   1.000  H
  N5       1.0000 0.01740  0.08797  0.59770  Biso   1.000  N
  N6       1.0000 0.48260  0.91203  0.09770  Biso   1.000  N
  N7       1.0000 0.98260  0.58797  0.90230  Biso   1.000  N
  N8       1.0000 0.51740  0.41203  0.40230  Biso   1.000  N
  H17      1.0000 0.99670  0.09790  0.70020  Biso   1.000  H
  H18      1.0000 0.50330  0.90210  0.20020  Biso   1.000  H
  H19      1.0000 0.00330  0.59790  0.79980  Biso   1.000  H
  H20      1.0000 0.49670  0.40210  0.29980  Biso   1.000  H
  C1       1.0000 0.39270  0.17115  0.58110  Biso   1.000  C
  C2       1.0000 0.10730  0.82885  0.08110  Biso   1.000  C
  C3       1.0000 0.60730  0.67115  0.91890  Biso   1.000  C
  C4       1.0000 0.89270  0.32885  0.41890  Biso   1.000  C
  H21      1.0000 0.49530  0.16090  0.62680  Biso   1.000  H
  H22      1.0000 0.00470  0.83910  0.12680  Biso   1.000  H
  H23      1.0000 0.50470  0.66090  0.87320  Biso   1.000  H
  H24      1.0000 0.99530  0.33910  0.37320  Biso   1.000  H
  C5       1.0000 0.29200  0.19494  0.71260  Biso   1.000  C
  C6       1.0000 0.20800  0.80506  0.21260  Biso   1.000  C
  C7       1.0000 0.70800  0.69494  0.78740  Biso   1.000  C
  C8       1.0000 0.79200  0.30506  0.28740  Biso   1.000  C
  C9       1.0000 0.42300  0.20800  0.44290  Biso   1.000  C
  C10      1.0000 0.07700  0.79200  0.94290  Biso   1.000  C
  C11      1.0000 0.57700  0.70800  0.05710  Biso   1.000  C
  C12      1.0000 0.92300  0.29200  0.55710  Biso   1.000  C
  H25      1.0000 0.44850  0.24040  0.49030  Biso   1.000  H
  H26      1.0000 0.05150  0.75960  0.99030  Biso   1.000  H
  H27      1.0000 0.55150  0.74040  0.00970  Biso   1.000  H
  H28      1.0000 0.94850  0.25960  0.50970  Biso   1.000  H
  H29      1.0000 0.51790  0.19660  0.38700  Biso   1.000  H
  H30      1.0000 0.98210  0.80340  0.88700  Biso   1.000  H
  H31      1.0000 0.48210  0.69660  0.11300  Biso   1.000  H
  H32      1.0000 0.01790  0.30340  0.61300  Biso   1.000  H
  C13      1.0000 0.29550  0.21695  0.31730  Biso   1.000  C
  C14      1.0000 0.20450  0.78305  0.81730  Biso   1.000  C
  C15      1.0000 0.70450  0.71695  0.18270  Biso   1.000  C
  C16      1.0000 0.79550  0.28305  0.68270  Biso   1.000  C
  C17      1.0000 0.86820  0.06845  0.52670  Biso   1.000  C
  C18      1.0000 0.63180  0.93155  0.02670  Biso   1.000  C
  C19      1.0000 0.13180  0.56845  0.97330  Biso   1.000  C
  C20      1.0000 0.36820  0.43155  0.47330  Biso   1.000  C
  H33      1.0000 0.89930  0.04440  0.44320  Biso   1.000  H
  H34      1.0000 0.60070  0.95560  0.94320  Biso   1.000  H
  H35      1.0000 0.10070  0.54440  0.05680  Biso   1.000  H
  H36      1.0000 0.39930  0.45560  0.55680  Biso   1.000  H
  C21      1.0000 0.78070  0.11137  0.44180  Biso   1.000  C
  C22      1.0000 0.71930  0.88863  0.94180  Biso   1.000  C
  C23      1.0000 0.21930  0.61137  0.05820  Biso   1.000  C
  C24      1.0000 0.28070  0.38863  0.55820  Biso   1.000  C
  C25      1.0000 0.76520  0.03969  0.64610  Biso   1.000  C
  C26      1.0000 0.73480  0.96031  0.14610  Biso   1.000  C
  C27      1.0000 0.23480  0.53969  0.85390  Biso   1.000  C
  C28      1.0000 0.26520  0.46031  0.35390  Biso   1.000  C
  H37      1.0000 0.67560  0.02500  0.58920  Biso   1.000  H
  H38      1.0000 0.82440  0.97500  0.08920  Biso   1.000  H
  H39      1.0000 0.32440  0.52500  0.91080  Biso   1.000  H
  H40      1.0000 0.17560  0.47500  0.41080  Biso   1.000  H
  H41      1.0000 0.82740  0.01230  0.69090  Biso   1.000  H
  H42      1.0000 0.67260  0.98770  0.19090  Biso   1.000  H
  H43      1.0000 0.17260  0.51230  0.80910  Biso   1.000  H
  H44      1.0000 0.32740  0.48770  0.30910  Biso   1.000  H
  C29      1.0000 0.70330  0.07134  0.78000  Biso   1.000  C
  C30      1.0000 0.79670  0.92866  0.28000  Biso   1.000  C
  C31      1.0000 0.29670  0.57134  0.72000  Biso   1.000  C
  C32      1.0000 0.20330  0.42866  0.22000  Biso   1.000  C
  C33      1.0000 0.30180  0.08371  0.63530  Biso   1.000  C
  C34      1.0000 0.19820  0.91629  0.13530  Biso   1.000  C
  C35      1.0000 0.69820  0.58371  0.86470  Biso   1.000  C
  C36      1.0000 0.80180  0.41629  0.36470  Biso   1.000  C
  H45      1.0000 0.29780  0.09680  0.74410  Biso   1.000  H
  H46      1.0000 0.20220  0.90320  0.24410  Biso   1.000  H
  H47      1.0000 0.70220  0.59680  0.75590  Biso   1.000  H
  H48      1.0000 0.79780  0.40320  0.25590  Biso   1.000  H
  H49      1.0000 0.39610  0.06280  0.62510  Biso   1.000  H
  H50      1.0000 0.10390  0.93720  0.12510  Biso   1.000  H
  H51      1.0000 0.60390  0.56280  0.87490  Biso   1.000  H
  H52      1.0000 0.89610  0.43720  0.37490  Biso   1.000  H
  C37      1.0000 0.15330  0.05266  0.60100  Biso   1.000  C
  C38      1.0000 0.34670  0.94734  0.10100  Biso   1.000  C
  C39      1.0000 0.84670  0.55266  0.89900  Biso   1.000  C
  C40      1.0000 0.65330  0.44734  0.39900  Biso   1.000  C
  H53      1.0000 0.16340  0.03560  0.49840  Biso   1.000  H
  H54      1.0000 0.33660  0.96440  0.99840  Biso   1.000  H
  H55      1.0000 0.83660  0.53560  0.00160  Biso   1.000  H
  H56      1.0000 0.66340  0.46440  0.50160  Biso   1.000  H
  H57      1.0000 0.13800  0.02760  0.68410  Biso   1.000  H
  H58      1.0000 0.36200  0.97240  0.18410  Biso   1.000  H
  H59      1.0000 0.86200  0.52760  0.81590  Biso   1.000  H
  H60      1.0000 0.63800  0.47240  0.31590  Biso   1.000  H
  O53      1.0000 0.49700  0.10440  0.11800  Biso   1.000  O
  O54      1.0000 0.00300  0.89560  0.61800  Biso   1.000  O
  O55      1.0000 0.50300  0.60440  0.38200  Biso   1.000  O
  O56      1.0000 0.99700  0.39560  0.88200  Biso   1.000  O
  H61      1.0000 0.40390  0.08890  0.12400  Biso   1.000  H
  H62      1.0000 0.09610  0.91110  0.62400  Biso   1.000  H
  H63      1.0000 0.59610  0.58890  0.37600  Biso   1.000  H
  H64      1.0000 0.90390  0.41110  0.87600  Biso   1.000  H
  H65      1.0000 0.54450  0.10290  0.19860  Biso   1.000  H
  H66      1.0000 0.95550  0.89710  0.69860  Biso   1.000  H
  H67      1.0000 0.45550  0.60290  0.30140  Biso   1.000  H
  H68      1.0000 0.04450  0.39710  0.80140  Biso   1.000  H
  O57      1.0000 0.49300  0.08340  0.11800  Biso   1.000  O
  O58      1.0000 0.00700  0.91660  0.61800  Biso   1.000  O
  O59      1.0000 0.50700  0.58340  0.38200  Biso   1.000  O
  O60      1.0000 0.99300  0.41660  0.88200  Biso   1.000  O
