data_image0
_cell_length_a       17.092
_cell_length_b       9.528
_cell_length_c       9.512
_cell_angle_alpha    90
_cell_angle_beta     108.7
_cell_angle_gamma    90

_symmetry_space_group_name_H-M    "P 1"
_symmetry_int_tables_number       1

loop_
  _symmetry_equiv_pos_as_xyz
  'x, y, z'

loop_
  _atom_site_label
  _atom_site_occupancy
  _atom_site_fract_x
  _atom_site_fract_y
  _atom_site_fract_z
  _atom_site_thermal_displace_type
  _atom_site_B_iso_or_equiv
  _atom_site_type_symbol
  Cu1      1.0000 0.92645  0.04636  0.26690  Biso   1.000  Cu
  Cu2      1.0000 0.42645  0.54636  0.26690  Biso   1.000  Cu
  Cu3      1.0000 0.92645  0.95364  0.76690  Biso   1.000  Cu
  Cu4      1.0000 0.42645  0.45364  0.76690  Biso   1.000  Cu
  N1       1.0000 0.89740  0.02280  0.44840  Biso   1.000  N
  N2       1.0000 0.39740  0.52280  0.44840  Biso   1.000  N
  N3       1.0000 0.89740  0.97720  0.94840  Biso   1.000  N
  N4       1.0000 0.39740  0.47720  0.94840  Biso   1.000  N
  N5       1.0000 0.94500  0.94760  0.56930  Biso   1.000  N
  N6       1.0000 0.44500  0.44760  0.56930  Biso   1.000  N
  N7       1.0000 0.94500  0.05240  0.06930  Biso   1.000  N
  N8       1.0000 0.44500  0.55240  0.06930  Biso   1.000  N
  C1       1.0000 0.01430  0.89630  0.54890  Biso   1.000  C
  C2       1.0000 0.51430  0.39630  0.54890  Biso   1.000  C
  C3       1.0000 0.01430  0.10370  0.04890  Biso   1.000  C
  C4       1.0000 0.51430  0.60370  0.04890  Biso   1.000  C
  S1       1.0000 0.04083  0.92350  0.39010  Biso   1.000  S
  S2       1.0000 0.54083  0.42350  0.39010  Biso   1.000  S
  S3       1.0000 0.04083  0.07650  0.89010  Biso   1.000  S
  S4       1.0000 0.54083  0.57650  0.89010  Biso   1.000  S
  N9       1.0000 0.06450  0.82180  0.65710  Biso   1.000  N
  N10      1.0000 0.56450  0.32180  0.65710  Biso   1.000  N
  N11      1.0000 0.06450  0.17820  0.15710  Biso   1.000  N
  N12      1.0000 0.56450  0.67820  0.15710  Biso   1.000  N
  C5       1.0000 0.82780  0.07860  0.44780  Biso   1.000  C
  C6       1.0000 0.32780  0.57860  0.44780  Biso   1.000  C
  C7       1.0000 0.82780  0.92140  0.94780  Biso   1.000  C
  C8       1.0000 0.32780  0.42140  0.94780  Biso   1.000  C
  C9       1.0000 0.78520  0.15730  0.31680  Biso   1.000  C
  C10      1.0000 0.28520  0.65730  0.31680  Biso   1.000  C
  C11      1.0000 0.78520  0.84270  0.81680  Biso   1.000  C
  C12      1.0000 0.28520  0.34270  0.81680  Biso   1.000  C
  N13      1.0000 0.81950  0.15530  0.20700  Biso   1.000  N
  N14      1.0000 0.31950  0.65530  0.20700  Biso   1.000  N
  N15      1.0000 0.81950  0.84470  0.70700  Biso   1.000  N
  N16      1.0000 0.31950  0.34470  0.70700  Biso   1.000  N
  C13      1.0000 0.78840  0.23310  0.08770  Biso   1.000  C
  C14      1.0000 0.28840  0.73310  0.08770  Biso   1.000  C
  C15      1.0000 0.78840  0.76690  0.58770  Biso   1.000  C
  C16      1.0000 0.28840  0.26690  0.58770  Biso   1.000  C
  C17      1.0000 0.71860  0.31830  0.06730  Biso   1.000  C
  C18      1.0000 0.21860  0.81830  0.06730  Biso   1.000  C
  C19      1.0000 0.71860  0.68170  0.56730  Biso   1.000  C
  C20      1.0000 0.21860  0.18170  0.56730  Biso   1.000  C
  C21      1.0000 0.68260  0.31880  0.17960  Biso   1.000  C
  C22      1.0000 0.18260  0.81880  0.17960  Biso   1.000  C
  C23      1.0000 0.68260  0.68120  0.67960  Biso   1.000  C
  C24      1.0000 0.18260  0.18120  0.67960  Biso   1.000  C
  C25      1.0000 0.71680  0.23820  0.30580  Biso   1.000  C
  C26      1.0000 0.21680  0.73820  0.30580  Biso   1.000  C
  C27      1.0000 0.71680  0.76180  0.80580  Biso   1.000  C
  C28      1.0000 0.21680  0.26180  0.80580  Biso   1.000  C
  S5       1.0000 0.00570  0.37130  0.48380  Biso   1.000  S
  S6       1.0000 0.50570  0.87130  0.48380  Biso   1.000  S
  S7       1.0000 0.00570  0.62870  0.98380  Biso   1.000  S
  S8       1.0000 0.50570  0.12870  0.98380  Biso   1.000  S
  O1       1.0000 0.98400  0.28250  0.35080  Biso   1.000  O
  O2       1.0000 0.48400  0.78250  0.35080  Biso   1.000  O
  O3       1.0000 0.98400  0.71750  0.85080  Biso   1.000  O
  O4       1.0000 0.48400  0.21750  0.85080  Biso   1.000  O
  C29      1.0000 0.91810  0.46700  0.48600  Biso   1.000  C
  C30      1.0000 0.41810  0.96700  0.48600  Biso   1.000  C
  C31      1.0000 0.91810  0.53300  0.98600  Biso   1.000  C
  C32      1.0000 0.41810  0.03300  0.98600  Biso   1.000  C
  O5       1.0000 0.85060  0.76830  0.24320  Biso   1.000  O
  O6       1.0000 0.35060  0.26830  0.24320  Biso   1.000  O
  O7       1.0000 0.85060  0.23170  0.74320  Biso   1.000  O
  O8       1.0000 0.35060  0.73170  0.74320  Biso   1.000  O
  N17      1.0000 0.77550  0.74440  0.21570  Biso   1.000  N
  N18      1.0000 0.27550  0.24440  0.21570  Biso   1.000  N
  N19      1.0000 0.77550  0.25560  0.71570  Biso   1.000  N
  N20      1.0000 0.27550  0.75560  0.71570  Biso   1.000  N
  O9       1.0000 0.72460  0.83370  0.17370  Biso   1.000  O
  O10      1.0000 0.22460  0.33370  0.17370  Biso   1.000  O
  O11      1.0000 0.72460  0.16630  0.67370  Biso   1.000  O
  O12      1.0000 0.22460  0.66630  0.67370  Biso   1.000  O
  O13      1.0000 0.75570  0.62050  0.23770  Biso   1.000  O
  O14      1.0000 0.25570  0.12050  0.23770  Biso   1.000  O
  O15      1.0000 0.75570  0.37950  0.73770  Biso   1.000  O
  O16      1.0000 0.25570  0.87950  0.73770  Biso   1.000  O
  C33      1.0000 0.06560  0.50800  0.44200  Biso   1.000  C
  C34      1.0000 0.56560  0.00800  0.44200  Biso   1.000  C
  C35      1.0000 0.06560  0.49200  0.94200  Biso   1.000  C
  C36      1.0000 0.56560  0.99200  0.94200  Biso   1.000  C
  H1       1.0000 0.80650  0.06790  0.52910  Biso   1.000  H
  H2       1.0000 0.30650  0.56790  0.52910  Biso   1.000  H
  H3       1.0000 0.80650  0.93210  0.02910  Biso   1.000  H
  H4       1.0000 0.30650  0.43210  0.02910  Biso   1.000  H
  H5       1.0000 0.81300  0.23050  0.01360  Biso   1.000  H
  H6       1.0000 0.31300  0.73050  0.01360  Biso   1.000  H
  H7       1.0000 0.81300  0.76950  0.51360  Biso   1.000  H
  H8       1.0000 0.31300  0.26950  0.51360  Biso   1.000  H
  H9       1.0000 0.69730  0.37290  0.98160  Biso   1.000  H
  H10      1.0000 0.19730  0.87290  0.98160  Biso   1.000  H
  H11      1.0000 0.69730  0.62710  0.48160  Biso   1.000  H
  H12      1.0000 0.19730  0.12710  0.48160  Biso   1.000  H
  H13      1.0000 0.63590  0.37340  0.16990  Biso   1.000  H
  H14      1.0000 0.13590  0.87340  0.16990  Biso   1.000  H
  H15      1.0000 0.63590  0.62660  0.66990  Biso   1.000  H
  H16      1.0000 0.13590  0.12660  0.66990  Biso   1.000  H
  H17      1.0000 0.69360  0.23890  0.38080  Biso   1.000  H
  H18      1.0000 0.19360  0.73890  0.38080  Biso   1.000  H
  H19      1.0000 0.69360  0.76110  0.88080  Biso   1.000  H
  H20      1.0000 0.19360  0.26110  0.88080  Biso   1.000  H
  H21      1.0000 0.11040  0.79210  0.65090  Biso   1.000  H
  H22      1.0000 0.61040  0.29210  0.65090  Biso   1.000  H
  H23      1.0000 0.11040  0.20790  0.15090  Biso   1.000  H
  H24      1.0000 0.61040  0.70790  0.15090  Biso   1.000  H
  H25      1.0000 0.05090  0.80330  0.73480  Biso   1.000  H
  H26      1.0000 0.55090  0.30330  0.73480  Biso   1.000  H
  H27      1.0000 0.05090  0.19670  0.23480  Biso   1.000  H
  H28      1.0000 0.55090  0.69670  0.23480  Biso   1.000  H
  H29      1.0000 0.88420  0.40850  0.52520  Biso   1.000  H
  H30      1.0000 0.38420  0.90850  0.52520  Biso   1.000  H
  H31      1.0000 0.88420  0.59150  0.02520  Biso   1.000  H
  H32      1.0000 0.38420  0.09150  0.02520  Biso   1.000  H
  H33      1.0000 0.93550  0.54790  0.54790  Biso   1.000  H
  H34      1.0000 0.43550  0.04790  0.54790  Biso   1.000  H
  H35      1.0000 0.93550  0.45210  0.04790  Biso   1.000  H
  H36      1.0000 0.43550  0.95210  0.04790  Biso   1.000  H
  H37      1.0000 0.88730  0.49490  0.38690  Biso   1.000  H
  H38      1.0000 0.38730  0.99490  0.38690  Biso   1.000  H
  H39      1.0000 0.88730  0.50510  0.88690  Biso   1.000  H
  H40      1.0000 0.38730  0.00510  0.88690  Biso   1.000  H
  H41      1.0000 0.08400  0.57630  0.52690  Biso   1.000  H
  H42      1.0000 0.58400  0.07630  0.52690  Biso   1.000  H
  H43      1.0000 0.08400  0.42370  0.02690  Biso   1.000  H
  H44      1.0000 0.58400  0.92370  0.02690  Biso   1.000  H
  H45      1.0000 0.11500  0.46860  0.42200  Biso   1.000  H
  H46      1.0000 0.61500  0.96860  0.42200  Biso   1.000  H
  H47      1.0000 0.11500  0.53140  0.92200  Biso   1.000  H
  H48      1.0000 0.61500  0.03140  0.92200  Biso   1.000  H
  H49      1.0000 0.02980  0.55810  0.35200  Biso   1.000  H
  H50      1.0000 0.52980  0.05810  0.35200  Biso   1.000  H
  H51      1.0000 0.02980  0.44190  0.85200  Biso   1.000  H
  H52      1.0000 0.52980  0.94190  0.85200  Biso   1.000  H
