data_image0
_cell_length_a       10.88
_cell_length_b       11.248
_cell_length_c       23.006
_cell_angle_alpha    90
_cell_angle_beta     90
_cell_angle_gamma    90

_symmetry_space_group_name_H-M    "P 1"
_symmetry_int_tables_number       1

loop_
  _symmetry_equiv_pos_as_xyz
  'x, y, z'

loop_
  _atom_site_label
  _atom_site_occupancy
  _atom_site_fract_x
  _atom_site_fract_y
  _atom_site_fract_z
  _atom_site_thermal_displace_type
  _atom_site_B_iso_or_equiv
  _atom_site_type_symbol
  Ba1      1.0000 0.43473  0.67805  0.40857  Biso   1.000  Ba
  Ba2      1.0000 0.06527  0.82195  0.40857  Biso   1.000  Ba
  Ba3      1.0000 0.56527  0.17805  0.09143  Biso   1.000  Ba
  Ba4      1.0000 0.93473  0.32195  0.09143  Biso   1.000  Ba
  Ba5      1.0000 0.56527  0.32195  0.59143  Biso   1.000  Ba
  Ba6      1.0000 0.93473  0.17805  0.59143  Biso   1.000  Ba
  Ba7      1.0000 0.43473  0.82195  0.90857  Biso   1.000  Ba
  Ba8      1.0000 0.06527  0.67805  0.90857  Biso   1.000  Ba
  Cu1      1.0000 0.25000  0.25000  0.39953  Biso   1.000  Cu
  Cu2      1.0000 0.75000  0.75000  0.10047  Biso   1.000  Cu
  Cu3      1.0000 0.75000  0.75000  0.60047  Biso   1.000  Cu
  Cu4      1.0000 0.25000  0.25000  0.89953  Biso   1.000  Cu
  Cl1      1.0000 0.63274  0.42604  0.32462  Biso   1.000  Cl
  Cl2      1.0000 0.86726  0.07396  0.32462  Biso   1.000  Cl
  Cl3      1.0000 0.36726  0.92604  0.17538  Biso   1.000  Cl
  Cl4      1.0000 0.13274  0.57396  0.17538  Biso   1.000  Cl
  Cl5      1.0000 0.36726  0.57396  0.67538  Biso   1.000  Cl
  Cl6      1.0000 0.13274  0.92604  0.67538  Biso   1.000  Cl
  Cl7      1.0000 0.63274  0.07396  0.82462  Biso   1.000  Cl
  Cl8      1.0000 0.86726  0.42604  0.82462  Biso   1.000  Cl
  O1       1.0000 0.30630  0.46040  0.38667  Biso   1.000  O
  O2       1.0000 0.19370  0.03960  0.38667  Biso   1.000  O
  O3       1.0000 0.69370  0.96040  0.11333  Biso   1.000  O
  O4       1.0000 0.80630  0.53960  0.11333  Biso   1.000  O
  O5       1.0000 0.69370  0.53960  0.61333  Biso   1.000  O
  O6       1.0000 0.80630  0.96040  0.61333  Biso   1.000  O
  O7       1.0000 0.30630  0.03960  0.88667  Biso   1.000  O
  O8       1.0000 0.19370  0.46040  0.88667  Biso   1.000  O
  O9       1.0000 0.18280  0.61700  0.38364  Biso   1.000  O
  O10      1.0000 0.31720  0.88300  0.38364  Biso   1.000  O
  O11      1.0000 0.81720  0.11700  0.11636  Biso   1.000  O
  O12      1.0000 0.68280  0.38300  0.11636  Biso   1.000  O
  O13      1.0000 0.81720  0.38300  0.61636  Biso   1.000  O
  O14      1.0000 0.68280  0.11700  0.61636  Biso   1.000  O
  O15      1.0000 0.18280  0.88300  0.88364  Biso   1.000  O
  O16      1.0000 0.31720  0.61700  0.88364  Biso   1.000  O
  O17      1.0000 0.13660  0.29670  0.46030  Biso   1.000  O
  O18      1.0000 0.36340  0.20330  0.46030  Biso   1.000  O
  O19      1.0000 0.86340  0.79670  0.03970  Biso   1.000  O
  O20      1.0000 0.63660  0.70330  0.03970  Biso   1.000  O
  O21      1.0000 0.86340  0.70330  0.53970  Biso   1.000  O
  O22      1.0000 0.63660  0.79670  0.53970  Biso   1.000  O
  O23      1.0000 0.13660  0.20330  0.96030  Biso   1.000  O
  O24      1.0000 0.36340  0.29670  0.96030  Biso   1.000  O
  O25      1.0000 0.95610  0.34180  0.49668  Biso   1.000  O
  O26      1.0000 0.54390  0.15820  0.49668  Biso   1.000  O
  O27      1.0000 0.04390  0.84180  0.00332  Biso   1.000  O
  O28      1.0000 0.45610  0.65820  0.00332  Biso   1.000  O
  O29      1.0000 0.04390  0.65820  0.50332  Biso   1.000  O
  O30      1.0000 0.45610  0.84180  0.50332  Biso   1.000  O
  O31      1.0000 0.95610  0.15820  0.99668  Biso   1.000  O
  O32      1.0000 0.54390  0.34180  0.99668  Biso   1.000  O
  O33      1.0000 0.61100  0.53870  0.34770  Biso   1.000  O
  O34      1.0000 0.88900  0.96130  0.34770  Biso   1.000  O
  O35      1.0000 0.38900  0.03870  0.15230  Biso   1.000  O
  O36      1.0000 0.11100  0.46130  0.15230  Biso   1.000  O
  O37      1.0000 0.38900  0.46130  0.65230  Biso   1.000  O
  O38      1.0000 0.11100  0.03870  0.65230  Biso   1.000  O
  O39      1.0000 0.61100  0.96130  0.84770  Biso   1.000  O
  O40      1.0000 0.88900  0.53870  0.84770  Biso   1.000  O
  O41      1.0000 0.61640  0.33960  0.36850  Biso   1.000  O
  O42      1.0000 0.88360  0.16040  0.36850  Biso   1.000  O
  O43      1.0000 0.38360  0.83960  0.13150  Biso   1.000  O
  O44      1.0000 0.11640  0.66040  0.13150  Biso   1.000  O
  O45      1.0000 0.38360  0.66040  0.63150  Biso   1.000  O
  O46      1.0000 0.11640  0.83960  0.63150  Biso   1.000  O
  O47      1.0000 0.61640  0.16040  0.86850  Biso   1.000  O
  O48      1.0000 0.88360  0.33960  0.86850  Biso   1.000  O
  O49      1.0000 0.75390  0.42590  0.30260  Biso   1.000  O
  O50      1.0000 0.74610  0.07410  0.30260  Biso   1.000  O
  O51      1.0000 0.24610  0.92590  0.19740  Biso   1.000  O
  O52      1.0000 0.25390  0.57410  0.19740  Biso   1.000  O
  O53      1.0000 0.24610  0.57410  0.69740  Biso   1.000  O
  O54      1.0000 0.25390  0.92590  0.69740  Biso   1.000  O
  O55      1.0000 0.75390  0.07410  0.80260  Biso   1.000  O
  O56      1.0000 0.74610  0.42590  0.80260  Biso   1.000  O
  O57      1.0000 0.54530  0.40210  0.28000  Biso   1.000  O
  O58      1.0000 0.95470  0.09790  0.28000  Biso   1.000  O
  O59      1.0000 0.45470  0.90210  0.22000  Biso   1.000  O
  O60      1.0000 0.04530  0.59790  0.22000  Biso   1.000  O
  O61      1.0000 0.45470  0.59790  0.72000  Biso   1.000  O
  O62      1.0000 0.04530  0.90210  0.72000  Biso   1.000  O
  O63      1.0000 0.54530  0.09790  0.78000  Biso   1.000  O
  O64      1.0000 0.95470  0.40210  0.78000  Biso   1.000  O
  N1       1.0000 0.14060  0.31170  0.33757  Biso   1.000  N
  N2       1.0000 0.35940  0.18830  0.33757  Biso   1.000  N
  N3       1.0000 0.85940  0.81170  0.16243  Biso   1.000  N
  N4       1.0000 0.64060  0.68830  0.16243  Biso   1.000  N
  N5       1.0000 0.85940  0.68830  0.66243  Biso   1.000  N
  N6       1.0000 0.64060  0.81170  0.66243  Biso   1.000  N
  N7       1.0000 0.14060  0.18830  0.83757  Biso   1.000  N
  N8       1.0000 0.35940  0.31170  0.83757  Biso   1.000  N
  H1       1.0000 0.07450  0.26270  0.33410  Biso   1.000  H
  H2       1.0000 0.42550  0.23730  0.33410  Biso   1.000  H
  H3       1.0000 0.92550  0.76270  0.16590  Biso   1.000  H
  H4       1.0000 0.57450  0.73730  0.16590  Biso   1.000  H
  H5       1.0000 0.92550  0.73730  0.66590  Biso   1.000  H
  H6       1.0000 0.57450  0.76270  0.66590  Biso   1.000  H
  H7       1.0000 0.07450  0.23730  0.83410  Biso   1.000  H
  H8       1.0000 0.42550  0.26270  0.83410  Biso   1.000  H
  C1       1.0000 0.09780  0.43160  0.35552  Biso   1.000  C
  C2       1.0000 0.40220  0.06840  0.35552  Biso   1.000  C
  C3       1.0000 0.90220  0.93160  0.14448  Biso   1.000  C
  C4       1.0000 0.59780  0.56840  0.14448  Biso   1.000  C
  C5       1.0000 0.90220  0.56840  0.64448  Biso   1.000  C
  C6       1.0000 0.59780  0.93160  0.64448  Biso   1.000  C
  C7       1.0000 0.09780  0.06840  0.85552  Biso   1.000  C
  C8       1.0000 0.40220  0.43160  0.85552  Biso   1.000  C
  H9       1.0000 0.06060  0.47080  0.32180  Biso   1.000  H
  H10      1.0000 0.43940  0.02920  0.32180  Biso   1.000  H
  H11      1.0000 0.93940  0.97080  0.17820  Biso   1.000  H
  H12      1.0000 0.56060  0.52920  0.17820  Biso   1.000  H
  H13      1.0000 0.93940  0.52920  0.67820  Biso   1.000  H
  H14      1.0000 0.56060  0.97080  0.67820  Biso   1.000  H
  H15      1.0000 0.06060  0.02920  0.82180  Biso   1.000  H
  H16      1.0000 0.43940  0.47080  0.82180  Biso   1.000  H
  C9       1.0000 0.20420  0.50820  0.37719  Biso   1.000  C
  C10      1.0000 0.29580  0.99180  0.37719  Biso   1.000  C
  C11      1.0000 0.79580  0.00820  0.12281  Biso   1.000  C
  C12      1.0000 0.70420  0.49180  0.12281  Biso   1.000  C
  C13      1.0000 0.79580  0.49180  0.62281  Biso   1.000  C
  C14      1.0000 0.70420  0.00820  0.62281  Biso   1.000  C
  C15      1.0000 0.20420  0.99180  0.87719  Biso   1.000  C
  C16      1.0000 0.29580  0.50820  0.87719  Biso   1.000  C
  C17      1.0000 0.99970  0.41930  0.40302  Biso   1.000  C
  C18      1.0000 0.50030  0.08070  0.40302  Biso   1.000  C
  C19      1.0000 0.00030  0.91930  0.09698  Biso   1.000  C
  C20      1.0000 0.49970  0.58070  0.09698  Biso   1.000  C
  C21      1.0000 0.00030  0.58070  0.59698  Biso   1.000  C
  C22      1.0000 0.49970  0.91930  0.59698  Biso   1.000  C
  C23      1.0000 0.99970  0.08070  0.90302  Biso   1.000  C
  C24      1.0000 0.50030  0.41930  0.90302  Biso   1.000  C
  H17      1.0000 0.97690  0.49860  0.41560  Biso   1.000  H
  H18      1.0000 0.52310  0.00140  0.41560  Biso   1.000  H
  H19      1.0000 0.02310  0.99860  0.08440  Biso   1.000  H
  H20      1.0000 0.47690  0.50140  0.08440  Biso   1.000  H
  H21      1.0000 0.02310  0.50140  0.58440  Biso   1.000  H
  H22      1.0000 0.47690  0.99860  0.58440  Biso   1.000  H
  H23      1.0000 0.97690  0.00140  0.91560  Biso   1.000  H
  H24      1.0000 0.52310  0.49860  0.91560  Biso   1.000  H
  H25      1.0000 0.92730  0.38360  0.38560  Biso   1.000  H
  H26      1.0000 0.57270  0.11640  0.38560  Biso   1.000  H
  H27      1.0000 0.07270  0.88360  0.11440  Biso   1.000  H
  H28      1.0000 0.42730  0.61640  0.11440  Biso   1.000  H
  H29      1.0000 0.07270  0.61640  0.61440  Biso   1.000  H
  H30      1.0000 0.42730  0.88360  0.61440  Biso   1.000  H
  H31      1.0000 0.92730  0.11640  0.88560  Biso   1.000  H
  H32      1.0000 0.57270  0.38360  0.88560  Biso   1.000  H
  C25      1.0000 0.03310  0.34750  0.45649  Biso   1.000  C
  C26      1.0000 0.46690  0.15250  0.45649  Biso   1.000  C
  C27      1.0000 0.96690  0.84750  0.04351  Biso   1.000  C
  C28      1.0000 0.53310  0.65250  0.04351  Biso   1.000  C
  C29      1.0000 0.96690  0.65250  0.54351  Biso   1.000  C
  C30      1.0000 0.53310  0.84750  0.54351  Biso   1.000  C
  C31      1.0000 0.03310  0.15250  0.95649  Biso   1.000  C
  C32      1.0000 0.46690  0.34750  0.95649  Biso   1.000  C
  C33      1.0000 0.21330  0.30750  0.28289  Biso   1.000  C
  C34      1.0000 0.28670  0.19250  0.28289  Biso   1.000  C
  C35      1.0000 0.78670  0.80750  0.21711  Biso   1.000  C
  C36      1.0000 0.71330  0.69250  0.21711  Biso   1.000  C
  C37      1.0000 0.78670  0.69250  0.71711  Biso   1.000  C
  C38      1.0000 0.71330  0.80750  0.71711  Biso   1.000  C
  C39      1.0000 0.21330  0.19250  0.78289  Biso   1.000  C
  C40      1.0000 0.28670  0.30750  0.78289  Biso   1.000  C
  H33      1.0000 0.26830  0.37530  0.28080  Biso   1.000  H
  H34      1.0000 0.23170  0.12470  0.28080  Biso   1.000  H
  H35      1.0000 0.73170  0.87530  0.21920  Biso   1.000  H
  H36      1.0000 0.76830  0.62470  0.21920  Biso   1.000  H
  H37      1.0000 0.73170  0.62470  0.71920  Biso   1.000  H
  H38      1.0000 0.76830  0.87530  0.71920  Biso   1.000  H
  H39      1.0000 0.26830  0.12470  0.78080  Biso   1.000  H
  H40      1.0000 0.23170  0.37530  0.78080  Biso   1.000  H
  H41      1.0000 0.15890  0.30990  0.24950  Biso   1.000  H
  H42      1.0000 0.34110  0.19010  0.24950  Biso   1.000  H
  H43      1.0000 0.84110  0.80990  0.25050  Biso   1.000  H
  H44      1.0000 0.65890  0.69010  0.25050  Biso   1.000  H
  H45      1.0000 0.84110  0.69010  0.75050  Biso   1.000  H
  H46      1.0000 0.65890  0.80990  0.75050  Biso   1.000  H
  H47      1.0000 0.15890  0.19010  0.74950  Biso   1.000  H
  H48      1.0000 0.34110  0.30990  0.74950  Biso   1.000  H
  O65      1.0000 0.29140  0.61430  0.51036  Biso   1.000  O
  O66      1.0000 0.20860  0.88570  0.51036  Biso   1.000  O
  O67      1.0000 0.70860  0.11430  0.98964  Biso   1.000  O
  O68      1.0000 0.79140  0.38570  0.98964  Biso   1.000  O
  O69      1.0000 0.70860  0.38570  0.48964  Biso   1.000  O
  O70      1.0000 0.79140  0.11430  0.48964  Biso   1.000  O
  O71      1.0000 0.29140  0.88570  0.01036  Biso   1.000  O
  O72      1.0000 0.20860  0.61430  0.01036  Biso   1.000  O
  H49      1.0000 0.31520  0.62380  0.54520  Biso   1.000  H
  H50      1.0000 0.18480  0.87620  0.54520  Biso   1.000  H
  H51      1.0000 0.68480  0.12380  0.95480  Biso   1.000  H
  H52      1.0000 0.81520  0.37620  0.95480  Biso   1.000  H
  H53      1.0000 0.68480  0.37620  0.45480  Biso   1.000  H
  H54      1.0000 0.81520  0.12380  0.45480  Biso   1.000  H
  H55      1.0000 0.31520  0.87620  0.04520  Biso   1.000  H
  H56      1.0000 0.18480  0.62380  0.04520  Biso   1.000  H
  H57      1.0000 0.21380  0.62290  0.50980  Biso   1.000  H
  H58      1.0000 0.28620  0.87710  0.50980  Biso   1.000  H
  H59      1.0000 0.78620  0.12290  0.99020  Biso   1.000  H
  H60      1.0000 0.71380  0.37710  0.99020  Biso   1.000  H
  H61      1.0000 0.78620  0.37710  0.49020  Biso   1.000  H
  H62      1.0000 0.71380  0.12290  0.49020  Biso   1.000  H
  H63      1.0000 0.21380  0.87710  0.00980  Biso   1.000  H
  H64      1.0000 0.28620  0.62290  0.00980  Biso   1.000  H
  O73      1.0000 0.40060  0.68790  0.28908  Biso   1.000  O
  O74      1.0000 0.09940  0.81210  0.28908  Biso   1.000  O
  O75      1.0000 0.59940  0.18790  0.21092  Biso   1.000  O
  O76      1.0000 0.90060  0.31210  0.21092  Biso   1.000  O
  O77      1.0000 0.59940  0.31210  0.71092  Biso   1.000  O
  O78      1.0000 0.90060  0.18790  0.71092  Biso   1.000  O
  O79      1.0000 0.40060  0.81210  0.78908  Biso   1.000  O
  O80      1.0000 0.09940  0.68790  0.78908  Biso   1.000  O
  H65      1.0000 0.39610  0.62270  0.27050  Biso   1.000  H
  H66      1.0000 0.10390  0.87730  0.27050  Biso   1.000  H
  H67      1.0000 0.60390  0.12270  0.22950  Biso   1.000  H
  H68      1.0000 0.89610  0.37730  0.22950  Biso   1.000  H
  H69      1.0000 0.60390  0.37730  0.72950  Biso   1.000  H
  H70      1.0000 0.89610  0.12270  0.72950  Biso   1.000  H
  H71      1.0000 0.39610  0.87730  0.77050  Biso   1.000  H
  H72      1.0000 0.10390  0.62270  0.77050  Biso   1.000  H
  H73      1.0000 0.42030  0.74570  0.26720  Biso   1.000  H
  H74      1.0000 0.07970  0.75430  0.26720  Biso   1.000  H
  H75      1.0000 0.57970  0.24570  0.23280  Biso   1.000  H
  H76      1.0000 0.92030  0.25430  0.23280  Biso   1.000  H
  H77      1.0000 0.57970  0.25430  0.73280  Biso   1.000  H
  H78      1.0000 0.92030  0.24570  0.73280  Biso   1.000  H
  H79      1.0000 0.42030  0.75430  0.76720  Biso   1.000  H
  H80      1.0000 0.07970  0.74570  0.76720  Biso   1.000  H
  O81      1.0000 0.64780  0.81740  0.38000  Biso   1.000  O
  O82      1.0000 0.85220  0.68260  0.38000  Biso   1.000  O
  O83      1.0000 0.35220  0.31740  0.12000  Biso   1.000  O
  O84      1.0000 0.14780  0.18260  0.12000  Biso   1.000  O
  O85      1.0000 0.35220  0.18260  0.62000  Biso   1.000  O
  O86      1.0000 0.14780  0.31740  0.62000  Biso   1.000  O
  O87      1.0000 0.64780  0.68260  0.88000  Biso   1.000  O
  O88      1.0000 0.85220  0.81740  0.88000  Biso   1.000  O
  O89      1.0000 0.66220  0.62930  0.45670  Biso   1.000  O
  O90      1.0000 0.83780  0.87070  0.45670  Biso   1.000  O
  O91      1.0000 0.33780  0.12930  0.04330  Biso   1.000  O
  O92      1.0000 0.16220  0.37070  0.04330  Biso   1.000  O
  O93      1.0000 0.33780  0.37070  0.54330  Biso   1.000  O
  O94      1.0000 0.16220  0.12930  0.54330  Biso   1.000  O
  O95      1.0000 0.66220  0.87070  0.95670  Biso   1.000  O
  O96      1.0000 0.83780  0.62930  0.95670  Biso   1.000  O
  O97      1.0000 0.62540  0.82550  0.35230  Biso   1.000  O
  O98      1.0000 0.87460  0.67450  0.35230  Biso   1.000  O
  O99      1.0000 0.37460  0.32550  0.14770  Biso   1.000  O
  O100     1.0000 0.12540  0.17450  0.14770  Biso   1.000  O
  O101     1.0000 0.37460  0.17450  0.64770  Biso   1.000  O
  O102     1.0000 0.12540  0.32550  0.64770  Biso   1.000  O
  O103     1.0000 0.62540  0.67450  0.85230  Biso   1.000  O
  O104     1.0000 0.87460  0.82550  0.85230  Biso   1.000  O
  O105     1.0000 0.56010  0.55990  0.49820  Biso   1.000  O
  O106     1.0000 0.93990  0.94010  0.49820  Biso   1.000  O
  O107     1.0000 0.43990  0.05990  0.00180  Biso   1.000  O
  O108     1.0000 0.06010  0.44010  0.00180  Biso   1.000  O
  O109     1.0000 0.43990  0.44010  0.50180  Biso   1.000  O
  O110     1.0000 0.06010  0.05990  0.50180  Biso   1.000  O
  O111     1.0000 0.56010  0.94010  0.99820  Biso   1.000  O
  O112     1.0000 0.93990  0.55990  0.99820  Biso   1.000  O
  O113     1.0000 0.61100  0.59860  0.47640  Biso   1.000  O
  O114     1.0000 0.88900  0.90140  0.47640  Biso   1.000  O
  O115     1.0000 0.38900  0.09860  0.02360  Biso   1.000  O
  O116     1.0000 0.11100  0.40140  0.02360  Biso   1.000  O
  O117     1.0000 0.38900  0.40140  0.52360  Biso   1.000  O
  O118     1.0000 0.11100  0.09860  0.52360  Biso   1.000  O
  O119     1.0000 0.61100  0.90140  0.97640  Biso   1.000  O
  O120     1.0000 0.88900  0.59860  0.97640  Biso   1.000  O
