data_image0
_cell_length_a       7.028
_cell_length_b       14.323
_cell_length_c       20.196
_cell_angle_alpha    98.45
_cell_angle_beta     95.66
_cell_angle_gamma    96.84

_symmetry_space_group_name_H-M    "P 1"
_symmetry_int_tables_number       1

loop_
  _symmetry_equiv_pos_as_xyz
  'x, y, z'

loop_
  _atom_site_label
  _atom_site_occupancy
  _atom_site_fract_x
  _atom_site_fract_y
  _atom_site_fract_z
  _atom_site_thermal_displace_type
  _atom_site_B_iso_or_equiv
  _atom_site_type_symbol
  Ba1      1.0000 0.34223  0.73252  0.70757  Biso   1.000  Ba
  Ba2      1.0000 0.65777  0.26748  0.29243  Biso   1.000  Ba
  Ba3      1.0000 0.75637  0.11760  0.99941  Biso   1.000  Ba
  Ba4      1.0000 0.24363  0.88240  0.00059  Biso   1.000  Ba
  Ba5      1.0000 0.25881  0.61266  0.49579  Biso   1.000  Ba
  Ba6      1.0000 0.74119  0.38734  0.50421  Biso   1.000  Ba
  Cu1      1.0000 0.88009  0.95755  0.69064  Biso   1.000  Cu
  Cu2      1.0000 0.11991  0.04245  0.30936  Biso   1.000  Cu
  O1       1.0000 0.03830  0.81240  0.65980  Biso   1.000  O
  O2       1.0000 0.96170  0.18760  0.34020  Biso   1.000  O
  O3       1.0000 0.00990  0.71320  0.56230  Biso   1.000  O
  O4       1.0000 0.99010  0.28680  0.43770  Biso   1.000  O
  O5       1.0000 0.63720  0.88000  0.65230  Biso   1.000  O
  O6       1.0000 0.36280  0.12000  0.34770  Biso   1.000  O
  O7       1.0000 0.44780  0.77300  0.57890  Biso   1.000  O
  O8       1.0000 0.55220  0.22700  0.42110  Biso   1.000  O
  O9       1.0000 0.78790  0.98940  0.77640  Biso   1.000  O
  O10      1.0000 0.21210  0.01060  0.22360  Biso   1.000  O
  O11      1.0000 0.85360  0.08640  0.87430  Biso   1.000  O
  O12      1.0000 0.14640  0.91360  0.12570  Biso   1.000  O
  O13      1.0000 0.14880  0.95790  0.87890  Biso   1.000  O
  O14      1.0000 0.85120  0.04210  0.12110  Biso   1.000  O
  O15      1.0000 0.41320  0.03870  0.93750  Biso   1.000  O
  O16      1.0000 0.58680  0.96130  0.06250  Biso   1.000  O
  N1       1.0000 0.98930  0.96490  0.60420  Biso   1.000  N
  N2       1.0000 0.01070  0.03510  0.39580  Biso   1.000  N
  H1       1.0000 0.93370  0.00910  0.58370  Biso   1.000  H
  H2       1.0000 0.06630  0.99090  0.41630  Biso   1.000  H
  N3       1.0000 0.12960  0.02750  0.73750  Biso   1.000  N
  N4       1.0000 0.87040  0.97250  0.26250  Biso   1.000  N
  H3       1.0000 0.20150  0.98450  0.75260  Biso   1.000  H
  H4       1.0000 0.79850  0.01550  0.24740  Biso   1.000  H
  C1       1.0000 0.93900  0.87080  0.55970  Biso   1.000  C
  C2       1.0000 0.06100  0.12920  0.44030  Biso   1.000  C
  H5       1.0000 0.00550  0.87170  0.51930  Biso   1.000  H
  H6       1.0000 0.99450  0.12830  0.48070  Biso   1.000  H
  C3       1.0000 0.00400  0.79340  0.59720  Biso   1.000  C
  C4       1.0000 0.99600  0.20660  0.40280  Biso   1.000  C
  C5       1.0000 0.72260  0.85050  0.53880  Biso   1.000  C
  C6       1.0000 0.27740  0.14950  0.46120  Biso   1.000  C
  H7       1.0000 0.68340  0.90390  0.51900  Biso   1.000  H
  H8       1.0000 0.31660  0.09610  0.48100  Biso   1.000  H
  H9       1.0000 0.69760  0.79510  0.50370  Biso   1.000  H
  H10      1.0000 0.30240  0.20490  0.49630  Biso   1.000  H
  C7       1.0000 0.59410  0.83300  0.59310  Biso   1.000  C
  C8       1.0000 0.40590  0.16700  0.40690  Biso   1.000  C
  C9       1.0000 0.08930  0.09390  0.79680  Biso   1.000  C
  C10      1.0000 0.91070  0.90610  0.20320  Biso   1.000  C
  H11      1.0000 0.07200  0.15480  0.78200  Biso   1.000  H
  H12      1.0000 0.92800  0.84520  0.21800  Biso   1.000  H
  C11      1.0000 0.89650  0.05370  0.81930  Biso   1.000  C
  C12      1.0000 0.10350  0.94630  0.18070  Biso   1.000  C
  C13      1.0000 0.25260  0.11350  0.85510  Biso   1.000  C
  C14      1.0000 0.74740  0.88650  0.14490  Biso   1.000  C
  H13      1.0000 0.37330  0.13070  0.83760  Biso   1.000  H
  H14      1.0000 0.62670  0.86930  0.16240  Biso   1.000  H
  H15      1.0000 0.23030  0.16760  0.88690  Biso   1.000  H
  H16      1.0000 0.76970  0.83240  0.11310  Biso   1.000  H
  C15      1.0000 0.27270  0.03000  0.89240  Biso   1.000  C
  C16      1.0000 0.72730  0.97000  0.10760  Biso   1.000  C
  C17      1.0000 0.19880  0.99900  0.62100  Biso   1.000  C
  C18      1.0000 0.80120  0.00100  0.37900  Biso   1.000  C
  H17      1.0000 0.24710  0.02840  0.58460  Biso   1.000  H
  H18      1.0000 0.75290  0.97160  0.41540  Biso   1.000  H
  H19      1.0000 0.26830  0.94560  0.62690  Biso   1.000  H
  H20      1.0000 0.73170  0.05440  0.37310  Biso   1.000  H
  C19      1.0000 0.23070  0.07150  0.68610  Biso   1.000  C
  C20      1.0000 0.76930  0.92850  0.31390  Biso   1.000  C
  H21      1.0000 0.36750  0.08740  0.70150  Biso   1.000  H
  H22      1.0000 0.63250  0.91260  0.29850  Biso   1.000  H
  H23      1.0000 0.17920  0.12940  0.67850  Biso   1.000  H
  H24      1.0000 0.82080  0.87060  0.32150  Biso   1.000  H
  Cu3      1.0000 0.61645  0.53192  0.81362  Biso   1.000  Cu
  Cu4      1.0000 0.38355  0.46808  0.18638  Biso   1.000  Cu
  O17      1.0000 0.46820  0.68150  0.82500  Biso   1.000  O
  O18      1.0000 0.53180  0.31850  0.17500  Biso   1.000  O
  O19      1.0000 0.48580  0.79430  0.91500  Biso   1.000  O
  O20      1.0000 0.51420  0.20570  0.08500  Biso   1.000  O
  O21      1.0000 0.85910  0.60760  0.85440  Biso   1.000  O
  O22      1.0000 0.14090  0.39240  0.14560  Biso   1.000  O
  O23      1.0000 0.04370  0.71960  0.92630  Biso   1.000  O
  O24      1.0000 0.95630  0.28040  0.07370  Biso   1.000  O
  O25      1.0000 0.70870  0.50060  0.72650  Biso   1.000  O
  O26      1.0000 0.29130  0.49940  0.27350  Biso   1.000  O
  O27      1.0000 0.62720  0.41600  0.62470  Biso   1.000  O
  O28      1.0000 0.37280  0.58400  0.37530  Biso   1.000  O
  O29      1.0000 0.33520  0.55400  0.63380  Biso   1.000  O
  O30      1.0000 0.66480  0.44600  0.36620  Biso   1.000  O
  O31      1.0000 0.08700  0.47240  0.56550  Biso   1.000  O
  O32      1.0000 0.91300  0.52760  0.43450  Biso   1.000  O
  N5       1.0000 0.49280  0.53930  0.89760  Biso   1.000  N
  N6       1.0000 0.50720  0.46070  0.10240  Biso   1.000  N
  H25      1.0000 0.54720  0.50080  0.92390  Biso   1.000  H
  H26      1.0000 0.45280  0.49920  0.07610  Biso   1.000  H
  N7       1.0000 0.36660  0.46590  0.76630  Biso   1.000  N
  N8       1.0000 0.63340  0.53410  0.23370  Biso   1.000  N
  H27      1.0000 0.29830  0.51140  0.75300  Biso   1.000  H
  H28      1.0000 0.70170  0.48860  0.24700  Biso   1.000  H
  C21      1.0000 0.53510  0.63860  0.93420  Biso   1.000  C
  C22      1.0000 0.46490  0.36140  0.06580  Biso   1.000  C
  H29      1.0000 0.45670  0.64550  0.97170  Biso   1.000  H
  H30      1.0000 0.54330  0.35450  0.02830  Biso   1.000  H
  C23      1.0000 0.48860  0.70990  0.88750  Biso   1.000  C
  C24      1.0000 0.51140  0.29010  0.11250  Biso   1.000  C
  C25      1.0000 0.74770  0.65950  0.96200  Biso   1.000  C
  C26      1.0000 0.25230  0.34050  0.03800  Biso   1.000  C
  H31      1.0000 0.76800  0.72030  0.99190  Biso   1.000  H
  H32      1.0000 0.23200  0.27970  0.00810  Biso   1.000  H
  H33      1.0000 0.77610  0.61130  0.98920  Biso   1.000  H
  H34      1.0000 0.22390  0.38870  0.01080  Biso   1.000  H
  C27      1.0000 0.89310  0.66300  0.91110  Biso   1.000  C
  C28      1.0000 0.10690  0.33700  0.08890  Biso   1.000  C
  C29      1.0000 0.39830  0.40300  0.70460  Biso   1.000  C
  C30      1.0000 0.60170  0.59700  0.29540  Biso   1.000  C
  H35      1.0000 0.41050  0.33980  0.71630  Biso   1.000  H
  H36      1.0000 0.58950  0.66020  0.28370  Biso   1.000  H
  C31      1.0000 0.59180  0.44200  0.68210  Biso   1.000  C
  C32      1.0000 0.40820  0.55800  0.31790  Biso   1.000  C
  C33      1.0000 0.23280  0.39170  0.64750  Biso   1.000  C
  C34      1.0000 0.76720  0.60830  0.35250  Biso   1.000  C
  H37      1.0000 0.24900  0.33910  0.61330  Biso   1.000  H
  H38      1.0000 0.75100  0.66090  0.38670  Biso   1.000  H
  H39      1.0000 0.11230  0.37510  0.66530  Biso   1.000  H
  H40      1.0000 0.88770  0.62490  0.33470  Biso   1.000  H
  C35      1.0000 0.21810  0.47900  0.61460  Biso   1.000  C
  C36      1.0000 0.78190  0.52100  0.38540  Biso   1.000  C
  C37      1.0000 0.28370  0.50090  0.87930  Biso   1.000  C
  C38      1.0000 0.71630  0.49910  0.12070  Biso   1.000  C
  H41      1.0000 0.21100  0.55170  0.86930  Biso   1.000  H
  H42      1.0000 0.78900  0.44830  0.13070  Biso   1.000  H
  H43      1.0000 0.23330  0.47480  0.91670  Biso   1.000  H
  H44      1.0000 0.76670  0.52520  0.08330  Biso   1.000  H
  C39      1.0000 0.26340  0.42370  0.81800  Biso   1.000  C
  C40      1.0000 0.73660  0.57630  0.18200  Biso   1.000  C
  H45      1.0000 0.32020  0.36880  0.82940  Biso   1.000  H
  H46      1.0000 0.67980  0.63120  0.17060  Biso   1.000  H
  H47      1.0000 0.12840  0.40370  0.80130  Biso   1.000  H
  H48      1.0000 0.87160  0.59630  0.19870  Biso   1.000  H
  Cl1      1.0000 0.77770  0.33871  0.90303  Biso   1.000  Cl
  Cl2      1.0000 0.22230  0.66129  0.09697  Biso   1.000  Cl
  O33      1.0000 0.96090  0.30880  0.89920  Biso   1.000  O
  O34      1.0000 0.03910  0.69120  0.10080  Biso   1.000  O
  O35      1.0000 0.65250  0.26530  0.92400  Biso   1.000  O
  O36      1.0000 0.34750  0.73470  0.07600  Biso   1.000  O
  O37      1.0000 0.79250  0.42360  0.95280  Biso   1.000  O
  O38      1.0000 0.20750  0.57640  0.04720  Biso   1.000  O
  O39      1.0000 0.70190  0.35900  0.83940  Biso   1.000  O
  O40      1.0000 0.29810  0.64100  0.16060  Biso   1.000  O
  Cl3      1.0000 0.28810  0.83242  0.39588  Biso   1.000  Cl
  Cl4      1.0000 0.71190  0.16758  0.60412  Biso   1.000  Cl
  O41      1.0000 0.16940  0.76070  0.42030  Biso   1.000  O
  O42      1.0000 0.83060  0.23930  0.57970  Biso   1.000  O
  O43      1.0000 0.46910  0.80270  0.38720  Biso   1.000  O
  O44      1.0000 0.53090  0.19730  0.61280  Biso   1.000  O
  O45      1.0000 0.20060  0.85380  0.33510  Biso   1.000  O
  O46      1.0000 0.79940  0.14620  0.66490  Biso   1.000  O
  O47      1.0000 0.31340  0.91780  0.44620  Biso   1.000  O
  O48      1.0000 0.68660  0.08220  0.55380  Biso   1.000  O
  O49      1.0000 0.44210  0.90280  0.79000  Biso   1.000  O
  O50      1.0000 0.55790  0.09720  0.21000  Biso   1.000  O
  H49      1.0000 0.55280  0.93540  0.79310  Biso   1.000  H
  H50      1.0000 0.44720  0.06460  0.20690  Biso   1.000  H
  H51      1.0000 0.45580  0.89140  0.83020  Biso   1.000  H
  H52      1.0000 0.54420  0.10860  0.16980  Biso   1.000  H
  O51      1.0000 0.15560  0.07820  0.04440  Biso   1.000  O
  O52      1.0000 0.84440  0.92180  0.95560  Biso   1.000  O
  H53      1.0000 0.13740  0.07650  0.08520  Biso   1.000  H
  H54      1.0000 0.86260  0.92350  0.91480  Biso   1.000  H
  H55      1.0000 0.26760  0.11020  0.05190  Biso   1.000  H
  H56      1.0000 0.73240  0.88980  0.94810  Biso   1.000  H
  O53      1.0000 0.71140  0.68730  0.69160  Biso   1.000  O
  O54      1.0000 0.28860  0.31270  0.30840  Biso   1.000  O
  H57      1.0000 0.75840  0.71670  0.73050  Biso   1.000  H
  H58      1.0000 0.24160  0.28330  0.26950  Biso   1.000  H
  H59      1.0000 0.73130  0.63130  0.69660  Biso   1.000  H
  H60      1.0000 0.26870  0.36870  0.30340  Biso   1.000  H
  O55      1.0000 0.06480  0.78280  0.79660  Biso   1.000  O
  O56      1.0000 0.93520  0.21720  0.20340  Biso   1.000  O
  H61      1.0000 0.02980  0.75640  0.82920  Biso   1.000  H
  H62      1.0000 0.97020  0.24360  0.17080  Biso   1.000  H
  H63      1.0000 0.14550  0.82660  0.82060  Biso   1.000  H
  H64      1.0000 0.85450  0.17340  0.17940  Biso   1.000  H
  O57      1.0000 0.34460  0.41760  0.45700  Biso   1.000  O
  O58      1.0000 0.65540  0.58240  0.54300  Biso   1.000  O
  H65      1.0000 0.36230  0.41170  0.41560  Biso   1.000  H
  H66      1.0000 0.63770  0.58830  0.58440  Biso   1.000  H
  H67      1.0000 0.24770  0.37710  0.45940  Biso   1.000  H
  H68      1.0000 0.75230  0.62290  0.54060  Biso   1.000  H
  O59      1.0000 0.07470  0.58760  0.74100  Biso   1.000  O
  O60      1.0000 0.92530  0.41240  0.25900  Biso   1.000  O
  H69      1.0000 0.97210  0.56100  0.71620  Biso   1.000  H
  H70      1.0000 0.02790  0.43900  0.28380  Biso   1.000  H
  H71      1.0000 0.01660  0.60250  0.77520  Biso   1.000  H
  H72      1.0000 0.98340  0.39750  0.22480  Biso   1.000  H
