data_image0
_cell_length_a       7.687
_cell_length_b       15.553
_cell_length_c       12.107
_cell_angle_alpha    90
_cell_angle_beta     124.56
_cell_angle_gamma    90

_symmetry_space_group_name_H-M    "P 1"
_symmetry_int_tables_number       1

loop_
  _symmetry_equiv_pos_as_xyz
  'x, y, z'

loop_
  _atom_site_label
  _atom_site_occupancy
  _atom_site_fract_x
  _atom_site_fract_y
  _atom_site_fract_z
  _atom_site_thermal_displace_type
  _atom_site_B_iso_or_equiv
  _atom_site_type_symbol
  C1       1.0000 0.91120  0.36690  0.46610  Biso   1.000  C
  C2       1.0000 0.08880  0.86690  0.03390  Biso   1.000  C
  C3       1.0000 0.08880  0.63310  0.53390  Biso   1.000  C
  C4       1.0000 0.91120  0.13310  0.96610  Biso   1.000  C
  C5       1.0000 0.02770  0.15540  0.42880  Biso   1.000  C
  C6       1.0000 0.97230  0.65540  0.07120  Biso   1.000  C
  C7       1.0000 0.97230  0.84460  0.57120  Biso   1.000  C
  C8       1.0000 0.02770  0.34460  0.92880  Biso   1.000  C
  H1       1.0000 0.97280  0.11680  0.46020  Biso   1.000  H
  H2       1.0000 0.02720  0.61680  0.03980  Biso   1.000  H
  H3       1.0000 0.02720  0.88320  0.53980  Biso   1.000  H
  H4       1.0000 0.97280  0.38320  0.96020  Biso   1.000  H
  C9       1.0000 0.14920  0.12870  0.37430  Biso   1.000  C
  C10      1.0000 0.85080  0.62870  0.12570  Biso   1.000  C
  C11      1.0000 0.85080  0.87130  0.62570  Biso   1.000  C
  C12      1.0000 0.14920  0.37130  0.87430  Biso   1.000  C
  C13      1.0000 0.20640  0.04440  0.37220  Biso   1.000  C
  C14      1.0000 0.79360  0.54440  0.12780  Biso   1.000  C
  C15      1.0000 0.79360  0.95560  0.62780  Biso   1.000  C
  C16      1.0000 0.20640  0.45560  0.87220  Biso   1.000  C
  H5       1.0000 0.16740  0.00020  0.40550  Biso   1.000  H
  H6       1.0000 0.83260  0.50020  0.09450  Biso   1.000  H
  H7       1.0000 0.83260  0.99980  0.59450  Biso   1.000  H
  H8       1.0000 0.16740  0.49980  0.90550  Biso   1.000  H
  C17      1.0000 0.32390  0.02720  0.31910  Biso   1.000  C
  C18      1.0000 0.67610  0.52720  0.18090  Biso   1.000  C
  C19      1.0000 0.67610  0.97280  0.68090  Biso   1.000  C
  C20      1.0000 0.32390  0.47280  0.81910  Biso   1.000  C
  H9       1.0000 0.36540  0.97130  0.31780  Biso   1.000  H
  H10      1.0000 0.63460  0.47130  0.18220  Biso   1.000  H
  H11      1.0000 0.63460  0.02870  0.68220  Biso   1.000  H
  H12      1.0000 0.36540  0.52870  0.81780  Biso   1.000  H
  C21      1.0000 0.37780  0.09410  0.26850  Biso   1.000  C
  C22      1.0000 0.62220  0.59410  0.23150  Biso   1.000  C
  C23      1.0000 0.62220  0.90590  0.73150  Biso   1.000  C
  C24      1.0000 0.37780  0.40590  0.76850  Biso   1.000  C
  H13      1.0000 0.45360  0.08340  0.23140  Biso   1.000  H
  H14      1.0000 0.54640  0.58340  0.26860  Biso   1.000  H
  H15      1.0000 0.54640  0.91660  0.76860  Biso   1.000  H
  H16      1.0000 0.45360  0.41660  0.73140  Biso   1.000  H
  C25      1.0000 0.31760  0.17710  0.27380  Biso   1.000  C
  C26      1.0000 0.68240  0.67710  0.22620  Biso   1.000  C
  C27      1.0000 0.68240  0.82290  0.72620  Biso   1.000  C
  C28      1.0000 0.31760  0.32290  0.77380  Biso   1.000  C
  H17      1.0000 0.35540  0.22220  0.24100  Biso   1.000  H
  H18      1.0000 0.64460  0.72220  0.25900  Biso   1.000  H
  H19      1.0000 0.64460  0.77780  0.75900  Biso   1.000  H
  H20      1.0000 0.35540  0.27780  0.74100  Biso   1.000  H
  Cu1      1.0000 0.11979  0.30943  0.35314  Biso   1.000  Cu
  Cu2      1.0000 0.88021  0.80943  0.14686  Biso   1.000  Cu
  Cu3      1.0000 0.88021  0.69057  0.64686  Biso   1.000  Cu
  Cu4      1.0000 0.11979  0.19057  0.85314  Biso   1.000  Cu
  N1       1.0000 0.00540  0.23698  0.42850  Biso   1.000  N
  N2       1.0000 0.99460  0.73698  0.07150  Biso   1.000  N
  N3       1.0000 0.99460  0.76302  0.57150  Biso   1.000  N
  N4       1.0000 0.00540  0.26302  0.92850  Biso   1.000  N
  N5       1.0000 0.20530  0.19404  0.32550  Biso   1.000  N
  N6       1.0000 0.79470  0.69404  0.17450  Biso   1.000  N
  N7       1.0000 0.79470  0.80596  0.67450  Biso   1.000  N
  N8       1.0000 0.20530  0.30596  0.82550  Biso   1.000  N
  N9       1.0000 0.90070  0.27943  0.47330  Biso   1.000  N
  N10      1.0000 0.09930  0.77943  0.02670  Biso   1.000  N
  N11      1.0000 0.09930  0.72057  0.52670  Biso   1.000  N
  N12      1.0000 0.90070  0.22057  0.97330  Biso   1.000  N
  H21      1.0000 0.83550  0.25390  0.50280  Biso   1.000  H
  H22      1.0000 0.16450  0.75390  0.99720  Biso   1.000  H
  H23      1.0000 0.16450  0.74610  0.49720  Biso   1.000  H
  H24      1.0000 0.83550  0.24610  0.00280  Biso   1.000  H
  N13      1.0000 0.81220  0.41319  0.50590  Biso   1.000  N
  N14      1.0000 0.18780  0.91319  0.99410  Biso   1.000  N
  N15      1.0000 0.18780  0.58681  0.49410  Biso   1.000  N
  N16      1.0000 0.81220  0.08681  0.00590  Biso   1.000  N
  H25      1.0000 0.81500  0.46840  0.50350  Biso   1.000  H
  H26      1.0000 0.18500  0.96840  0.99650  Biso   1.000  H
  H27      1.0000 0.18500  0.53160  0.49650  Biso   1.000  H
  H28      1.0000 0.81500  0.03160  0.00350  Biso   1.000  H
  H29      1.0000 0.74490  0.38810  0.53430  Biso   1.000  H
  H30      1.0000 0.25510  0.88810  0.96570  Biso   1.000  H
  H31      1.0000 0.25510  0.61190  0.46570  Biso   1.000  H
  H32      1.0000 0.74490  0.11190  0.03430  Biso   1.000  H
  N17      1.0000 0.25040  0.44245  0.25590  Biso   1.000  N
  N18      1.0000 0.74960  0.94245  0.24410  Biso   1.000  N
  N19      1.0000 0.74960  0.55755  0.74410  Biso   1.000  N
  N20      1.0000 0.25040  0.05755  0.75590  Biso   1.000  N
  N21      1.0000 0.60350  0.26355  0.11370  Biso   1.000  N
  N22      1.0000 0.39650  0.76355  0.38630  Biso   1.000  N
  N23      1.0000 0.39650  0.73645  0.88630  Biso   1.000  N
  N24      1.0000 0.60350  0.23645  0.61370  Biso   1.000  N
  O1       1.0000 0.01390  0.39913  0.42290  Biso   1.000  O
  O2       1.0000 0.98610  0.89913  0.07710  Biso   1.000  O
  O3       1.0000 0.98610  0.60087  0.57710  Biso   1.000  O
  O4       1.0000 0.01390  0.10087  0.92290  Biso   1.000  O
  O5       1.0000 0.16750  0.36673  0.23150  Biso   1.000  O
  O6       1.0000 0.83250  0.86673  0.26850  Biso   1.000  O
  O7       1.0000 0.83250  0.63327  0.76850  Biso   1.000  O
  O8       1.0000 0.16750  0.13327  0.73150  Biso   1.000  O
  O9       1.0000 0.24060  0.47942  0.16250  Biso   1.000  O
  O10      1.0000 0.75940  0.97942  0.33750  Biso   1.000  O
  O11      1.0000 0.75940  0.52058  0.83750  Biso   1.000  O
  O12      1.0000 0.24060  0.02058  0.66250  Biso   1.000  O
  O13      1.0000 0.32880  0.47310  0.36640  Biso   1.000  O
  O14      1.0000 0.67120  0.97310  0.13360  Biso   1.000  O
  O15      1.0000 0.67120  0.52690  0.63360  Biso   1.000  O
  O16      1.0000 0.32880  0.02690  0.86640  Biso   1.000  O
  O17      1.0000 0.76550  0.29378  0.12260  Biso   1.000  O
  O18      1.0000 0.23450  0.79378  0.37740  Biso   1.000  O
  O19      1.0000 0.23450  0.70622  0.87740  Biso   1.000  O
  O20      1.0000 0.76550  0.20622  0.62260  Biso   1.000  O
  O21      1.0000 0.52690  0.19303  0.05600  Biso   1.000  O
  O22      1.0000 0.47310  0.69303  0.44400  Biso   1.000  O
  O23      1.0000 0.47310  0.80697  0.94400  Biso   1.000  O
  O24      1.0000 0.52690  0.30697  0.55600  Biso   1.000  O
  O25      1.0000 0.52320  0.30498  0.16160  Biso   1.000  O
  O26      1.0000 0.47680  0.80498  0.33840  Biso   1.000  O
  O27      1.0000 0.47680  0.69502  0.83840  Biso   1.000  O
  O28      1.0000 0.52320  0.19502  0.66160  Biso   1.000  O
