data_image0
_cell_length_a       8.541
_cell_length_b       10.354
_cell_length_c       15.73
_cell_angle_alpha    85.87
_cell_angle_beta     75.09
_cell_angle_gamma    66.35

_symmetry_space_group_name_H-M    "P 1"
_symmetry_int_tables_number       1

loop_
  _symmetry_equiv_pos_as_xyz
  'x, y, z'

loop_
  _atom_site_label
  _atom_site_occupancy
  _atom_site_fract_x
  _atom_site_fract_y
  _atom_site_fract_z
  _atom_site_thermal_displace_type
  _atom_site_B_iso_or_equiv
  _atom_site_type_symbol
  Cu1      1.0000 0.01060  0.11290  0.92997  Biso   1.000  Cu
  Cu2      1.0000 0.98940  0.88710  0.07003  Biso   1.000  Cu
  O1       1.0000 0.83930  0.05540  0.01850  Biso   1.000  O
  O2       1.0000 0.16070  0.94460  0.98150  Biso   1.000  O
  N1       1.0000 0.21340  0.15340  0.86070  Biso   1.000  N
  N2       1.0000 0.78660  0.84660  0.13930  Biso   1.000  N
  N3       1.0000 0.82100  0.28540  0.90650  Biso   1.000  N
  N4       1.0000 0.17900  0.71460  0.09350  Biso   1.000  N
  N5       1.0000 0.00930  0.98780  0.80510  Biso   1.000  N
  N6       1.0000 0.99070  0.01220  0.19490  Biso   1.000  N
  N7       1.0000 0.43100  0.04290  0.62810  Biso   1.000  N
  N8       1.0000 0.56900  0.95710  0.37190  Biso   1.000  N
  N9       1.0000 0.63700  0.27560  0.73440  Biso   1.000  N
  N10      1.0000 0.36300  0.72440  0.26560  Biso   1.000  N
  N11      1.0000 0.06900  0.36340  0.56380  Biso   1.000  N
  N12      1.0000 0.93100  0.63660  0.43620  Biso   1.000  N
  N13      1.0000 0.64200  0.40080  0.13450  Biso   1.000  N
  N14      1.0000 0.35800  0.59920  0.86550  Biso   1.000  N
  N15      1.0000 0.22300  0.29500  0.30270  Biso   1.000  N
  N16      1.0000 0.77700  0.70500  0.69730  Biso   1.000  N
  Br1      1.0000 0.03740  0.29880  0.08170  Biso   1.000  Br
  Br2      1.0000 0.96260  0.70120  0.91830  Biso   1.000  Br
  F1       1.0000 0.04100  0.39640  0.02520  Biso   1.000  F
  F2       1.0000 0.95900  0.60360  0.97480  Biso   1.000  F
  F3       1.0000 0.03300  0.19570  0.07410  Biso   1.000  F
  F4       1.0000 0.96700  0.80430  0.92590  Biso   1.000  F
  F5       1.0000 0.02000  0.35160  0.16420  Biso   1.000  F
  F6       1.0000 0.98000  0.64840  0.83580  Biso   1.000  F
  C1       1.0000 0.66300  0.10890  0.03250  Biso   1.000  C
  C2       1.0000 0.33700  0.89110  0.96750  Biso   1.000  C
  C3       1.0000 0.57300  0.23170  0.98820  Biso   1.000  C
  C4       1.0000 0.42700  0.76830  0.01180  Biso   1.000  C
  C5       1.0000 0.39200  0.28450  0.00330  Biso   1.000  C
  C6       1.0000 0.60800  0.71550  0.99670  Biso   1.000  C
  C7       1.0000 0.28780  0.22980  0.06540  Biso   1.000  C
  C8       1.0000 0.71220  0.77020  0.93460  Biso   1.000  C
  C9       1.0000 0.37100  0.11260  0.10930  Biso   1.000  C
  C10      1.0000 0.62900  0.88740  0.89070  Biso   1.000  C
  C11      1.0000 0.55700  0.05310  0.09550  Biso   1.000  C
  C12      1.0000 0.44300  0.94690  0.90450  Biso   1.000  C
  C13      1.0000 0.07400  0.00090  0.57060  Biso   1.000  C
  C14      1.0000 0.92600  0.99910  0.42940  Biso   1.000  C
  C15      1.0000 0.91900  0.97320  0.58480  Biso   1.000  C
  C16      1.0000 0.08100  0.02680  0.41520  Biso   1.000  C
  C17      1.0000 0.15400  0.02460  0.48380  Biso   1.000  C
  C18      1.0000 0.84600  0.97540  0.51620  Biso   1.000  C
  C19      1.0000 0.65900  0.30980  0.93240  Biso   1.000  C
  C20      1.0000 0.34100  0.69020  0.06760  Biso   1.000  C
  C21      1.0000 0.72100  0.32300  0.50560  Biso   1.000  C
  C22      1.0000 0.27900  0.67700  0.49440  Biso   1.000  C
  C23      1.0000 0.80700  0.34900  0.41920  Biso   1.000  C
  C24      1.0000 0.19300  0.65100  0.58080  Biso   1.000  C
  C25      1.0000 0.74000  0.34930  0.35090  Biso   1.000  C
  C26      1.0000 0.26000  0.65070  0.64910  Biso   1.000  C
  C27      1.0000 0.58300  0.32400  0.36030  Biso   1.000  C
  C28      1.0000 0.41700  0.67600  0.63970  Biso   1.000  C
  C29      1.0000 0.49700  0.29700  0.44680  Biso   1.000  C
  C30      1.0000 0.50300  0.70300  0.55320  Biso   1.000  C
  C31      1.0000 0.56200  0.29690  0.51650  Biso   1.000  C
  C32      1.0000 0.43800  0.70310  0.48350  Biso   1.000  C
  C33      1.0000 0.09000  0.29400  0.08300  Biso   1.000  C
  C34      1.0000 0.91000  0.70600  0.91700  Biso   1.000  C
  C35      1.0000 0.37400  0.07300  0.85700  Biso   1.000  C
  C36      1.0000 0.62600  0.92700  0.14300  Biso   1.000  C
  C37      1.0000 0.15000  0.99900  0.64170  Biso   1.000  C
  C38      1.0000 0.85000  0.00100  0.35830  Biso   1.000  C
  C39      1.0000 0.06700  0.99030  0.73010  Biso   1.000  C
  C40      1.0000 0.93300  0.00970  0.26990  Biso   1.000  C
  C41      1.0000 0.30700  0.02340  0.63080  Biso   1.000  C
  C42      1.0000 0.69300  0.97660  0.36920  Biso   1.000  C
  C43      1.0000 0.86600  0.39600  0.85280  Biso   1.000  C
  C44      1.0000 0.13400  0.60400  0.14720  Biso   1.000  C
  C45      1.0000 0.02400  0.34200  0.77640  Biso   1.000  C
  C46      1.0000 0.97600  0.65800  0.22360  Biso   1.000  C
  C47      1.0000 0.19400  0.28100  0.80560  Biso   1.000  C
  C48      1.0000 0.80600  0.71900  0.19440  Biso   1.000  C
  C49      1.0000 0.78800  0.32280  0.57820  Biso   1.000  C
  C50      1.0000 0.21200  0.67720  0.42180  Biso   1.000  C
  C51      1.0000 0.70300  0.29700  0.66450  Biso   1.000  C
  C52      1.0000 0.29700  0.70300  0.33550  Biso   1.000  C
  C53      1.0000 0.94500  0.34410  0.56880  Biso   1.000  C
  C54      1.0000 0.05500  0.65590  0.43120  Biso   1.000  C
  C55      1.0000 0.51000  0.33170  0.28900  Biso   1.000  C
  C56      1.0000 0.49000  0.66830  0.71100  Biso   1.000  C
  C57      1.0000 0.58500  0.36870  0.20360  Biso   1.000  C
  C58      1.0000 0.41500  0.63130  0.79640  Biso   1.000  C
  C59      1.0000 0.35000  0.31200  0.29810  Biso   1.000  C
  C60      1.0000 0.65000  0.68800  0.70190  Biso   1.000  C
  H1       1.0000 0.33560  0.36200  0.97000  Biso   1.000  H
  H2       1.0000 0.66440  0.63800  0.03000  Biso   1.000  H
  H3       1.0000 0.30170  0.07080  0.15050  Biso   1.000  H
  H4       1.0000 0.69830  0.92920  0.84950  Biso   1.000  H
  H5       1.0000 0.86450  0.95290  0.64270  Biso   1.000  H
  H6       1.0000 0.13550  0.04710  0.35730  Biso   1.000  H
  H7       1.0000 0.26150  0.03840  0.47320  Biso   1.000  H
  H8       1.0000 0.73850  0.96160  0.52680  Biso   1.000  H
  H9       1.0000 0.58200  0.39500  0.91100  Biso   1.000  H
  H10      1.0000 0.41800  0.60500  0.08900  Biso   1.000  H
  H11      1.0000 0.91150  0.36670  0.40990  Biso   1.000  H
  H12      1.0000 0.08850  0.63330  0.59010  Biso   1.000  H
  H13      1.0000 0.79850  0.36780  0.29360  Biso   1.000  H
  H14      1.0000 0.20150  0.63220  0.70640  Biso   1.000  H
  H15      1.0000 0.39130  0.28030  0.45580  Biso   1.000  H
  H16      1.0000 0.60870  0.71970  0.54420  Biso   1.000  H
  H17      1.0000 0.50330  0.27870  0.57380  Biso   1.000  H
  H18      1.0000 0.49670  0.72130  0.42620  Biso   1.000  H
  H19      1.0000 0.46000  0.09950  0.81650  Biso   1.000  H
  H20      1.0000 0.54000  0.90050  0.18350  Biso   1.000  H
  H21      1.0000 0.88930  0.45280  0.88990  Biso   1.000  H
  H22      1.0000 0.11070  0.54720  0.11010  Biso   1.000  H
  H23      1.0000 0.76780  0.45480  0.82980  Biso   1.000  H
  H24      1.0000 0.23220  0.54520  0.17020  Biso   1.000  H
  H25      1.0000 0.02640  0.41670  0.73730  Biso   1.000  H
  H26      1.0000 0.97360  0.58330  0.26270  Biso   1.000  H
  H27      1.0000 0.01660  0.26810  0.74570  Biso   1.000  H
  H28      1.0000 0.98340  0.73190  0.25430  Biso   1.000  H
  H29      1.0000 0.19920  0.35320  0.83850  Biso   1.000  H
  H30      1.0000 0.80080  0.64680  0.16150  Biso   1.000  H
  H31      1.0000 0.29150  0.25460  0.75360  Biso   1.000  H
  H32      1.0000 0.70850  0.74540  0.24640  Biso   1.000  H
