data_image0
_cell_length_a       13.5893
_cell_length_b       19.974
_cell_length_c       19.893
_cell_angle_alpha    90
_cell_angle_beta     90
_cell_angle_gamma    90

_symmetry_space_group_name_H-M    "P 1"
_symmetry_int_tables_number       1

loop_
  _symmetry_equiv_pos_as_xyz
  'x, y, z'

loop_
  _atom_site_label
  _atom_site_occupancy
  _atom_site_fract_x
  _atom_site_fract_y
  _atom_site_fract_z
  _atom_site_thermal_displace_type
  _atom_site_B_iso_or_equiv
  _atom_site_type_symbol
  Cu1      1.0000 0.75062  0.50000  0.00000  Biso   1.000  Cu
  Cu2      1.0000 0.24938  0.00000  0.50000  Biso   1.000  Cu
  Cu3      1.0000 0.25062  0.00000  0.00000  Biso   1.000  Cu
  Cu4      1.0000 0.74938  0.50000  0.50000  Biso   1.000  Cu
  Cu5      1.0000 0.24938  0.50000  0.00000  Biso   1.000  Cu
  Cu6      1.0000 0.75062  0.00000  0.50000  Biso   1.000  Cu
  Cu7      1.0000 0.74938  0.00000  0.00000  Biso   1.000  Cu
  Cu8      1.0000 0.25062  0.50000  0.50000  Biso   1.000  Cu
  F1       1.0000 0.61030  0.50000  0.00000  Biso   1.000  F
  F2       1.0000 0.38970  0.00000  0.50000  Biso   1.000  F
  F3       1.0000 0.11030  0.00000  0.00000  Biso   1.000  F
  F4       1.0000 0.88970  0.50000  0.50000  Biso   1.000  F
  F5       1.0000 0.38970  0.50000  0.00000  Biso   1.000  F
  F6       1.0000 0.61030  0.00000  0.50000  Biso   1.000  F
  F7       1.0000 0.88970  0.00000  0.00000  Biso   1.000  F
  F8       1.0000 0.11030  0.50000  0.50000  Biso   1.000  F
  F9       1.0000 0.89060  0.50000  0.00000  Biso   1.000  F
  F10      1.0000 0.10940  0.00000  0.50000  Biso   1.000  F
  F11      1.0000 0.39060  0.00000  0.00000  Biso   1.000  F
  F12      1.0000 0.60940  0.50000  0.50000  Biso   1.000  F
  F13      1.0000 0.10940  0.50000  0.00000  Biso   1.000  F
  F14      1.0000 0.89060  0.00000  0.50000  Biso   1.000  F
  F15      1.0000 0.60940  0.00000  0.00000  Biso   1.000  F
  F16      1.0000 0.39060  0.50000  0.50000  Biso   1.000  F
  Cu9      1.0000 0.75000  0.26065  0.25000  Biso   1.000  Cu
  Cu10     1.0000 0.25000  0.23935  0.75000  Biso   1.000  Cu
  Cu11     1.0000 0.25000  0.76065  0.25000  Biso   1.000  Cu
  Cu12     1.0000 0.75000  0.73935  0.75000  Biso   1.000  Cu
  Cu13     1.0000 0.25000  0.73935  0.75000  Biso   1.000  Cu
  Cu14     1.0000 0.75000  0.76065  0.25000  Biso   1.000  Cu
  Cu15     1.0000 0.75000  0.23935  0.75000  Biso   1.000  Cu
  Cu16     1.0000 0.25000  0.26065  0.25000  Biso   1.000  Cu
  F17      1.0000 0.91607  0.26211  0.24983  Biso   1.000  F
  F18      1.0000 0.08393  0.23789  0.74983  Biso   1.000  F
  F19      1.0000 0.08393  0.76211  0.25017  Biso   1.000  F
  F20      1.0000 0.91607  0.73789  0.75017  Biso   1.000  F
  F21      1.0000 0.41607  0.76211  0.24983  Biso   1.000  F
  F22      1.0000 0.58393  0.73789  0.74983  Biso   1.000  F
  F23      1.0000 0.58393  0.26211  0.25017  Biso   1.000  F
  F24      1.0000 0.41607  0.23789  0.75017  Biso   1.000  F
  F25      1.0000 0.08393  0.73789  0.75017  Biso   1.000  F
  F26      1.0000 0.91607  0.76211  0.25017  Biso   1.000  F
  F27      1.0000 0.91607  0.23789  0.74983  Biso   1.000  F
  F28      1.0000 0.08393  0.26211  0.24983  Biso   1.000  F
  F29      1.0000 0.58393  0.23789  0.75017  Biso   1.000  F
  F30      1.0000 0.41607  0.26211  0.25017  Biso   1.000  F
  F31      1.0000 0.41607  0.73789  0.74983  Biso   1.000  F
  F32      1.0000 0.58393  0.76211  0.24983  Biso   1.000  F
  H1       1.0000 0.00000  0.26400  0.24700  Biso   1.000  H
  H2       1.0000 0.00000  0.23600  0.74700  Biso   1.000  H
  H3       1.0000 0.00000  0.76400  0.25300  Biso   1.000  H
  H4       1.0000 0.00000  0.73600  0.75300  Biso   1.000  H
  H5       1.0000 0.50000  0.76400  0.24700  Biso   1.000  H
  H6       1.0000 0.50000  0.73600  0.74700  Biso   1.000  H
  H7       1.0000 0.50000  0.26400  0.25300  Biso   1.000  H
  H8       1.0000 0.50000  0.23600  0.75300  Biso   1.000  H
  N1       1.0000 0.75098  0.42707  0.07561  Biso   1.000  N
  N2       1.0000 0.24902  0.07293  0.57561  Biso   1.000  N
  N3       1.0000 0.24902  0.92707  0.42439  Biso   1.000  N
  N4       1.0000 0.75098  0.57293  0.92439  Biso   1.000  N
  N5       1.0000 0.25098  0.92707  0.07561  Biso   1.000  N
  N6       1.0000 0.74902  0.57293  0.57561  Biso   1.000  N
  N7       1.0000 0.74902  0.42707  0.42439  Biso   1.000  N
  N8       1.0000 0.25098  0.07293  0.92439  Biso   1.000  N
  N9       1.0000 0.24902  0.57293  0.92439  Biso   1.000  N
  N10      1.0000 0.75098  0.92707  0.42439  Biso   1.000  N
  N11      1.0000 0.75098  0.07293  0.57561  Biso   1.000  N
  N12      1.0000 0.24902  0.42707  0.07561  Biso   1.000  N
  N13      1.0000 0.74902  0.07293  0.92439  Biso   1.000  N
  N14      1.0000 0.25098  0.42707  0.42439  Biso   1.000  N
  N15      1.0000 0.25098  0.57293  0.57561  Biso   1.000  N
  N16      1.0000 0.74902  0.92707  0.07561  Biso   1.000  N
  N17      1.0000 0.75033  0.33150  0.17730  Biso   1.000  N
  N18      1.0000 0.24967  0.16850  0.67730  Biso   1.000  N
  N19      1.0000 0.24967  0.83150  0.32270  Biso   1.000  N
  N20      1.0000 0.75033  0.66850  0.82270  Biso   1.000  N
  N21      1.0000 0.25033  0.83150  0.17730  Biso   1.000  N
  N22      1.0000 0.74967  0.66850  0.67730  Biso   1.000  N
  N23      1.0000 0.74967  0.33150  0.32270  Biso   1.000  N
  N24      1.0000 0.25033  0.16850  0.82270  Biso   1.000  N
  N25      1.0000 0.24967  0.66850  0.82270  Biso   1.000  N
  N26      1.0000 0.75033  0.83150  0.32270  Biso   1.000  N
  N27      1.0000 0.75033  0.16850  0.67730  Biso   1.000  N
  N28      1.0000 0.24967  0.33150  0.17730  Biso   1.000  N
  N29      1.0000 0.74967  0.16850  0.82270  Biso   1.000  N
  N30      1.0000 0.25033  0.33150  0.32270  Biso   1.000  N
  N31      1.0000 0.25033  0.66850  0.67730  Biso   1.000  N
  N32      1.0000 0.74967  0.83150  0.17730  Biso   1.000  N
  C1       1.0000 0.67520  0.38428  0.08341  Biso   1.000  C
  C2       1.0000 0.32480  0.11572  0.58341  Biso   1.000  C
  C3       1.0000 0.32480  0.88428  0.41659  Biso   1.000  C
  C4       1.0000 0.67520  0.61572  0.91659  Biso   1.000  C
  C5       1.0000 0.17520  0.88428  0.08341  Biso   1.000  C
  C6       1.0000 0.82480  0.61572  0.58341  Biso   1.000  C
  C7       1.0000 0.82480  0.38428  0.41659  Biso   1.000  C
  C8       1.0000 0.17520  0.11572  0.91659  Biso   1.000  C
  C9       1.0000 0.32480  0.61572  0.91659  Biso   1.000  C
  C10      1.0000 0.67520  0.88428  0.41659  Biso   1.000  C
  C11      1.0000 0.67520  0.11572  0.58341  Biso   1.000  C
  C12      1.0000 0.32480  0.38428  0.08341  Biso   1.000  C
  C13      1.0000 0.82480  0.11572  0.91659  Biso   1.000  C
  C14      1.0000 0.17520  0.38428  0.41659  Biso   1.000  C
  C15      1.0000 0.17520  0.61572  0.58341  Biso   1.000  C
  C16      1.0000 0.82480  0.88428  0.08341  Biso   1.000  C
  H9       1.0000 0.62080  0.38690  0.05350  Biso   1.000  H
  H10      1.0000 0.37920  0.11310  0.55350  Biso   1.000  H
  H11      1.0000 0.37920  0.88690  0.44650  Biso   1.000  H
  H12      1.0000 0.62080  0.61310  0.94650  Biso   1.000  H
  H13      1.0000 0.12080  0.88690  0.05350  Biso   1.000  H
  H14      1.0000 0.87920  0.61310  0.55350  Biso   1.000  H
  H15      1.0000 0.87920  0.38690  0.44650  Biso   1.000  H
  H16      1.0000 0.12080  0.11310  0.94650  Biso   1.000  H
  H17      1.0000 0.37920  0.61310  0.94650  Biso   1.000  H
  H18      1.0000 0.62080  0.88690  0.44650  Biso   1.000  H
  H19      1.0000 0.62080  0.11310  0.55350  Biso   1.000  H
  H20      1.0000 0.37920  0.38690  0.05350  Biso   1.000  H
  H21      1.0000 0.87920  0.11310  0.94650  Biso   1.000  H
  H22      1.0000 0.12080  0.38690  0.44650  Biso   1.000  H
  H23      1.0000 0.12080  0.61310  0.55350  Biso   1.000  H
  H24      1.0000 0.87920  0.88690  0.05350  Biso   1.000  H
  C17      1.0000 0.67470  0.33667  0.13378  Biso   1.000  C
  C18      1.0000 0.32530  0.16333  0.63378  Biso   1.000  C
  C19      1.0000 0.32530  0.83667  0.36622  Biso   1.000  C
  C20      1.0000 0.67470  0.66333  0.86622  Biso   1.000  C
  C21      1.0000 0.17470  0.83667  0.13378  Biso   1.000  C
  C22      1.0000 0.82530  0.66333  0.63378  Biso   1.000  C
  C23      1.0000 0.82530  0.33667  0.36622  Biso   1.000  C
  C24      1.0000 0.17470  0.16333  0.86622  Biso   1.000  C
  C25      1.0000 0.32530  0.66333  0.86622  Biso   1.000  C
  C26      1.0000 0.67470  0.83667  0.36622  Biso   1.000  C
  C27      1.0000 0.67470  0.16333  0.63378  Biso   1.000  C
  C28      1.0000 0.32530  0.33667  0.13378  Biso   1.000  C
  C29      1.0000 0.82530  0.16333  0.86622  Biso   1.000  C
  C30      1.0000 0.17470  0.33667  0.36622  Biso   1.000  C
  C31      1.0000 0.17470  0.66333  0.63378  Biso   1.000  C
  C32      1.0000 0.82530  0.83667  0.13378  Biso   1.000  C
  H25      1.0000 0.62030  0.30710  0.13780  Biso   1.000  H
  H26      1.0000 0.37970  0.19290  0.63780  Biso   1.000  H
  H27      1.0000 0.37970  0.80710  0.36220  Biso   1.000  H
  H28      1.0000 0.62030  0.69290  0.86220  Biso   1.000  H
  H29      1.0000 0.12030  0.80710  0.13780  Biso   1.000  H
  H30      1.0000 0.87970  0.69290  0.63780  Biso   1.000  H
  H31      1.0000 0.87970  0.30710  0.36220  Biso   1.000  H
  H32      1.0000 0.12030  0.19290  0.86220  Biso   1.000  H
  H33      1.0000 0.37970  0.69290  0.86220  Biso   1.000  H
  H34      1.0000 0.62030  0.80710  0.36220  Biso   1.000  H
  H35      1.0000 0.62030  0.19290  0.63780  Biso   1.000  H
  H36      1.0000 0.37970  0.30710  0.13780  Biso   1.000  H
  H37      1.0000 0.87970  0.19290  0.86220  Biso   1.000  H
  H38      1.0000 0.12030  0.30710  0.36220  Biso   1.000  H
  H39      1.0000 0.12030  0.69290  0.63780  Biso   1.000  H
  H40      1.0000 0.87970  0.80710  0.13780  Biso   1.000  H
  C33      1.0000 0.82510  0.42129  0.11885  Biso   1.000  C
  C34      1.0000 0.17490  0.07871  0.61885  Biso   1.000  C
  C35      1.0000 0.17490  0.92129  0.38115  Biso   1.000  C
  C36      1.0000 0.82510  0.57871  0.88115  Biso   1.000  C
  C37      1.0000 0.32510  0.92129  0.11885  Biso   1.000  C
  C38      1.0000 0.67490  0.57871  0.61885  Biso   1.000  C
  C39      1.0000 0.67490  0.42129  0.38115  Biso   1.000  C
  C40      1.0000 0.32510  0.07871  0.88115  Biso   1.000  C
  C41      1.0000 0.17490  0.57871  0.88115  Biso   1.000  C
  C42      1.0000 0.82510  0.92129  0.38115  Biso   1.000  C
  C43      1.0000 0.82510  0.07871  0.61885  Biso   1.000  C
  C44      1.0000 0.17490  0.42129  0.11885  Biso   1.000  C
  C45      1.0000 0.67490  0.07871  0.88115  Biso   1.000  C
  C46      1.0000 0.32510  0.42129  0.38115  Biso   1.000  C
  C47      1.0000 0.32510  0.57871  0.61885  Biso   1.000  C
  C48      1.0000 0.67490  0.92129  0.11885  Biso   1.000  C
  H41      1.0000 0.87990  0.45050  0.11460  Biso   1.000  H
  H42      1.0000 0.12010  0.04950  0.61460  Biso   1.000  H
  H43      1.0000 0.12010  0.95050  0.38540  Biso   1.000  H
  H44      1.0000 0.87990  0.54950  0.88540  Biso   1.000  H
  H45      1.0000 0.37990  0.95050  0.11460  Biso   1.000  H
  H46      1.0000 0.62010  0.54950  0.61460  Biso   1.000  H
  H47      1.0000 0.62010  0.45050  0.38540  Biso   1.000  H
  H48      1.0000 0.37990  0.04950  0.88540  Biso   1.000  H
  H49      1.0000 0.12010  0.54950  0.88540  Biso   1.000  H
  H50      1.0000 0.87990  0.95050  0.38540  Biso   1.000  H
  H51      1.0000 0.87990  0.04950  0.61460  Biso   1.000  H
  H52      1.0000 0.12010  0.45050  0.11460  Biso   1.000  H
  H53      1.0000 0.62010  0.04950  0.88540  Biso   1.000  H
  H54      1.0000 0.37990  0.45050  0.38540  Biso   1.000  H
  H55      1.0000 0.37990  0.54950  0.61460  Biso   1.000  H
  H56      1.0000 0.62010  0.95050  0.11460  Biso   1.000  H
  C49      1.0000 0.82500  0.37401  0.16995  Biso   1.000  C
  C50      1.0000 0.17500  0.12599  0.66995  Biso   1.000  C
  C51      1.0000 0.17500  0.87401  0.33005  Biso   1.000  C
  C52      1.0000 0.82500  0.62599  0.83005  Biso   1.000  C
  C53      1.0000 0.32500  0.87401  0.16995  Biso   1.000  C
  C54      1.0000 0.67500  0.62599  0.66995  Biso   1.000  C
  C55      1.0000 0.67500  0.37401  0.33005  Biso   1.000  C
  C56      1.0000 0.32500  0.12599  0.83005  Biso   1.000  C
  C57      1.0000 0.17500  0.62599  0.83005  Biso   1.000  C
  C58      1.0000 0.82500  0.87401  0.33005  Biso   1.000  C
  C59      1.0000 0.82500  0.12599  0.66995  Biso   1.000  C
  C60      1.0000 0.17500  0.37401  0.16995  Biso   1.000  C
  C61      1.0000 0.67500  0.12599  0.83005  Biso   1.000  C
  C62      1.0000 0.32500  0.37401  0.33005  Biso   1.000  C
  C63      1.0000 0.32500  0.62599  0.66995  Biso   1.000  C
  C64      1.0000 0.67500  0.87401  0.16995  Biso   1.000  C
  H57      1.0000 0.87910  0.37190  0.20020  Biso   1.000  H
  H58      1.0000 0.12090  0.12810  0.70020  Biso   1.000  H
  H59      1.0000 0.12090  0.87190  0.29980  Biso   1.000  H
  H60      1.0000 0.87910  0.62810  0.79980  Biso   1.000  H
  H61      1.0000 0.37910  0.87190  0.20020  Biso   1.000  H
  H62      1.0000 0.62090  0.62810  0.70020  Biso   1.000  H
  H63      1.0000 0.62090  0.37190  0.29980  Biso   1.000  H
  H64      1.0000 0.37910  0.12810  0.79980  Biso   1.000  H
  H65      1.0000 0.12090  0.62810  0.79980  Biso   1.000  H
  H66      1.0000 0.87910  0.87190  0.29980  Biso   1.000  H
  H67      1.0000 0.87910  0.12810  0.70020  Biso   1.000  H
  H68      1.0000 0.12090  0.37190  0.20020  Biso   1.000  H
  H69      1.0000 0.62090  0.12810  0.79980  Biso   1.000  H
  H70      1.0000 0.37910  0.37190  0.29980  Biso   1.000  H
  H71      1.0000 0.37910  0.62810  0.70020  Biso   1.000  H
  H72      1.0000 0.62090  0.87190  0.20020  Biso   1.000  H
  N33      1.0000 0.75162  0.68852  0.17897  Biso   1.000  N
  N34      1.0000 0.24838  0.81148  0.67897  Biso   1.000  N
  N35      1.0000 0.24838  0.18852  0.32103  Biso   1.000  N
  N36      1.0000 0.75162  0.31148  0.82103  Biso   1.000  N
  N37      1.0000 0.25162  0.18852  0.17897  Biso   1.000  N
  N38      1.0000 0.74838  0.31148  0.67897  Biso   1.000  N
  N39      1.0000 0.74838  0.68852  0.32103  Biso   1.000  N
  N40      1.0000 0.25162  0.81148  0.82103  Biso   1.000  N
  N41      1.0000 0.24838  0.31148  0.82103  Biso   1.000  N
  N42      1.0000 0.75162  0.18852  0.32103  Biso   1.000  N
  N43      1.0000 0.75162  0.81148  0.67897  Biso   1.000  N
  N44      1.0000 0.24838  0.68852  0.17897  Biso   1.000  N
  N45      1.0000 0.74838  0.81148  0.82103  Biso   1.000  N
  N46      1.0000 0.25162  0.68852  0.32103  Biso   1.000  N
  N47      1.0000 0.25162  0.31148  0.67897  Biso   1.000  N
  N48      1.0000 0.74838  0.18852  0.17897  Biso   1.000  N
  N49      1.0000 0.75110  0.58619  0.08440  Biso   1.000  N
  N50      1.0000 0.24890  0.91381  0.58440  Biso   1.000  N
  N51      1.0000 0.24890  0.08619  0.41560  Biso   1.000  N
  N52      1.0000 0.75110  0.41381  0.91560  Biso   1.000  N
  N53      1.0000 0.25110  0.08619  0.08440  Biso   1.000  N
  N54      1.0000 0.74890  0.41381  0.58440  Biso   1.000  N
  N55      1.0000 0.74890  0.58619  0.41560  Biso   1.000  N
  N56      1.0000 0.25110  0.91381  0.91560  Biso   1.000  N
  N57      1.0000 0.24890  0.41381  0.91560  Biso   1.000  N
  N58      1.0000 0.75110  0.08619  0.41560  Biso   1.000  N
  N59      1.0000 0.75110  0.91381  0.58440  Biso   1.000  N
  N60      1.0000 0.24890  0.58619  0.08440  Biso   1.000  N
  N61      1.0000 0.74890  0.91381  0.91560  Biso   1.000  N
  N62      1.0000 0.25110  0.58619  0.41560  Biso   1.000  N
  N63      1.0000 0.25110  0.41381  0.58440  Biso   1.000  N
  N64      1.0000 0.74890  0.08619  0.08440  Biso   1.000  N
  C65      1.0000 0.82770  0.64721  0.17258  Biso   1.000  C
  C66      1.0000 0.17230  0.85279  0.67258  Biso   1.000  C
  C67      1.0000 0.17230  0.14721  0.32742  Biso   1.000  C
  C68      1.0000 0.82770  0.35279  0.82742  Biso   1.000  C
  C69      1.0000 0.32770  0.14721  0.17258  Biso   1.000  C
  C70      1.0000 0.67230  0.35279  0.67258  Biso   1.000  C
  C71      1.0000 0.67230  0.64721  0.32742  Biso   1.000  C
  C72      1.0000 0.32770  0.85279  0.82742  Biso   1.000  C
  C73      1.0000 0.17230  0.35279  0.82742  Biso   1.000  C
  C74      1.0000 0.82770  0.14721  0.32742  Biso   1.000  C
  C75      1.0000 0.82770  0.85279  0.67258  Biso   1.000  C
  C76      1.0000 0.17230  0.64721  0.17258  Biso   1.000  C
  C77      1.0000 0.67230  0.85279  0.82742  Biso   1.000  C
  C78      1.0000 0.32770  0.64721  0.32742  Biso   1.000  C
  C79      1.0000 0.32770  0.35279  0.67258  Biso   1.000  C
  C80      1.0000 0.67230  0.14721  0.17258  Biso   1.000  C
  H73      1.0000 0.88330  0.65240  0.20110  Biso   1.000  H
  H74      1.0000 0.11670  0.84760  0.70110  Biso   1.000  H
  H75      1.0000 0.11670  0.15240  0.29890  Biso   1.000  H
  H76      1.0000 0.88330  0.34760  0.79890  Biso   1.000  H
  H77      1.0000 0.38330  0.15240  0.20110  Biso   1.000  H
  H78      1.0000 0.61670  0.34760  0.70110  Biso   1.000  H
  H79      1.0000 0.61670  0.65240  0.29890  Biso   1.000  H
  H80      1.0000 0.38330  0.84760  0.79890  Biso   1.000  H
  H81      1.0000 0.11670  0.34760  0.79890  Biso   1.000  H
  H82      1.0000 0.88330  0.15240  0.29890  Biso   1.000  H
  H83      1.0000 0.88330  0.84760  0.70110  Biso   1.000  H
  H84      1.0000 0.11670  0.65240  0.20110  Biso   1.000  H
  H85      1.0000 0.61670  0.84760  0.79890  Biso   1.000  H
  H86      1.0000 0.38330  0.65240  0.29890  Biso   1.000  H
  H87      1.0000 0.38330  0.34760  0.70110  Biso   1.000  H
  H88      1.0000 0.61670  0.15240  0.20110  Biso   1.000  H
  C81      1.0000 0.82680  0.59671  0.12484  Biso   1.000  C
  C82      1.0000 0.17320  0.90329  0.62484  Biso   1.000  C
  C83      1.0000 0.17320  0.09671  0.37516  Biso   1.000  C
  C84      1.0000 0.82680  0.40329  0.87516  Biso   1.000  C
  C85      1.0000 0.32680  0.09671  0.12484  Biso   1.000  C
  C86      1.0000 0.67320  0.40329  0.62484  Biso   1.000  C
  C87      1.0000 0.67320  0.59671  0.37516  Biso   1.000  C
  C88      1.0000 0.32680  0.90329  0.87516  Biso   1.000  C
  C89      1.0000 0.17320  0.40329  0.87516  Biso   1.000  C
  C90      1.0000 0.82680  0.09671  0.37516  Biso   1.000  C
  C91      1.0000 0.82680  0.90329  0.62484  Biso   1.000  C
  C92      1.0000 0.17320  0.59671  0.12484  Biso   1.000  C
  C93      1.0000 0.67320  0.90329  0.87516  Biso   1.000  C
  C94      1.0000 0.32680  0.59671  0.37516  Biso   1.000  C
  C95      1.0000 0.32680  0.40329  0.62484  Biso   1.000  C
  C96      1.0000 0.67320  0.09671  0.12484  Biso   1.000  C
  H89      1.0000 0.88280  0.56850  0.12100  Biso   1.000  H
  H90      1.0000 0.11720  0.93150  0.62100  Biso   1.000  H
  H91      1.0000 0.11720  0.06850  0.37900  Biso   1.000  H
  H92      1.0000 0.88280  0.43150  0.87900  Biso   1.000  H
  H93      1.0000 0.38280  0.06850  0.12100  Biso   1.000  H
  H94      1.0000 0.61720  0.43150  0.62100  Biso   1.000  H
  H95      1.0000 0.61720  0.56850  0.37900  Biso   1.000  H
  H96      1.0000 0.38280  0.93150  0.87900  Biso   1.000  H
  H97      1.0000 0.11720  0.43150  0.87900  Biso   1.000  H
  H98      1.0000 0.88280  0.06850  0.37900  Biso   1.000  H
  H99      1.0000 0.88280  0.93150  0.62100  Biso   1.000  H
  H100     1.0000 0.11720  0.56850  0.12100  Biso   1.000  H
  H101     1.0000 0.61720  0.93150  0.87900  Biso   1.000  H
  H102     1.0000 0.38280  0.56850  0.37900  Biso   1.000  H
  H103     1.0000 0.38280  0.43150  0.62100  Biso   1.000  H
  H104     1.0000 0.61720  0.06850  0.12100  Biso   1.000  H
  C97      1.0000 0.67370  0.67885  0.13860  Biso   1.000  C
  C98      1.0000 0.32630  0.82115  0.63860  Biso   1.000  C
  C99      1.0000 0.32630  0.17885  0.36140  Biso   1.000  C
  C100     1.0000 0.67370  0.32115  0.86140  Biso   1.000  C
  C101     1.0000 0.17370  0.17885  0.13860  Biso   1.000  C
  C102     1.0000 0.82630  0.32115  0.63860  Biso   1.000  C
  C103     1.0000 0.82630  0.67885  0.36140  Biso   1.000  C
  C104     1.0000 0.17370  0.82115  0.86140  Biso   1.000  C
  C105     1.0000 0.32630  0.32115  0.86140  Biso   1.000  C
  C106     1.0000 0.67370  0.17885  0.36140  Biso   1.000  C
  C107     1.0000 0.67370  0.82115  0.63860  Biso   1.000  C
  C108     1.0000 0.32630  0.67885  0.13860  Biso   1.000  C
  C109     1.0000 0.82630  0.82115  0.86140  Biso   1.000  C
  C110     1.0000 0.17370  0.67885  0.36140  Biso   1.000  C
  C111     1.0000 0.17370  0.32115  0.63860  Biso   1.000  C
  C112     1.0000 0.82630  0.17885  0.13860  Biso   1.000  C
  H105     1.0000 0.61810  0.70740  0.14210  Biso   1.000  H
  H106     1.0000 0.38190  0.79260  0.64210  Biso   1.000  H
  H107     1.0000 0.38190  0.20740  0.35790  Biso   1.000  H
  H108     1.0000 0.61810  0.29260  0.85790  Biso   1.000  H
  H109     1.0000 0.11810  0.20740  0.14210  Biso   1.000  H
  H110     1.0000 0.88190  0.29260  0.64210  Biso   1.000  H
  H111     1.0000 0.88190  0.70740  0.35790  Biso   1.000  H
  H112     1.0000 0.11810  0.79260  0.85790  Biso   1.000  H
  H113     1.0000 0.38190  0.29260  0.85790  Biso   1.000  H
  H114     1.0000 0.61810  0.20740  0.35790  Biso   1.000  H
  H115     1.0000 0.61810  0.79260  0.64210  Biso   1.000  H
  H116     1.0000 0.38190  0.70740  0.14210  Biso   1.000  H
  H117     1.0000 0.88190  0.79260  0.85790  Biso   1.000  H
  H118     1.0000 0.11810  0.70740  0.35790  Biso   1.000  H
  H119     1.0000 0.11810  0.29260  0.64210  Biso   1.000  H
  H120     1.0000 0.88190  0.20740  0.14210  Biso   1.000  H
  C113     1.0000 0.67410  0.62760  0.09201  Biso   1.000  C
  C114     1.0000 0.32590  0.87240  0.59201  Biso   1.000  C
  C115     1.0000 0.32590  0.12760  0.40799  Biso   1.000  C
  C116     1.0000 0.67410  0.37240  0.90799  Biso   1.000  C
  C117     1.0000 0.17410  0.12760  0.09201  Biso   1.000  C
  C118     1.0000 0.82590  0.37240  0.59201  Biso   1.000  C
  C119     1.0000 0.82590  0.62760  0.40799  Biso   1.000  C
  C120     1.0000 0.17410  0.87240  0.90799  Biso   1.000  C
  C121     1.0000 0.32590  0.37240  0.90799  Biso   1.000  C
  C122     1.0000 0.67410  0.12760  0.40799  Biso   1.000  C
  C123     1.0000 0.67410  0.87240  0.59201  Biso   1.000  C
  C124     1.0000 0.32590  0.62760  0.09201  Biso   1.000  C
  C125     1.0000 0.82590  0.87240  0.90799  Biso   1.000  C
  C126     1.0000 0.17410  0.62760  0.40799  Biso   1.000  C
  C127     1.0000 0.17410  0.37240  0.59201  Biso   1.000  C
  C128     1.0000 0.82590  0.12760  0.09201  Biso   1.000  C
  H121     1.0000 0.61790  0.62150  0.06430  Biso   1.000  H
  H122     1.0000 0.38210  0.87850  0.56430  Biso   1.000  H
  H123     1.0000 0.38210  0.12150  0.43570  Biso   1.000  H
  H124     1.0000 0.61790  0.37850  0.93570  Biso   1.000  H
  H125     1.0000 0.11790  0.12150  0.06430  Biso   1.000  H
  H126     1.0000 0.88210  0.37850  0.56430  Biso   1.000  H
  H127     1.0000 0.88210  0.62150  0.43570  Biso   1.000  H
  H128     1.0000 0.11790  0.87850  0.93570  Biso   1.000  H
  H129     1.0000 0.38210  0.37850  0.93570  Biso   1.000  H
  H130     1.0000 0.61790  0.12150  0.43570  Biso   1.000  H
  H131     1.0000 0.61790  0.87850  0.56430  Biso   1.000  H
  H132     1.0000 0.38210  0.62150  0.06430  Biso   1.000  H
  H133     1.0000 0.88210  0.87850  0.93570  Biso   1.000  H
  H134     1.0000 0.11790  0.62150  0.43570  Biso   1.000  H
  H135     1.0000 0.11790  0.37850  0.56430  Biso   1.000  H
  H136     1.0000 0.88210  0.12150  0.06430  Biso   1.000  H
  Sb1      1.0000 0.00000  0.00366  0.20701  Biso   1.000  Sb
  Sb2      1.0000 0.00000  0.49634  0.70701  Biso   1.000  Sb
  Sb3      1.0000 0.00000  0.50366  0.29299  Biso   1.000  Sb
  Sb4      1.0000 0.00000  0.99634  0.79299  Biso   1.000  Sb
  Sb5      1.0000 0.50000  0.50366  0.20701  Biso   1.000  Sb
  Sb6      1.0000 0.50000  0.99634  0.70701  Biso   1.000  Sb
  Sb7      1.0000 0.50000  0.00366  0.29299  Biso   1.000  Sb
  Sb8      1.0000 0.50000  0.49634  0.79299  Biso   1.000  Sb
  F33      1.0000 0.86230  0.00319  0.20772  Biso   1.000  F
  F34      1.0000 0.13770  0.49681  0.70772  Biso   1.000  F
  F35      1.0000 0.13770  0.50319  0.29228  Biso   1.000  F
  F36      1.0000 0.86230  0.99681  0.79228  Biso   1.000  F
  F37      1.0000 0.36230  0.50319  0.20772  Biso   1.000  F
  F38      1.0000 0.63770  0.99681  0.70772  Biso   1.000  F
  F39      1.0000 0.63770  0.00319  0.29228  Biso   1.000  F
  F40      1.0000 0.36230  0.49681  0.79228  Biso   1.000  F
  F41      1.0000 0.13770  0.99681  0.79228  Biso   1.000  F
  F42      1.0000 0.86230  0.50319  0.29228  Biso   1.000  F
  F43      1.0000 0.86230  0.49681  0.70772  Biso   1.000  F
  F44      1.0000 0.13770  0.00319  0.20772  Biso   1.000  F
  F45      1.0000 0.63770  0.49681  0.79228  Biso   1.000  F
  F46      1.0000 0.36230  0.00319  0.29228  Biso   1.000  F
  F47      1.0000 0.36230  0.99681  0.70772  Biso   1.000  F
  F48      1.0000 0.63770  0.50319  0.20772  Biso   1.000  F
  F49      1.0000 0.00000  0.00653  0.11079  Biso   1.000  F
  F50      1.0000 0.00000  0.49347  0.61079  Biso   1.000  F
  F51      1.0000 0.00000  0.50653  0.38921  Biso   1.000  F
  F52      1.0000 0.00000  0.99347  0.88921  Biso   1.000  F
  F53      1.0000 0.50000  0.50653  0.11079  Biso   1.000  F
  F54      1.0000 0.50000  0.99347  0.61079  Biso   1.000  F
  F55      1.0000 0.50000  0.00653  0.38921  Biso   1.000  F
  F56      1.0000 0.50000  0.49347  0.88921  Biso   1.000  F
  F57      1.0000 0.00000  0.09757  0.21419  Biso   1.000  F
  F58      1.0000 0.00000  0.40243  0.71419  Biso   1.000  F
  F59      1.0000 0.00000  0.59757  0.28581  Biso   1.000  F
  F60      1.0000 0.00000  0.90243  0.78581  Biso   1.000  F
  F61      1.0000 0.50000  0.59757  0.21419  Biso   1.000  F
  F62      1.0000 0.50000  0.90243  0.71419  Biso   1.000  F
  F63      1.0000 0.50000  0.09757  0.28581  Biso   1.000  F
  F64      1.0000 0.50000  0.40243  0.78581  Biso   1.000  F
  F65      1.0000 0.00000  0.90951  0.20896  Biso   1.000  F
  F66      1.0000 0.00000  0.59049  0.70896  Biso   1.000  F
  F67      1.0000 0.00000  0.40951  0.29104  Biso   1.000  F
  F68      1.0000 0.00000  0.09049  0.79104  Biso   1.000  F
  F69      1.0000 0.50000  0.40951  0.20896  Biso   1.000  F
  F70      1.0000 0.50000  0.09049  0.70896  Biso   1.000  F
  F71      1.0000 0.50000  0.90951  0.29104  Biso   1.000  F
  F72      1.0000 0.50000  0.59049  0.79104  Biso   1.000  F
  F73      1.0000 0.00000  0.00078  0.30242  Biso   1.000  F
  F74      1.0000 0.00000  0.49922  0.80242  Biso   1.000  F
  F75      1.0000 0.00000  0.50078  0.19758  Biso   1.000  F
  F76      1.0000 0.00000  0.99922  0.69758  Biso   1.000  F
  F77      1.0000 0.50000  0.50078  0.30242  Biso   1.000  F
  F78      1.0000 0.50000  0.99922  0.80242  Biso   1.000  F
  F79      1.0000 0.50000  0.00078  0.19758  Biso   1.000  F
  F80      1.0000 0.50000  0.49922  0.69758  Biso   1.000  F
  Sb9      1.0000 0.50000  0.20722  0.99949  Biso   1.000  Sb
  Sb10     1.0000 0.50000  0.29278  0.49949  Biso   1.000  Sb
  Sb11     1.0000 0.50000  0.70722  0.50051  Biso   1.000  Sb
  Sb12     1.0000 0.50000  0.79278  0.00051  Biso   1.000  Sb
  Sb13     1.0000 0.00000  0.70722  0.99949  Biso   1.000  Sb
  Sb14     1.0000 0.00000  0.79278  0.49949  Biso   1.000  Sb
  Sb15     1.0000 0.00000  0.20722  0.50051  Biso   1.000  Sb
  Sb16     1.0000 0.00000  0.29278  0.00051  Biso   1.000  Sb
  F81      1.0000 0.50000  0.11141  0.00409  Biso   1.000  F
  F82      1.0000 0.50000  0.38859  0.50409  Biso   1.000  F
  F83      1.0000 0.50000  0.61141  0.49591  Biso   1.000  F
  F84      1.0000 0.50000  0.88859  0.99591  Biso   1.000  F
  F85      1.0000 0.00000  0.61141  0.00409  Biso   1.000  F
  F86      1.0000 0.00000  0.88859  0.50409  Biso   1.000  F
  F87      1.0000 0.00000  0.11141  0.49591  Biso   1.000  F
  F88      1.0000 0.00000  0.38859  0.99591  Biso   1.000  F
  F89      1.0000 0.50000  0.20702  0.90478  Biso   1.000  F
  F90      1.0000 0.50000  0.29298  0.40478  Biso   1.000  F
  F91      1.0000 0.50000  0.70702  0.59522  Biso   1.000  F
  F92      1.0000 0.50000  0.79298  0.09522  Biso   1.000  F
  F93      1.0000 0.00000  0.70702  0.90478  Biso   1.000  F
  F94      1.0000 0.00000  0.79298  0.40478  Biso   1.000  F
  F95      1.0000 0.00000  0.20702  0.59522  Biso   1.000  F
  F96      1.0000 0.00000  0.29298  0.09522  Biso   1.000  F
  F97      1.0000 0.63793  0.20779  0.99911  Biso   1.000  F
  F98      1.0000 0.36207  0.29221  0.49911  Biso   1.000  F
  F99      1.0000 0.36207  0.70779  0.50089  Biso   1.000  F
  F100     1.0000 0.63793  0.79221  0.00089  Biso   1.000  F
  F101     1.0000 0.13793  0.70779  0.99911  Biso   1.000  F
  F102     1.0000 0.86207  0.79221  0.49911  Biso   1.000  F
  F103     1.0000 0.86207  0.20779  0.50089  Biso   1.000  F
  F104     1.0000 0.13793  0.29221  0.00089  Biso   1.000  F
  F105     1.0000 0.36207  0.79221  0.00089  Biso   1.000  F
  F106     1.0000 0.63793  0.70779  0.50089  Biso   1.000  F
  F107     1.0000 0.63793  0.29221  0.49911  Biso   1.000  F
  F108     1.0000 0.36207  0.20779  0.99911  Biso   1.000  F
  F109     1.0000 0.86207  0.29221  0.00089  Biso   1.000  F
  F110     1.0000 0.13793  0.20779  0.50089  Biso   1.000  F
  F111     1.0000 0.13793  0.79221  0.49911  Biso   1.000  F
  F112     1.0000 0.86207  0.70779  0.99911  Biso   1.000  F
  F113     1.0000 0.50000  0.21611  0.09406  Biso   1.000  F
  F114     1.0000 0.50000  0.28389  0.59406  Biso   1.000  F
  F115     1.0000 0.50000  0.71611  0.40594  Biso   1.000  F
  F116     1.0000 0.50000  0.78389  0.90594  Biso   1.000  F
  F117     1.0000 0.00000  0.71611  0.09406  Biso   1.000  F
  F118     1.0000 0.00000  0.78389  0.59406  Biso   1.000  F
  F119     1.0000 0.00000  0.21611  0.40594  Biso   1.000  F
  F120     1.0000 0.00000  0.28389  0.90594  Biso   1.000  F
  F121     1.0000 0.50000  0.30228  0.99572  Biso   1.000  F
  F122     1.0000 0.50000  0.19772  0.49572  Biso   1.000  F
  F123     1.0000 0.50000  0.80228  0.50428  Biso   1.000  F
  F124     1.0000 0.50000  0.69772  0.00428  Biso   1.000  F
  F125     1.0000 0.00000  0.80228  0.99572  Biso   1.000  F
  F126     1.0000 0.00000  0.69772  0.49572  Biso   1.000  F
  F127     1.0000 0.00000  0.30228  0.50428  Biso   1.000  F
  F128     1.0000 0.00000  0.19772  0.00428  Biso   1.000  F
  H137     1.0000 0.92670  0.54090  0.00060  Biso   1.000  H
  H138     1.0000 0.07330  0.95910  0.50060  Biso   1.000  H
  H139     1.0000 0.07330  0.04090  0.49940  Biso   1.000  H
  H140     1.0000 0.92670  0.45910  0.99940  Biso   1.000  H
  H141     1.0000 0.42670  0.04090  0.00060  Biso   1.000  H
  H142     1.0000 0.57330  0.45910  0.50060  Biso   1.000  H
  H143     1.0000 0.57330  0.54090  0.49940  Biso   1.000  H
  H144     1.0000 0.42670  0.95910  0.99940  Biso   1.000  H
  H145     1.0000 0.07330  0.45910  0.99940  Biso   1.000  H
  H146     1.0000 0.92670  0.04090  0.49940  Biso   1.000  H
  H147     1.0000 0.92670  0.95910  0.50060  Biso   1.000  H
  H148     1.0000 0.07330  0.54090  0.00060  Biso   1.000  H
  H149     1.0000 0.57330  0.95910  0.99940  Biso   1.000  H
  H150     1.0000 0.42670  0.54090  0.49940  Biso   1.000  H
  H151     1.0000 0.42670  0.45910  0.50060  Biso   1.000  H
  H152     1.0000 0.57330  0.04090  0.00060  Biso   1.000  H
