data_image0
_cell_length_a       13.5926
_cell_length_b       19.9573
_cell_length_c       19.8663
_cell_angle_alpha    90
_cell_angle_beta     90
_cell_angle_gamma    90

_symmetry_space_group_name_H-M    "P 1"
_symmetry_int_tables_number       1

loop_
  _symmetry_equiv_pos_as_xyz
  'x, y, z'

loop_
  _atom_site_label
  _atom_site_occupancy
  _atom_site_fract_x
  _atom_site_fract_y
  _atom_site_fract_z
  _atom_site_thermal_displace_type
  _atom_site_B_iso_or_equiv
  _atom_site_type_symbol
  Cu1      1.0000 0.75052  0.50000  0.00000  Biso   1.000  Cu
  Cu2      1.0000 0.24948  0.00000  0.50000  Biso   1.000  Cu
  Cu3      1.0000 0.25052  0.00000  0.00000  Biso   1.000  Cu
  Cu4      1.0000 0.74948  0.50000  0.50000  Biso   1.000  Cu
  Cu5      1.0000 0.24948  0.50000  0.00000  Biso   1.000  Cu
  Cu6      1.0000 0.75052  0.00000  0.50000  Biso   1.000  Cu
  Cu7      1.0000 0.74948  0.00000  0.00000  Biso   1.000  Cu
  Cu8      1.0000 0.25052  0.50000  0.50000  Biso   1.000  Cu
  F1       1.0000 0.61010  0.50000  0.00000  Biso   1.000  F
  F2       1.0000 0.38990  0.00000  0.50000  Biso   1.000  F
  F3       1.0000 0.11010  0.00000  0.00000  Biso   1.000  F
  F4       1.0000 0.88990  0.50000  0.50000  Biso   1.000  F
  F5       1.0000 0.38990  0.50000  0.00000  Biso   1.000  F
  F6       1.0000 0.61010  0.00000  0.50000  Biso   1.000  F
  F7       1.0000 0.88990  0.00000  0.00000  Biso   1.000  F
  F8       1.0000 0.11010  0.50000  0.50000  Biso   1.000  F
  F9       1.0000 0.89080  0.50000  0.00000  Biso   1.000  F
  F10      1.0000 0.10920  0.00000  0.50000  Biso   1.000  F
  F11      1.0000 0.39080  0.00000  0.00000  Biso   1.000  F
  F12      1.0000 0.60920  0.50000  0.50000  Biso   1.000  F
  F13      1.0000 0.10920  0.50000  0.00000  Biso   1.000  F
  F14      1.0000 0.89080  0.00000  0.50000  Biso   1.000  F
  F15      1.0000 0.60920  0.00000  0.00000  Biso   1.000  F
  F16      1.0000 0.39080  0.50000  0.50000  Biso   1.000  F
  Cu9      1.0000 0.75000  0.26032  0.25000  Biso   1.000  Cu
  Cu10     1.0000 0.25000  0.23968  0.75000  Biso   1.000  Cu
  Cu11     1.0000 0.25000  0.76032  0.25000  Biso   1.000  Cu
  Cu12     1.0000 0.75000  0.73968  0.75000  Biso   1.000  Cu
  Cu13     1.0000 0.25000  0.73968  0.75000  Biso   1.000  Cu
  Cu14     1.0000 0.75000  0.76032  0.25000  Biso   1.000  Cu
  Cu15     1.0000 0.75000  0.23968  0.75000  Biso   1.000  Cu
  Cu16     1.0000 0.25000  0.26032  0.25000  Biso   1.000  Cu
  F17      1.0000 0.91603  0.26182  0.24984  Biso   1.000  F
  F18      1.0000 0.08397  0.23818  0.74984  Biso   1.000  F
  F19      1.0000 0.08397  0.76182  0.25016  Biso   1.000  F
  F20      1.0000 0.91603  0.73818  0.75016  Biso   1.000  F
  F21      1.0000 0.41603  0.76182  0.24984  Biso   1.000  F
  F22      1.0000 0.58397  0.73818  0.74984  Biso   1.000  F
  F23      1.0000 0.58397  0.26182  0.25016  Biso   1.000  F
  F24      1.0000 0.41603  0.23818  0.75016  Biso   1.000  F
  F25      1.0000 0.08397  0.73818  0.75016  Biso   1.000  F
  F26      1.0000 0.91603  0.76182  0.25016  Biso   1.000  F
  F27      1.0000 0.91603  0.23818  0.74984  Biso   1.000  F
  F28      1.0000 0.08397  0.26182  0.24984  Biso   1.000  F
  F29      1.0000 0.58397  0.23818  0.75016  Biso   1.000  F
  F30      1.0000 0.41603  0.26182  0.25016  Biso   1.000  F
  F31      1.0000 0.41603  0.73818  0.74984  Biso   1.000  F
  F32      1.0000 0.58397  0.76182  0.24984  Biso   1.000  F
  H1       1.0000 0.00000  0.25900  0.25900  Biso   1.000  H
  H2       1.0000 0.00000  0.24100  0.75900  Biso   1.000  H
  H3       1.0000 0.00000  0.75900  0.24100  Biso   1.000  H
  H4       1.0000 0.00000  0.74100  0.74100  Biso   1.000  H
  H5       1.0000 0.50000  0.75900  0.25900  Biso   1.000  H
  H6       1.0000 0.50000  0.74100  0.75900  Biso   1.000  H
  H7       1.0000 0.50000  0.25900  0.24100  Biso   1.000  H
  H8       1.0000 0.50000  0.24100  0.74100  Biso   1.000  H
  N1       1.0000 0.75046  0.42716  0.07567  Biso   1.000  N
  N2       1.0000 0.24954  0.07284  0.57567  Biso   1.000  N
  N3       1.0000 0.24954  0.92716  0.42433  Biso   1.000  N
  N4       1.0000 0.75046  0.57284  0.92433  Biso   1.000  N
  N5       1.0000 0.25046  0.92716  0.07567  Biso   1.000  N
  N6       1.0000 0.74954  0.57284  0.57567  Biso   1.000  N
  N7       1.0000 0.74954  0.42716  0.42433  Biso   1.000  N
  N8       1.0000 0.25046  0.07284  0.92433  Biso   1.000  N
  N9       1.0000 0.24954  0.57284  0.92433  Biso   1.000  N
  N10      1.0000 0.75046  0.92716  0.42433  Biso   1.000  N
  N11      1.0000 0.75046  0.07284  0.57567  Biso   1.000  N
  N12      1.0000 0.24954  0.42716  0.07567  Biso   1.000  N
  N13      1.0000 0.74954  0.07284  0.92433  Biso   1.000  N
  N14      1.0000 0.25046  0.42716  0.42433  Biso   1.000  N
  N15      1.0000 0.25046  0.57284  0.57567  Biso   1.000  N
  N16      1.0000 0.74954  0.92716  0.07567  Biso   1.000  N
  N17      1.0000 0.74970  0.33138  0.17734  Biso   1.000  N
  N18      1.0000 0.25030  0.16862  0.67734  Biso   1.000  N
  N19      1.0000 0.25030  0.83138  0.32266  Biso   1.000  N
  N20      1.0000 0.74970  0.66862  0.82266  Biso   1.000  N
  N21      1.0000 0.24970  0.83138  0.17734  Biso   1.000  N
  N22      1.0000 0.75030  0.66862  0.67734  Biso   1.000  N
  N23      1.0000 0.75030  0.33138  0.32266  Biso   1.000  N
  N24      1.0000 0.24970  0.16862  0.82266  Biso   1.000  N
  N25      1.0000 0.25030  0.66862  0.82266  Biso   1.000  N
  N26      1.0000 0.74970  0.83138  0.32266  Biso   1.000  N
  N27      1.0000 0.74970  0.16862  0.67734  Biso   1.000  N
  N28      1.0000 0.25030  0.33138  0.17734  Biso   1.000  N
  N29      1.0000 0.75030  0.16862  0.82266  Biso   1.000  N
  N30      1.0000 0.24970  0.33138  0.32266  Biso   1.000  N
  N31      1.0000 0.24970  0.66862  0.67734  Biso   1.000  N
  N32      1.0000 0.75030  0.83138  0.17734  Biso   1.000  N
  C1       1.0000 0.67510  0.38431  0.08340  Biso   1.000  C
  C2       1.0000 0.32490  0.11569  0.58340  Biso   1.000  C
  C3       1.0000 0.32490  0.88431  0.41660  Biso   1.000  C
  C4       1.0000 0.67510  0.61569  0.91660  Biso   1.000  C
  C5       1.0000 0.17510  0.88431  0.08340  Biso   1.000  C
  C6       1.0000 0.82490  0.61569  0.58340  Biso   1.000  C
  C7       1.0000 0.82490  0.38431  0.41660  Biso   1.000  C
  C8       1.0000 0.17510  0.11569  0.91660  Biso   1.000  C
  C9       1.0000 0.32490  0.61569  0.91660  Biso   1.000  C
  C10      1.0000 0.67510  0.88431  0.41660  Biso   1.000  C
  C11      1.0000 0.67510  0.11569  0.58340  Biso   1.000  C
  C12      1.0000 0.32490  0.38431  0.08340  Biso   1.000  C
  C13      1.0000 0.82490  0.11569  0.91660  Biso   1.000  C
  C14      1.0000 0.17510  0.38431  0.41660  Biso   1.000  C
  C15      1.0000 0.17510  0.61569  0.58340  Biso   1.000  C
  C16      1.0000 0.82490  0.88431  0.08340  Biso   1.000  C
  H9       1.0000 0.62080  0.38690  0.05340  Biso   1.000  H
  H10      1.0000 0.37920  0.11310  0.55340  Biso   1.000  H
  H11      1.0000 0.37920  0.88690  0.44660  Biso   1.000  H
  H12      1.0000 0.62080  0.61310  0.94660  Biso   1.000  H
  H13      1.0000 0.12080  0.88690  0.05340  Biso   1.000  H
  H14      1.0000 0.87920  0.61310  0.55340  Biso   1.000  H
  H15      1.0000 0.87920  0.38690  0.44660  Biso   1.000  H
  H16      1.0000 0.12080  0.11310  0.94660  Biso   1.000  H
  H17      1.0000 0.37920  0.61310  0.94660  Biso   1.000  H
  H18      1.0000 0.62080  0.88690  0.44660  Biso   1.000  H
  H19      1.0000 0.62080  0.11310  0.55340  Biso   1.000  H
  H20      1.0000 0.37920  0.38690  0.05340  Biso   1.000  H
  H21      1.0000 0.87920  0.11310  0.94660  Biso   1.000  H
  H22      1.0000 0.12080  0.38690  0.44660  Biso   1.000  H
  H23      1.0000 0.12080  0.61310  0.55340  Biso   1.000  H
  H24      1.0000 0.87920  0.88690  0.05340  Biso   1.000  H
  C17      1.0000 0.67440  0.33646  0.13372  Biso   1.000  C
  C18      1.0000 0.32560  0.16354  0.63372  Biso   1.000  C
  C19      1.0000 0.32560  0.83646  0.36628  Biso   1.000  C
  C20      1.0000 0.67440  0.66354  0.86628  Biso   1.000  C
  C21      1.0000 0.17440  0.83646  0.13372  Biso   1.000  C
  C22      1.0000 0.82560  0.66354  0.63372  Biso   1.000  C
  C23      1.0000 0.82560  0.33646  0.36628  Biso   1.000  C
  C24      1.0000 0.17440  0.16354  0.86628  Biso   1.000  C
  C25      1.0000 0.32560  0.66354  0.86628  Biso   1.000  C
  C26      1.0000 0.67440  0.83646  0.36628  Biso   1.000  C
  C27      1.0000 0.67440  0.16354  0.63372  Biso   1.000  C
  C28      1.0000 0.32560  0.33646  0.13372  Biso   1.000  C
  C29      1.0000 0.82560  0.16354  0.86628  Biso   1.000  C
  C30      1.0000 0.17440  0.33646  0.36628  Biso   1.000  C
  C31      1.0000 0.17440  0.66354  0.63372  Biso   1.000  C
  C32      1.0000 0.82560  0.83646  0.13372  Biso   1.000  C
  H25      1.0000 0.62010  0.30680  0.13750  Biso   1.000  H
  H26      1.0000 0.37990  0.19320  0.63750  Biso   1.000  H
  H27      1.0000 0.37990  0.80680  0.36250  Biso   1.000  H
  H28      1.0000 0.62010  0.69320  0.86250  Biso   1.000  H
  H29      1.0000 0.12010  0.80680  0.13750  Biso   1.000  H
  H30      1.0000 0.87990  0.69320  0.63750  Biso   1.000  H
  H31      1.0000 0.87990  0.30680  0.36250  Biso   1.000  H
  H32      1.0000 0.12010  0.19320  0.86250  Biso   1.000  H
  H33      1.0000 0.37990  0.69320  0.86250  Biso   1.000  H
  H34      1.0000 0.62010  0.80680  0.36250  Biso   1.000  H
  H35      1.0000 0.62010  0.19320  0.63750  Biso   1.000  H
  H36      1.0000 0.37990  0.30680  0.13750  Biso   1.000  H
  H37      1.0000 0.87990  0.19320  0.86250  Biso   1.000  H
  H38      1.0000 0.12010  0.30680  0.36250  Biso   1.000  H
  H39      1.0000 0.12010  0.69320  0.63750  Biso   1.000  H
  H40      1.0000 0.87990  0.80680  0.13750  Biso   1.000  H
  C33      1.0000 0.82550  0.42118  0.11881  Biso   1.000  C
  C34      1.0000 0.17450  0.07882  0.61881  Biso   1.000  C
  C35      1.0000 0.17450  0.92118  0.38119  Biso   1.000  C
  C36      1.0000 0.82550  0.57882  0.88119  Biso   1.000  C
  C37      1.0000 0.32550  0.92118  0.11881  Biso   1.000  C
  C38      1.0000 0.67450  0.57882  0.61881  Biso   1.000  C
  C39      1.0000 0.67450  0.42118  0.38119  Biso   1.000  C
  C40      1.0000 0.32550  0.07882  0.88119  Biso   1.000  C
  C41      1.0000 0.17450  0.57882  0.88119  Biso   1.000  C
  C42      1.0000 0.82550  0.92118  0.38119  Biso   1.000  C
  C43      1.0000 0.82550  0.07882  0.61881  Biso   1.000  C
  C44      1.0000 0.17450  0.42118  0.11881  Biso   1.000  C
  C45      1.0000 0.67450  0.07882  0.88119  Biso   1.000  C
  C46      1.0000 0.32550  0.42118  0.38119  Biso   1.000  C
  C47      1.0000 0.32550  0.57882  0.61881  Biso   1.000  C
  C48      1.0000 0.67450  0.92118  0.11881  Biso   1.000  C
  H41      1.0000 0.88060  0.45020  0.11430  Biso   1.000  H
  H42      1.0000 0.11940  0.04980  0.61430  Biso   1.000  H
  H43      1.0000 0.11940  0.95020  0.38570  Biso   1.000  H
  H44      1.0000 0.88060  0.54980  0.88570  Biso   1.000  H
  H45      1.0000 0.38060  0.95020  0.11430  Biso   1.000  H
  H46      1.0000 0.61940  0.54980  0.61430  Biso   1.000  H
  H47      1.0000 0.61940  0.45020  0.38570  Biso   1.000  H
  H48      1.0000 0.38060  0.04980  0.88570  Biso   1.000  H
  H49      1.0000 0.11940  0.54980  0.88570  Biso   1.000  H
  H50      1.0000 0.88060  0.95020  0.38570  Biso   1.000  H
  H51      1.0000 0.88060  0.04980  0.61430  Biso   1.000  H
  H52      1.0000 0.11940  0.45020  0.11430  Biso   1.000  H
  H53      1.0000 0.61940  0.04980  0.88570  Biso   1.000  H
  H54      1.0000 0.38060  0.45020  0.38570  Biso   1.000  H
  H55      1.0000 0.38060  0.54980  0.61430  Biso   1.000  H
  H56      1.0000 0.61940  0.95020  0.11430  Biso   1.000  H
  C49      1.0000 0.82530  0.37388  0.16989  Biso   1.000  C
  C50      1.0000 0.17470  0.12612  0.66989  Biso   1.000  C
  C51      1.0000 0.17470  0.87388  0.33011  Biso   1.000  C
  C52      1.0000 0.82530  0.62612  0.83011  Biso   1.000  C
  C53      1.0000 0.32530  0.87388  0.16989  Biso   1.000  C
  C54      1.0000 0.67470  0.62612  0.66989  Biso   1.000  C
  C55      1.0000 0.67470  0.37388  0.33011  Biso   1.000  C
  C56      1.0000 0.32530  0.12612  0.83011  Biso   1.000  C
  C57      1.0000 0.17470  0.62612  0.83011  Biso   1.000  C
  C58      1.0000 0.82530  0.87388  0.33011  Biso   1.000  C
  C59      1.0000 0.82530  0.12612  0.66989  Biso   1.000  C
  C60      1.0000 0.17470  0.37388  0.16989  Biso   1.000  C
  C61      1.0000 0.67470  0.12612  0.83011  Biso   1.000  C
  C62      1.0000 0.32530  0.37388  0.33011  Biso   1.000  C
  C63      1.0000 0.32530  0.62612  0.66989  Biso   1.000  C
  C64      1.0000 0.67470  0.87388  0.16989  Biso   1.000  C
  H57      1.0000 0.87950  0.37150  0.20000  Biso   1.000  H
  H58      1.0000 0.12050  0.12850  0.70000  Biso   1.000  H
  H59      1.0000 0.12050  0.87150  0.30000  Biso   1.000  H
  H60      1.0000 0.87950  0.62850  0.80000  Biso   1.000  H
  H61      1.0000 0.37950  0.87150  0.20000  Biso   1.000  H
  H62      1.0000 0.62050  0.62850  0.70000  Biso   1.000  H
  H63      1.0000 0.62050  0.37150  0.30000  Biso   1.000  H
  H64      1.0000 0.37950  0.12850  0.80000  Biso   1.000  H
  H65      1.0000 0.12050  0.62850  0.80000  Biso   1.000  H
  H66      1.0000 0.87950  0.87150  0.30000  Biso   1.000  H
  H67      1.0000 0.87950  0.12850  0.70000  Biso   1.000  H
  H68      1.0000 0.12050  0.37150  0.20000  Biso   1.000  H
  H69      1.0000 0.62050  0.12850  0.80000  Biso   1.000  H
  H70      1.0000 0.37950  0.37150  0.30000  Biso   1.000  H
  H71      1.0000 0.37950  0.62850  0.70000  Biso   1.000  H
  H72      1.0000 0.62050  0.87150  0.20000  Biso   1.000  H
  N33      1.0000 0.75064  0.68837  0.17908  Biso   1.000  N
  N34      1.0000 0.24936  0.81163  0.67908  Biso   1.000  N
  N35      1.0000 0.24936  0.18837  0.32092  Biso   1.000  N
  N36      1.0000 0.75064  0.31163  0.82092  Biso   1.000  N
  N37      1.0000 0.25064  0.18837  0.17908  Biso   1.000  N
  N38      1.0000 0.74936  0.31163  0.67908  Biso   1.000  N
  N39      1.0000 0.74936  0.68837  0.32092  Biso   1.000  N
  N40      1.0000 0.25064  0.81163  0.82092  Biso   1.000  N
  N41      1.0000 0.24936  0.31163  0.82092  Biso   1.000  N
  N42      1.0000 0.75064  0.18837  0.32092  Biso   1.000  N
  N43      1.0000 0.75064  0.81163  0.67908  Biso   1.000  N
  N44      1.0000 0.24936  0.68837  0.17908  Biso   1.000  N
  N45      1.0000 0.74936  0.81163  0.82092  Biso   1.000  N
  N46      1.0000 0.25064  0.68837  0.32092  Biso   1.000  N
  N47      1.0000 0.25064  0.31163  0.67908  Biso   1.000  N
  N48      1.0000 0.74936  0.18837  0.17908  Biso   1.000  N
  N49      1.0000 0.75020  0.58580  0.08416  Biso   1.000  N
  N50      1.0000 0.24980  0.91420  0.58416  Biso   1.000  N
  N51      1.0000 0.24980  0.08580  0.41584  Biso   1.000  N
  N52      1.0000 0.75020  0.41420  0.91584  Biso   1.000  N
  N53      1.0000 0.25020  0.08580  0.08416  Biso   1.000  N
  N54      1.0000 0.74980  0.41420  0.58416  Biso   1.000  N
  N55      1.0000 0.74980  0.58580  0.41584  Biso   1.000  N
  N56      1.0000 0.25020  0.91420  0.91584  Biso   1.000  N
  N57      1.0000 0.24980  0.41420  0.91584  Biso   1.000  N
  N58      1.0000 0.75020  0.08580  0.41584  Biso   1.000  N
  N59      1.0000 0.75020  0.91420  0.58416  Biso   1.000  N
  N60      1.0000 0.24980  0.58580  0.08416  Biso   1.000  N
  N61      1.0000 0.74980  0.91420  0.91584  Biso   1.000  N
  N62      1.0000 0.25020  0.58580  0.41584  Biso   1.000  N
  N63      1.0000 0.25020  0.41420  0.58416  Biso   1.000  N
  N64      1.0000 0.74980  0.08580  0.08416  Biso   1.000  N
  C65      1.0000 0.82820  0.64708  0.17249  Biso   1.000  C
  C66      1.0000 0.17180  0.85292  0.67249  Biso   1.000  C
  C67      1.0000 0.17180  0.14708  0.32751  Biso   1.000  C
  C68      1.0000 0.82820  0.35292  0.82751  Biso   1.000  C
  C69      1.0000 0.32820  0.14708  0.17249  Biso   1.000  C
  C70      1.0000 0.67180  0.35292  0.67249  Biso   1.000  C
  C71      1.0000 0.67180  0.64708  0.32751  Biso   1.000  C
  C72      1.0000 0.32820  0.85292  0.82751  Biso   1.000  C
  C73      1.0000 0.17180  0.35292  0.82751  Biso   1.000  C
  C74      1.0000 0.82820  0.14708  0.32751  Biso   1.000  C
  C75      1.0000 0.82820  0.85292  0.67249  Biso   1.000  C
  C76      1.0000 0.17180  0.64708  0.17249  Biso   1.000  C
  C77      1.0000 0.67180  0.85292  0.82751  Biso   1.000  C
  C78      1.0000 0.32820  0.64708  0.32751  Biso   1.000  C
  C79      1.0000 0.32820  0.35292  0.67249  Biso   1.000  C
  C80      1.0000 0.67180  0.14708  0.17249  Biso   1.000  C
  H73      1.0000 0.88400  0.65260  0.20080  Biso   1.000  H
  H74      1.0000 0.11600  0.84740  0.70080  Biso   1.000  H
  H75      1.0000 0.11600  0.15260  0.29920  Biso   1.000  H
  H76      1.0000 0.88400  0.34740  0.79920  Biso   1.000  H
  H77      1.0000 0.38400  0.15260  0.20080  Biso   1.000  H
  H78      1.0000 0.61600  0.34740  0.70080  Biso   1.000  H
  H79      1.0000 0.61600  0.65260  0.29920  Biso   1.000  H
  H80      1.0000 0.38400  0.84740  0.79920  Biso   1.000  H
  H81      1.0000 0.11600  0.34740  0.79920  Biso   1.000  H
  H82      1.0000 0.88400  0.15260  0.29920  Biso   1.000  H
  H83      1.0000 0.88400  0.84740  0.70080  Biso   1.000  H
  H84      1.0000 0.11600  0.65260  0.20080  Biso   1.000  H
  H85      1.0000 0.61600  0.84740  0.79920  Biso   1.000  H
  H86      1.0000 0.38400  0.65260  0.29920  Biso   1.000  H
  H87      1.0000 0.38400  0.34740  0.70080  Biso   1.000  H
  H88      1.0000 0.61600  0.15260  0.20080  Biso   1.000  H
  C81      1.0000 0.82710  0.59659  0.12466  Biso   1.000  C
  C82      1.0000 0.17290  0.90341  0.62466  Biso   1.000  C
  C83      1.0000 0.17290  0.09659  0.37534  Biso   1.000  C
  C84      1.0000 0.82710  0.40341  0.87534  Biso   1.000  C
  C85      1.0000 0.32710  0.09659  0.12466  Biso   1.000  C
  C86      1.0000 0.67290  0.40341  0.62466  Biso   1.000  C
  C87      1.0000 0.67290  0.59659  0.37534  Biso   1.000  C
  C88      1.0000 0.32710  0.90341  0.87534  Biso   1.000  C
  C89      1.0000 0.17290  0.40341  0.87534  Biso   1.000  C
  C90      1.0000 0.82710  0.09659  0.37534  Biso   1.000  C
  C91      1.0000 0.82710  0.90341  0.62466  Biso   1.000  C
  C92      1.0000 0.17290  0.59659  0.12466  Biso   1.000  C
  C93      1.0000 0.67290  0.90341  0.87534  Biso   1.000  C
  C94      1.0000 0.32710  0.59659  0.37534  Biso   1.000  C
  C95      1.0000 0.32710  0.40341  0.62466  Biso   1.000  C
  C96      1.0000 0.67290  0.09659  0.12466  Biso   1.000  C
  H89      1.0000 0.88320  0.56850  0.12050  Biso   1.000  H
  H90      1.0000 0.11680  0.93150  0.62050  Biso   1.000  H
  H91      1.0000 0.11680  0.06850  0.37950  Biso   1.000  H
  H92      1.0000 0.88320  0.43150  0.87950  Biso   1.000  H
  H93      1.0000 0.38320  0.06850  0.12050  Biso   1.000  H
  H94      1.0000 0.61680  0.43150  0.62050  Biso   1.000  H
  H95      1.0000 0.61680  0.56850  0.37950  Biso   1.000  H
  H96      1.0000 0.38320  0.93150  0.87950  Biso   1.000  H
  H97      1.0000 0.11680  0.43150  0.87950  Biso   1.000  H
  H98      1.0000 0.88320  0.06850  0.37950  Biso   1.000  H
  H99      1.0000 0.88320  0.93150  0.62050  Biso   1.000  H
  H100     1.0000 0.11680  0.56850  0.12050  Biso   1.000  H
  H101     1.0000 0.61680  0.93150  0.87950  Biso   1.000  H
  H102     1.0000 0.38320  0.56850  0.37950  Biso   1.000  H
  H103     1.0000 0.38320  0.43150  0.62050  Biso   1.000  H
  H104     1.0000 0.61680  0.06850  0.12050  Biso   1.000  H
  C97      1.0000 0.67340  0.67849  0.13867  Biso   1.000  C
  C98      1.0000 0.32660  0.82151  0.63867  Biso   1.000  C
  C99      1.0000 0.32660  0.17849  0.36133  Biso   1.000  C
  C100     1.0000 0.67340  0.32151  0.86133  Biso   1.000  C
  C101     1.0000 0.17340  0.17849  0.13867  Biso   1.000  C
  C102     1.0000 0.82660  0.32151  0.63867  Biso   1.000  C
  C103     1.0000 0.82660  0.67849  0.36133  Biso   1.000  C
  C104     1.0000 0.17340  0.82151  0.86133  Biso   1.000  C
  C105     1.0000 0.32660  0.32151  0.86133  Biso   1.000  C
  C106     1.0000 0.67340  0.17849  0.36133  Biso   1.000  C
  C107     1.0000 0.67340  0.82151  0.63867  Biso   1.000  C
  C108     1.0000 0.32660  0.67849  0.13867  Biso   1.000  C
  C109     1.0000 0.82660  0.82151  0.86133  Biso   1.000  C
  C110     1.0000 0.17340  0.67849  0.36133  Biso   1.000  C
  C111     1.0000 0.17340  0.32151  0.63867  Biso   1.000  C
  C112     1.0000 0.82660  0.17849  0.13867  Biso   1.000  C
  H105     1.0000 0.61760  0.70700  0.14210  Biso   1.000  H
  H106     1.0000 0.38240  0.79300  0.64210  Biso   1.000  H
  H107     1.0000 0.38240  0.20700  0.35790  Biso   1.000  H
  H108     1.0000 0.61760  0.29300  0.85790  Biso   1.000  H
  H109     1.0000 0.11760  0.20700  0.14210  Biso   1.000  H
  H110     1.0000 0.88240  0.29300  0.64210  Biso   1.000  H
  H111     1.0000 0.88240  0.70700  0.35790  Biso   1.000  H
  H112     1.0000 0.11760  0.79300  0.85790  Biso   1.000  H
  H113     1.0000 0.38240  0.29300  0.85790  Biso   1.000  H
  H114     1.0000 0.61760  0.20700  0.35790  Biso   1.000  H
  H115     1.0000 0.61760  0.79300  0.64210  Biso   1.000  H
  H116     1.0000 0.38240  0.70700  0.14210  Biso   1.000  H
  H117     1.0000 0.88240  0.79300  0.85790  Biso   1.000  H
  H118     1.0000 0.11760  0.70700  0.35790  Biso   1.000  H
  H119     1.0000 0.11760  0.29300  0.64210  Biso   1.000  H
  H120     1.0000 0.88240  0.20700  0.14210  Biso   1.000  H
  C113     1.0000 0.67390  0.62711  0.09186  Biso   1.000  C
  C114     1.0000 0.32610  0.87289  0.59186  Biso   1.000  C
  C115     1.0000 0.32610  0.12711  0.40814  Biso   1.000  C
  C116     1.0000 0.67390  0.37289  0.90814  Biso   1.000  C
  C117     1.0000 0.17390  0.12711  0.09186  Biso   1.000  C
  C118     1.0000 0.82610  0.37289  0.59186  Biso   1.000  C
  C119     1.0000 0.82610  0.62711  0.40814  Biso   1.000  C
  C120     1.0000 0.17390  0.87289  0.90814  Biso   1.000  C
  C121     1.0000 0.32610  0.37289  0.90814  Biso   1.000  C
  C122     1.0000 0.67390  0.12711  0.40814  Biso   1.000  C
  C123     1.0000 0.67390  0.87289  0.59186  Biso   1.000  C
  C124     1.0000 0.32610  0.62711  0.09186  Biso   1.000  C
  C125     1.0000 0.82610  0.87289  0.90814  Biso   1.000  C
  C126     1.0000 0.17390  0.62711  0.40814  Biso   1.000  C
  C127     1.0000 0.17390  0.37289  0.59186  Biso   1.000  C
  C128     1.0000 0.82610  0.12711  0.09186  Biso   1.000  C
  H121     1.0000 0.61760  0.62100  0.06410  Biso   1.000  H
  H122     1.0000 0.38240  0.87900  0.56410  Biso   1.000  H
  H123     1.0000 0.38240  0.12100  0.43590  Biso   1.000  H
  H124     1.0000 0.61760  0.37900  0.93590  Biso   1.000  H
  H125     1.0000 0.11760  0.12100  0.06410  Biso   1.000  H
  H126     1.0000 0.88240  0.37900  0.56410  Biso   1.000  H
  H127     1.0000 0.88240  0.62100  0.43590  Biso   1.000  H
  H128     1.0000 0.11760  0.87900  0.93590  Biso   1.000  H
  H129     1.0000 0.38240  0.37900  0.93590  Biso   1.000  H
  H130     1.0000 0.61760  0.12100  0.43590  Biso   1.000  H
  H131     1.0000 0.61760  0.87900  0.56410  Biso   1.000  H
  H132     1.0000 0.38240  0.62100  0.06410  Biso   1.000  H
  H133     1.0000 0.88240  0.87900  0.93590  Biso   1.000  H
  H134     1.0000 0.11760  0.62100  0.43590  Biso   1.000  H
  H135     1.0000 0.11760  0.37900  0.56410  Biso   1.000  H
  H136     1.0000 0.88240  0.12100  0.06410  Biso   1.000  H
  Sb1      1.0000 0.00000  0.00345  0.20747  Biso   1.000  Sb
  Sb2      1.0000 0.00000  0.49656  0.70747  Biso   1.000  Sb
  Sb3      1.0000 0.00000  0.50345  0.29253  Biso   1.000  Sb
  Sb4      1.0000 0.00000  0.99655  0.79253  Biso   1.000  Sb
  Sb5      1.0000 0.50000  0.50345  0.20747  Biso   1.000  Sb
  Sb6      1.0000 0.50000  0.99655  0.70747  Biso   1.000  Sb
  Sb7      1.0000 0.50000  0.00345  0.29253  Biso   1.000  Sb
  Sb8      1.0000 0.50000  0.49656  0.79253  Biso   1.000  Sb
  F33      1.0000 0.86171  0.00298  0.20832  Biso   1.000  F
  F34      1.0000 0.13829  0.49702  0.70832  Biso   1.000  F
  F35      1.0000 0.13829  0.50298  0.29168  Biso   1.000  F
  F36      1.0000 0.86171  0.99702  0.79168  Biso   1.000  F
  F37      1.0000 0.36171  0.50298  0.20832  Biso   1.000  F
  F38      1.0000 0.63829  0.99702  0.70832  Biso   1.000  F
  F39      1.0000 0.63829  0.00298  0.29168  Biso   1.000  F
  F40      1.0000 0.36171  0.49702  0.79168  Biso   1.000  F
  F41      1.0000 0.13829  0.99702  0.79168  Biso   1.000  F
  F42      1.0000 0.86171  0.50298  0.29168  Biso   1.000  F
  F43      1.0000 0.86171  0.49702  0.70832  Biso   1.000  F
  F44      1.0000 0.13829  0.00298  0.20832  Biso   1.000  F
  F45      1.0000 0.63829  0.49702  0.79168  Biso   1.000  F
  F46      1.0000 0.36171  0.00298  0.29168  Biso   1.000  F
  F47      1.0000 0.36171  0.99702  0.70832  Biso   1.000  F
  F48      1.0000 0.63829  0.50298  0.20832  Biso   1.000  F
  F49      1.0000 0.00000  0.00584  0.11090  Biso   1.000  F
  F50      1.0000 0.00000  0.49416  0.61090  Biso   1.000  F
  F51      1.0000 0.00000  0.50584  0.38910  Biso   1.000  F
  F52      1.0000 0.00000  0.99416  0.88910  Biso   1.000  F
  F53      1.0000 0.50000  0.50584  0.11090  Biso   1.000  F
  F54      1.0000 0.50000  0.99416  0.61090  Biso   1.000  F
  F55      1.0000 0.50000  0.00584  0.38910  Biso   1.000  F
  F56      1.0000 0.50000  0.49416  0.88910  Biso   1.000  F
  F57      1.0000 0.00000  0.09773  0.21435  Biso   1.000  F
  F58      1.0000 0.00000  0.40227  0.71435  Biso   1.000  F
  F59      1.0000 0.00000  0.59773  0.28565  Biso   1.000  F
  F60      1.0000 0.00000  0.90227  0.78565  Biso   1.000  F
  F61      1.0000 0.50000  0.59773  0.21435  Biso   1.000  F
  F62      1.0000 0.50000  0.90227  0.71435  Biso   1.000  F
  F63      1.0000 0.50000  0.09773  0.28565  Biso   1.000  F
  F64      1.0000 0.50000  0.40227  0.78565  Biso   1.000  F
  F65      1.0000 0.00000  0.90898  0.20921  Biso   1.000  F
  F66      1.0000 0.00000  0.59102  0.70921  Biso   1.000  F
  F67      1.0000 0.00000  0.40898  0.29079  Biso   1.000  F
  F68      1.0000 0.00000  0.09102  0.79079  Biso   1.000  F
  F69      1.0000 0.50000  0.40898  0.20921  Biso   1.000  F
  F70      1.0000 0.50000  0.09102  0.70921  Biso   1.000  F
  F71      1.0000 0.50000  0.90898  0.29079  Biso   1.000  F
  F72      1.0000 0.50000  0.59102  0.79079  Biso   1.000  F
  F73      1.0000 0.00000  0.00121  0.30284  Biso   1.000  F
  F74      1.0000 0.00000  0.49879  0.80284  Biso   1.000  F
  F75      1.0000 0.00000  0.50121  0.19716  Biso   1.000  F
  F76      1.0000 0.00000  0.99879  0.69716  Biso   1.000  F
  F77      1.0000 0.50000  0.50121  0.30284  Biso   1.000  F
  F78      1.0000 0.50000  0.99879  0.80284  Biso   1.000  F
  F79      1.0000 0.50000  0.00121  0.19716  Biso   1.000  F
  F80      1.0000 0.50000  0.49879  0.69716  Biso   1.000  F
  Sb9      1.0000 0.50000  0.20772  0.99957  Biso   1.000  Sb
  Sb10     1.0000 0.50000  0.29228  0.49957  Biso   1.000  Sb
  Sb11     1.0000 0.50000  0.70772  0.50043  Biso   1.000  Sb
  Sb12     1.0000 0.50000  0.79228  0.00043  Biso   1.000  Sb
  Sb13     1.0000 0.00000  0.70772  0.99957  Biso   1.000  Sb
  Sb14     1.0000 0.00000  0.79228  0.49957  Biso   1.000  Sb
  Sb15     1.0000 0.00000  0.20772  0.50043  Biso   1.000  Sb
  Sb16     1.0000 0.00000  0.29228  0.00043  Biso   1.000  Sb
  F81      1.0000 0.50000  0.11195  0.00377  Biso   1.000  F
  F82      1.0000 0.50000  0.38805  0.50377  Biso   1.000  F
  F83      1.0000 0.50000  0.61195  0.49623  Biso   1.000  F
  F84      1.0000 0.50000  0.88805  0.99623  Biso   1.000  F
  F85      1.0000 0.00000  0.61195  0.00377  Biso   1.000  F
  F86      1.0000 0.00000  0.88805  0.50377  Biso   1.000  F
  F87      1.0000 0.00000  0.11195  0.49623  Biso   1.000  F
  F88      1.0000 0.00000  0.38805  0.99623  Biso   1.000  F
  F89      1.0000 0.50000  0.20743  0.90439  Biso   1.000  F
  F90      1.0000 0.50000  0.29257  0.40439  Biso   1.000  F
  F91      1.0000 0.50000  0.70743  0.59561  Biso   1.000  F
  F92      1.0000 0.50000  0.79257  0.09561  Biso   1.000  F
  F93      1.0000 0.00000  0.70743  0.90439  Biso   1.000  F
  F94      1.0000 0.00000  0.79257  0.40439  Biso   1.000  F
  F95      1.0000 0.00000  0.20743  0.59561  Biso   1.000  F
  F96      1.0000 0.00000  0.29257  0.09561  Biso   1.000  F
  F97      1.0000 0.63821  0.20835  0.99918  Biso   1.000  F
  F98      1.0000 0.36179  0.29165  0.49918  Biso   1.000  F
  F99      1.0000 0.36179  0.70835  0.50082  Biso   1.000  F
  F100     1.0000 0.63821  0.79165  0.00082  Biso   1.000  F
  F101     1.0000 0.13821  0.70835  0.99918  Biso   1.000  F
  F102     1.0000 0.86179  0.79165  0.49918  Biso   1.000  F
  F103     1.0000 0.86179  0.20835  0.50082  Biso   1.000  F
  F104     1.0000 0.13821  0.29165  0.00082  Biso   1.000  F
  F105     1.0000 0.36179  0.79165  0.00082  Biso   1.000  F
  F106     1.0000 0.63821  0.70835  0.50082  Biso   1.000  F
  F107     1.0000 0.63821  0.29165  0.49918  Biso   1.000  F
  F108     1.0000 0.36179  0.20835  0.99918  Biso   1.000  F
  F109     1.0000 0.86179  0.29165  0.00082  Biso   1.000  F
  F110     1.0000 0.13821  0.20835  0.50082  Biso   1.000  F
  F111     1.0000 0.13821  0.79165  0.49918  Biso   1.000  F
  F112     1.0000 0.86179  0.70835  0.99918  Biso   1.000  F
  F113     1.0000 0.50000  0.21622  0.09419  Biso   1.000  F
  F114     1.0000 0.50000  0.28378  0.59419  Biso   1.000  F
  F115     1.0000 0.50000  0.71622  0.40581  Biso   1.000  F
  F116     1.0000 0.50000  0.78378  0.90581  Biso   1.000  F
  F117     1.0000 0.00000  0.71622  0.09419  Biso   1.000  F
  F118     1.0000 0.00000  0.78378  0.59419  Biso   1.000  F
  F119     1.0000 0.00000  0.21622  0.40581  Biso   1.000  F
  F120     1.0000 0.00000  0.28378  0.90581  Biso   1.000  F
  F121     1.0000 0.50000  0.30264  0.99619  Biso   1.000  F
  F122     1.0000 0.50000  0.19736  0.49619  Biso   1.000  F
  F123     1.0000 0.50000  0.80264  0.50381  Biso   1.000  F
  F124     1.0000 0.50000  0.69736  0.00381  Biso   1.000  F
  F125     1.0000 0.00000  0.80264  0.99619  Biso   1.000  F
  F126     1.0000 0.00000  0.69736  0.49619  Biso   1.000  F
  F127     1.0000 0.00000  0.30264  0.50381  Biso   1.000  F
  F128     1.0000 0.00000  0.19736  0.00381  Biso   1.000  F
  H137     1.0000 0.92670  0.54090  0.00060  Biso   1.000  H
  H138     1.0000 0.07330  0.95910  0.50060  Biso   1.000  H
  H139     1.0000 0.07330  0.04090  0.49940  Biso   1.000  H
  H140     1.0000 0.92670  0.45910  0.99940  Biso   1.000  H
  H141     1.0000 0.42670  0.04090  0.00060  Biso   1.000  H
  H142     1.0000 0.57330  0.45910  0.50060  Biso   1.000  H
  H143     1.0000 0.57330  0.54090  0.49940  Biso   1.000  H
  H144     1.0000 0.42670  0.95910  0.99940  Biso   1.000  H
  H145     1.0000 0.07330  0.45910  0.99940  Biso   1.000  H
  H146     1.0000 0.92670  0.04090  0.49940  Biso   1.000  H
  H147     1.0000 0.92670  0.95910  0.50060  Biso   1.000  H
  H148     1.0000 0.07330  0.54090  0.00060  Biso   1.000  H
  H149     1.0000 0.57330  0.95910  0.99940  Biso   1.000  H
  H150     1.0000 0.42670  0.54090  0.49940  Biso   1.000  H
  H151     1.0000 0.42670  0.45910  0.50060  Biso   1.000  H
  H152     1.0000 0.57330  0.04090  0.00060  Biso   1.000  H
