data_image0
_cell_length_a       13.688
_cell_length_b       20.055
_cell_length_c       19.976
_cell_angle_alpha    90
_cell_angle_beta     90
_cell_angle_gamma    90

_symmetry_space_group_name_H-M    "P 1"
_symmetry_int_tables_number       1

loop_
  _symmetry_equiv_pos_as_xyz
  'x, y, z'

loop_
  _atom_site_label
  _atom_site_occupancy
  _atom_site_fract_x
  _atom_site_fract_y
  _atom_site_fract_z
  _atom_site_thermal_displace_type
  _atom_site_B_iso_or_equiv
  _atom_site_type_symbol
  Cu1      1.0000 0.75041  0.50000  0.00000  Biso   1.000  Cu
  Cu2      1.0000 0.24959  0.00000  0.50000  Biso   1.000  Cu
  Cu3      1.0000 0.25041  0.00000  0.00000  Biso   1.000  Cu
  Cu4      1.0000 0.74959  0.50000  0.50000  Biso   1.000  Cu
  Cu5      1.0000 0.24959  0.50000  0.00000  Biso   1.000  Cu
  Cu6      1.0000 0.75041  0.00000  0.50000  Biso   1.000  Cu
  Cu7      1.0000 0.74959  0.00000  0.00000  Biso   1.000  Cu
  Cu8      1.0000 0.25041  0.50000  0.50000  Biso   1.000  Cu
  F1       1.0000 0.61080  0.50000  0.00000  Biso   1.000  F
  F2       1.0000 0.38920  0.00000  0.50000  Biso   1.000  F
  F3       1.0000 0.11080  0.00000  0.00000  Biso   1.000  F
  F4       1.0000 0.88920  0.50000  0.50000  Biso   1.000  F
  F5       1.0000 0.38920  0.50000  0.00000  Biso   1.000  F
  F6       1.0000 0.61080  0.00000  0.50000  Biso   1.000  F
  F7       1.0000 0.88920  0.00000  0.00000  Biso   1.000  F
  F8       1.0000 0.11080  0.50000  0.50000  Biso   1.000  F
  F9       1.0000 0.89000  0.50000  0.00000  Biso   1.000  F
  F10      1.0000 0.11000  0.00000  0.50000  Biso   1.000  F
  F11      1.0000 0.39000  0.00000  0.00000  Biso   1.000  F
  F12      1.0000 0.61000  0.50000  0.50000  Biso   1.000  F
  F13      1.0000 0.11000  0.50000  0.00000  Biso   1.000  F
  F14      1.0000 0.89000  0.00000  0.50000  Biso   1.000  F
  F15      1.0000 0.61000  0.00000  0.00000  Biso   1.000  F
  F16      1.0000 0.39000  0.50000  0.50000  Biso   1.000  F
  Cu9      1.0000 0.75000  0.25934  0.25000  Biso   1.000  Cu
  Cu10     1.0000 0.25000  0.24066  0.75000  Biso   1.000  Cu
  Cu11     1.0000 0.25000  0.75934  0.25000  Biso   1.000  Cu
  Cu12     1.0000 0.75000  0.74066  0.75000  Biso   1.000  Cu
  Cu13     1.0000 0.25000  0.74066  0.75000  Biso   1.000  Cu
  Cu14     1.0000 0.75000  0.75934  0.25000  Biso   1.000  Cu
  Cu15     1.0000 0.75000  0.24066  0.75000  Biso   1.000  Cu
  Cu16     1.0000 0.25000  0.25934  0.25000  Biso   1.000  Cu
  F17      1.0000 0.91681  0.26049  0.24985  Biso   1.000  F
  F18      1.0000 0.08319  0.23951  0.74985  Biso   1.000  F
  F19      1.0000 0.08319  0.76049  0.25015  Biso   1.000  F
  F20      1.0000 0.91681  0.73951  0.75015  Biso   1.000  F
  F21      1.0000 0.41681  0.76049  0.24985  Biso   1.000  F
  F22      1.0000 0.58319  0.73951  0.74985  Biso   1.000  F
  F23      1.0000 0.58319  0.26049  0.25015  Biso   1.000  F
  F24      1.0000 0.41681  0.23951  0.75015  Biso   1.000  F
  F25      1.0000 0.08319  0.73951  0.75015  Biso   1.000  F
  F26      1.0000 0.91681  0.76049  0.25015  Biso   1.000  F
  F27      1.0000 0.91681  0.23951  0.74985  Biso   1.000  F
  F28      1.0000 0.08319  0.26049  0.24985  Biso   1.000  F
  F29      1.0000 0.58319  0.23951  0.75015  Biso   1.000  F
  F30      1.0000 0.41681  0.26049  0.25015  Biso   1.000  F
  F31      1.0000 0.41681  0.73951  0.74985  Biso   1.000  F
  F32      1.0000 0.58319  0.76049  0.24985  Biso   1.000  F
  H1       1.0000 0.00000  0.25800  0.25400  Biso   1.000  H
  H2       1.0000 0.00000  0.24200  0.75400  Biso   1.000  H
  H3       1.0000 0.00000  0.75800  0.24600  Biso   1.000  H
  H4       1.0000 0.00000  0.74200  0.74600  Biso   1.000  H
  H5       1.0000 0.50000  0.75800  0.25400  Biso   1.000  H
  H6       1.0000 0.50000  0.74200  0.75400  Biso   1.000  H
  H7       1.0000 0.50000  0.25800  0.24600  Biso   1.000  H
  H8       1.0000 0.50000  0.24200  0.74600  Biso   1.000  H
  N1       1.0000 0.75070  0.42579  0.07625  Biso   1.000  N
  N2       1.0000 0.24930  0.07421  0.57625  Biso   1.000  N
  N3       1.0000 0.24930  0.92579  0.42375  Biso   1.000  N
  N4       1.0000 0.75070  0.57421  0.92375  Biso   1.000  N
  N5       1.0000 0.25070  0.92579  0.07625  Biso   1.000  N
  N6       1.0000 0.74930  0.57421  0.57625  Biso   1.000  N
  N7       1.0000 0.74930  0.42579  0.42375  Biso   1.000  N
  N8       1.0000 0.25070  0.07421  0.92375  Biso   1.000  N
  N9       1.0000 0.24930  0.57421  0.92375  Biso   1.000  N
  N10      1.0000 0.75070  0.92579  0.42375  Biso   1.000  N
  N11      1.0000 0.75070  0.07421  0.57625  Biso   1.000  N
  N12      1.0000 0.24930  0.42579  0.07625  Biso   1.000  N
  N13      1.0000 0.74930  0.07421  0.92375  Biso   1.000  N
  N14      1.0000 0.25070  0.42579  0.42375  Biso   1.000  N
  N15      1.0000 0.25070  0.57421  0.57625  Biso   1.000  N
  N16      1.0000 0.74930  0.92579  0.07625  Biso   1.000  N
  N17      1.0000 0.75020  0.33015  0.17745  Biso   1.000  N
  N18      1.0000 0.24980  0.16985  0.67745  Biso   1.000  N
  N19      1.0000 0.24980  0.83015  0.32255  Biso   1.000  N
  N20      1.0000 0.75020  0.66985  0.82255  Biso   1.000  N
  N21      1.0000 0.25020  0.83015  0.17745  Biso   1.000  N
  N22      1.0000 0.74980  0.66985  0.67745  Biso   1.000  N
  N23      1.0000 0.74980  0.33015  0.32255  Biso   1.000  N
  N24      1.0000 0.25020  0.16985  0.82255  Biso   1.000  N
  N25      1.0000 0.24980  0.66985  0.82255  Biso   1.000  N
  N26      1.0000 0.75020  0.83015  0.32255  Biso   1.000  N
  N27      1.0000 0.75020  0.16985  0.67745  Biso   1.000  N
  N28      1.0000 0.24980  0.33015  0.17745  Biso   1.000  N
  N29      1.0000 0.74980  0.16985  0.82255  Biso   1.000  N
  N30      1.0000 0.25020  0.33015  0.32255  Biso   1.000  N
  N31      1.0000 0.25020  0.66985  0.67745  Biso   1.000  N
  N32      1.0000 0.74980  0.83015  0.17745  Biso   1.000  N
  C1       1.0000 0.67580  0.38360  0.08400  Biso   1.000  C
  C2       1.0000 0.32420  0.11640  0.58400  Biso   1.000  C
  C3       1.0000 0.32420  0.88360  0.41600  Biso   1.000  C
  C4       1.0000 0.67580  0.61640  0.91600  Biso   1.000  C
  C5       1.0000 0.17580  0.88360  0.08400  Biso   1.000  C
  C6       1.0000 0.82420  0.61640  0.58400  Biso   1.000  C
  C7       1.0000 0.82420  0.38360  0.41600  Biso   1.000  C
  C8       1.0000 0.17580  0.11640  0.91600  Biso   1.000  C
  C9       1.0000 0.32420  0.61640  0.91600  Biso   1.000  C
  C10      1.0000 0.67580  0.88360  0.41600  Biso   1.000  C
  C11      1.0000 0.67580  0.11640  0.58400  Biso   1.000  C
  C12      1.0000 0.32420  0.38360  0.08400  Biso   1.000  C
  C13      1.0000 0.82420  0.11640  0.91600  Biso   1.000  C
  C14      1.0000 0.17580  0.38360  0.41600  Biso   1.000  C
  C15      1.0000 0.17580  0.61640  0.58400  Biso   1.000  C
  C16      1.0000 0.82420  0.88360  0.08400  Biso   1.000  C
  H9       1.0000 0.62280  0.38640  0.05500  Biso   1.000  H
  H10      1.0000 0.37720  0.11360  0.55500  Biso   1.000  H
  H11      1.0000 0.37720  0.88640  0.44500  Biso   1.000  H
  H12      1.0000 0.62280  0.61360  0.94500  Biso   1.000  H
  H13      1.0000 0.12280  0.88640  0.05500  Biso   1.000  H
  H14      1.0000 0.87720  0.61360  0.55500  Biso   1.000  H
  H15      1.0000 0.87720  0.38640  0.44500  Biso   1.000  H
  H16      1.0000 0.12280  0.11360  0.94500  Biso   1.000  H
  H17      1.0000 0.37720  0.61360  0.94500  Biso   1.000  H
  H18      1.0000 0.62280  0.88640  0.44500  Biso   1.000  H
  H19      1.0000 0.62280  0.11360  0.55500  Biso   1.000  H
  H20      1.0000 0.37720  0.38640  0.05500  Biso   1.000  H
  H21      1.0000 0.87720  0.11360  0.94500  Biso   1.000  H
  H22      1.0000 0.12280  0.38640  0.44500  Biso   1.000  H
  H23      1.0000 0.12280  0.61360  0.55500  Biso   1.000  H
  H24      1.0000 0.87720  0.88640  0.05500  Biso   1.000  H
  C17      1.0000 0.67530  0.33590  0.13400  Biso   1.000  C
  C18      1.0000 0.32470  0.16410  0.63400  Biso   1.000  C
  C19      1.0000 0.32470  0.83590  0.36600  Biso   1.000  C
  C20      1.0000 0.67530  0.66410  0.86600  Biso   1.000  C
  C21      1.0000 0.17530  0.83590  0.13400  Biso   1.000  C
  C22      1.0000 0.82470  0.66410  0.63400  Biso   1.000  C
  C23      1.0000 0.82470  0.33590  0.36600  Biso   1.000  C
  C24      1.0000 0.17530  0.16410  0.86600  Biso   1.000  C
  C25      1.0000 0.32470  0.66410  0.86600  Biso   1.000  C
  C26      1.0000 0.67530  0.83590  0.36600  Biso   1.000  C
  C27      1.0000 0.67530  0.16410  0.63400  Biso   1.000  C
  C28      1.0000 0.32470  0.33590  0.13400  Biso   1.000  C
  C29      1.0000 0.82470  0.16410  0.86600  Biso   1.000  C
  C30      1.0000 0.17530  0.33590  0.36600  Biso   1.000  C
  C31      1.0000 0.17530  0.66410  0.63400  Biso   1.000  C
  C32      1.0000 0.82470  0.83590  0.13400  Biso   1.000  C
  H25      1.0000 0.62220  0.30730  0.13780  Biso   1.000  H
  H26      1.0000 0.37780  0.19270  0.63780  Biso   1.000  H
  H27      1.0000 0.37780  0.80730  0.36220  Biso   1.000  H
  H28      1.0000 0.62220  0.69270  0.86220  Biso   1.000  H
  H29      1.0000 0.12220  0.80730  0.13780  Biso   1.000  H
  H30      1.0000 0.87780  0.69270  0.63780  Biso   1.000  H
  H31      1.0000 0.87780  0.30730  0.36220  Biso   1.000  H
  H32      1.0000 0.12220  0.19270  0.86220  Biso   1.000  H
  H33      1.0000 0.37780  0.69270  0.86220  Biso   1.000  H
  H34      1.0000 0.62220  0.80730  0.36220  Biso   1.000  H
  H35      1.0000 0.62220  0.19270  0.63780  Biso   1.000  H
  H36      1.0000 0.37780  0.30730  0.13780  Biso   1.000  H
  H37      1.0000 0.87780  0.19270  0.86220  Biso   1.000  H
  H38      1.0000 0.12220  0.30730  0.36220  Biso   1.000  H
  H39      1.0000 0.12220  0.69270  0.63780  Biso   1.000  H
  H40      1.0000 0.87780  0.80730  0.13780  Biso   1.000  H
  C33      1.0000 0.82430  0.42010  0.11950  Biso   1.000  C
  C34      1.0000 0.17570  0.07990  0.61950  Biso   1.000  C
  C35      1.0000 0.17570  0.92010  0.38050  Biso   1.000  C
  C36      1.0000 0.82430  0.57990  0.88050  Biso   1.000  C
  C37      1.0000 0.32430  0.92010  0.11950  Biso   1.000  C
  C38      1.0000 0.67570  0.57990  0.61950  Biso   1.000  C
  C39      1.0000 0.67570  0.42010  0.38050  Biso   1.000  C
  C40      1.0000 0.32430  0.07990  0.88050  Biso   1.000  C
  C41      1.0000 0.17570  0.57990  0.88050  Biso   1.000  C
  C42      1.0000 0.82430  0.92010  0.38050  Biso   1.000  C
  C43      1.0000 0.82430  0.07990  0.61950  Biso   1.000  C
  C44      1.0000 0.17570  0.42010  0.11950  Biso   1.000  C
  C45      1.0000 0.67570  0.07990  0.88050  Biso   1.000  C
  C46      1.0000 0.32430  0.42010  0.38050  Biso   1.000  C
  C47      1.0000 0.32430  0.57990  0.61950  Biso   1.000  C
  C48      1.0000 0.67570  0.92010  0.11950  Biso   1.000  C
  H41      1.0000 0.87730  0.44890  0.11570  Biso   1.000  H
  H42      1.0000 0.12270  0.05110  0.61570  Biso   1.000  H
  H43      1.0000 0.12270  0.94890  0.38430  Biso   1.000  H
  H44      1.0000 0.87730  0.55110  0.88430  Biso   1.000  H
  H45      1.0000 0.37730  0.94890  0.11570  Biso   1.000  H
  H46      1.0000 0.62270  0.55110  0.61570  Biso   1.000  H
  H47      1.0000 0.62270  0.44890  0.38430  Biso   1.000  H
  H48      1.0000 0.37730  0.05110  0.88430  Biso   1.000  H
  H49      1.0000 0.12270  0.55110  0.88430  Biso   1.000  H
  H50      1.0000 0.87730  0.94890  0.38430  Biso   1.000  H
  H51      1.0000 0.87730  0.05110  0.61570  Biso   1.000  H
  H52      1.0000 0.12270  0.44890  0.11570  Biso   1.000  H
  H53      1.0000 0.62270  0.05110  0.88430  Biso   1.000  H
  H54      1.0000 0.37730  0.44890  0.38430  Biso   1.000  H
  H55      1.0000 0.37730  0.55110  0.61570  Biso   1.000  H
  H56      1.0000 0.62270  0.94890  0.11570  Biso   1.000  H
  C49      1.0000 0.82430  0.37270  0.16980  Biso   1.000  C
  C50      1.0000 0.17570  0.12730  0.66980  Biso   1.000  C
  C51      1.0000 0.17570  0.87270  0.33020  Biso   1.000  C
  C52      1.0000 0.82430  0.62730  0.83020  Biso   1.000  C
  C53      1.0000 0.32430  0.87270  0.16980  Biso   1.000  C
  C54      1.0000 0.67570  0.62730  0.66980  Biso   1.000  C
  C55      1.0000 0.67570  0.37270  0.33020  Biso   1.000  C
  C56      1.0000 0.32430  0.12730  0.83020  Biso   1.000  C
  C57      1.0000 0.17570  0.62730  0.83020  Biso   1.000  C
  C58      1.0000 0.82430  0.87270  0.33020  Biso   1.000  C
  C59      1.0000 0.82430  0.12730  0.66980  Biso   1.000  C
  C60      1.0000 0.17570  0.37270  0.16980  Biso   1.000  C
  C61      1.0000 0.67570  0.12730  0.83020  Biso   1.000  C
  C62      1.0000 0.32430  0.37270  0.33020  Biso   1.000  C
  C63      1.0000 0.32430  0.62730  0.66980  Biso   1.000  C
  C64      1.0000 0.67570  0.87270  0.16980  Biso   1.000  C
  H57      1.0000 0.87720  0.37040  0.19890  Biso   1.000  H
  H58      1.0000 0.12280  0.12960  0.69890  Biso   1.000  H
  H59      1.0000 0.12280  0.87040  0.30110  Biso   1.000  H
  H60      1.0000 0.87720  0.62960  0.80110  Biso   1.000  H
  H61      1.0000 0.37720  0.87040  0.19890  Biso   1.000  H
  H62      1.0000 0.62280  0.62960  0.69890  Biso   1.000  H
  H63      1.0000 0.62280  0.37040  0.30110  Biso   1.000  H
  H64      1.0000 0.37720  0.12960  0.80110  Biso   1.000  H
  H65      1.0000 0.12280  0.62960  0.80110  Biso   1.000  H
  H66      1.0000 0.87720  0.87040  0.30110  Biso   1.000  H
  H67      1.0000 0.87720  0.12960  0.69890  Biso   1.000  H
  H68      1.0000 0.12280  0.37040  0.19890  Biso   1.000  H
  H69      1.0000 0.62280  0.12960  0.80110  Biso   1.000  H
  H70      1.0000 0.37720  0.37040  0.30110  Biso   1.000  H
  H71      1.0000 0.37720  0.62960  0.69890  Biso   1.000  H
  H72      1.0000 0.62280  0.87040  0.19890  Biso   1.000  H
  N33      1.0000 0.75120  0.68717  0.17914  Biso   1.000  N
  N34      1.0000 0.24880  0.81283  0.67914  Biso   1.000  N
  N35      1.0000 0.24880  0.18717  0.32086  Biso   1.000  N
  N36      1.0000 0.75120  0.31283  0.82086  Biso   1.000  N
  N37      1.0000 0.25120  0.18717  0.17914  Biso   1.000  N
  N38      1.0000 0.74880  0.31283  0.67914  Biso   1.000  N
  N39      1.0000 0.74880  0.68717  0.32086  Biso   1.000  N
  N40      1.0000 0.25120  0.81283  0.82086  Biso   1.000  N
  N41      1.0000 0.24880  0.31283  0.82086  Biso   1.000  N
  N42      1.0000 0.75120  0.18717  0.32086  Biso   1.000  N
  N43      1.0000 0.75120  0.81283  0.67914  Biso   1.000  N
  N44      1.0000 0.24880  0.68717  0.17914  Biso   1.000  N
  N45      1.0000 0.74880  0.81283  0.82086  Biso   1.000  N
  N46      1.0000 0.25120  0.68717  0.32086  Biso   1.000  N
  N47      1.0000 0.25120  0.31283  0.67914  Biso   1.000  N
  N48      1.0000 0.74880  0.18717  0.17914  Biso   1.000  N
  N49      1.0000 0.75080  0.58616  0.08432  Biso   1.000  N
  N50      1.0000 0.24920  0.91384  0.58432  Biso   1.000  N
  N51      1.0000 0.24920  0.08616  0.41568  Biso   1.000  N
  N52      1.0000 0.75080  0.41384  0.91568  Biso   1.000  N
  N53      1.0000 0.25080  0.08616  0.08432  Biso   1.000  N
  N54      1.0000 0.74920  0.41384  0.58432  Biso   1.000  N
  N55      1.0000 0.74920  0.58616  0.41568  Biso   1.000  N
  N56      1.0000 0.25080  0.91384  0.91568  Biso   1.000  N
  N57      1.0000 0.24920  0.41384  0.91568  Biso   1.000  N
  N58      1.0000 0.75080  0.08616  0.41568  Biso   1.000  N
  N59      1.0000 0.75080  0.91384  0.58432  Biso   1.000  N
  N60      1.0000 0.24920  0.58616  0.08432  Biso   1.000  N
  N61      1.0000 0.74920  0.91384  0.91568  Biso   1.000  N
  N62      1.0000 0.25080  0.58616  0.41568  Biso   1.000  N
  N63      1.0000 0.25080  0.41384  0.58432  Biso   1.000  N
  N64      1.0000 0.74920  0.08616  0.08432  Biso   1.000  N
  C65      1.0000 0.82640  0.64560  0.17280  Biso   1.000  C
  C66      1.0000 0.17360  0.85440  0.67280  Biso   1.000  C
  C67      1.0000 0.17360  0.14560  0.32720  Biso   1.000  C
  C68      1.0000 0.82640  0.35440  0.82720  Biso   1.000  C
  C69      1.0000 0.32640  0.14560  0.17280  Biso   1.000  C
  C70      1.0000 0.67360  0.35440  0.67280  Biso   1.000  C
  C71      1.0000 0.67360  0.64560  0.32720  Biso   1.000  C
  C72      1.0000 0.32640  0.85440  0.82720  Biso   1.000  C
  C73      1.0000 0.17360  0.35440  0.82720  Biso   1.000  C
  C74      1.0000 0.82640  0.14560  0.32720  Biso   1.000  C
  C75      1.0000 0.82640  0.85440  0.67280  Biso   1.000  C
  C76      1.0000 0.17360  0.64560  0.17280  Biso   1.000  C
  C77      1.0000 0.67360  0.85440  0.82720  Biso   1.000  C
  C78      1.0000 0.32640  0.64560  0.32720  Biso   1.000  C
  C79      1.0000 0.32640  0.35440  0.67280  Biso   1.000  C
  C80      1.0000 0.67360  0.14560  0.17280  Biso   1.000  C
  H73      1.0000 0.88010  0.65010  0.20100  Biso   1.000  H
  H74      1.0000 0.11990  0.84990  0.70100  Biso   1.000  H
  H75      1.0000 0.11990  0.15010  0.29900  Biso   1.000  H
  H76      1.0000 0.88010  0.34990  0.79900  Biso   1.000  H
  H77      1.0000 0.38010  0.15010  0.20100  Biso   1.000  H
  H78      1.0000 0.61990  0.34990  0.70100  Biso   1.000  H
  H79      1.0000 0.61990  0.65010  0.29900  Biso   1.000  H
  H80      1.0000 0.38010  0.84990  0.79900  Biso   1.000  H
  H81      1.0000 0.11990  0.34990  0.79900  Biso   1.000  H
  H82      1.0000 0.88010  0.15010  0.29900  Biso   1.000  H
  H83      1.0000 0.88010  0.84990  0.70100  Biso   1.000  H
  H84      1.0000 0.11990  0.65010  0.20100  Biso   1.000  H
  H85      1.0000 0.61990  0.84990  0.79900  Biso   1.000  H
  H86      1.0000 0.38010  0.65010  0.29900  Biso   1.000  H
  H87      1.0000 0.38010  0.34990  0.70100  Biso   1.000  H
  H88      1.0000 0.61990  0.15010  0.20100  Biso   1.000  H
  C81      1.0000 0.82580  0.59600  0.12520  Biso   1.000  C
  C82      1.0000 0.17420  0.90400  0.62520  Biso   1.000  C
  C83      1.0000 0.17420  0.09600  0.37480  Biso   1.000  C
  C84      1.0000 0.82580  0.40400  0.87480  Biso   1.000  C
  C85      1.0000 0.32580  0.09600  0.12520  Biso   1.000  C
  C86      1.0000 0.67420  0.40400  0.62520  Biso   1.000  C
  C87      1.0000 0.67420  0.59600  0.37480  Biso   1.000  C
  C88      1.0000 0.32580  0.90400  0.87480  Biso   1.000  C
  C89      1.0000 0.17420  0.40400  0.87480  Biso   1.000  C
  C90      1.0000 0.82580  0.09600  0.37480  Biso   1.000  C
  C91      1.0000 0.82580  0.90400  0.62520  Biso   1.000  C
  C92      1.0000 0.17420  0.59600  0.12520  Biso   1.000  C
  C93      1.0000 0.67420  0.90400  0.87480  Biso   1.000  C
  C94      1.0000 0.32580  0.59600  0.37480  Biso   1.000  C
  C95      1.0000 0.32580  0.40400  0.62520  Biso   1.000  C
  C96      1.0000 0.67420  0.09600  0.12520  Biso   1.000  C
  H89      1.0000 0.88000  0.56830  0.12150  Biso   1.000  H
  H90      1.0000 0.12000  0.93170  0.62150  Biso   1.000  H
  H91      1.0000 0.12000  0.06830  0.37850  Biso   1.000  H
  H92      1.0000 0.88000  0.43170  0.87850  Biso   1.000  H
  H93      1.0000 0.38000  0.06830  0.12150  Biso   1.000  H
  H94      1.0000 0.62000  0.43170  0.62150  Biso   1.000  H
  H95      1.0000 0.62000  0.56830  0.37850  Biso   1.000  H
  H96      1.0000 0.38000  0.93170  0.87850  Biso   1.000  H
  H97      1.0000 0.12000  0.43170  0.87850  Biso   1.000  H
  H98      1.0000 0.88000  0.06830  0.37850  Biso   1.000  H
  H99      1.0000 0.88000  0.93170  0.62150  Biso   1.000  H
  H100     1.0000 0.12000  0.56830  0.12150  Biso   1.000  H
  H101     1.0000 0.62000  0.93170  0.87850  Biso   1.000  H
  H102     1.0000 0.38000  0.56830  0.37850  Biso   1.000  H
  H103     1.0000 0.38000  0.43170  0.62150  Biso   1.000  H
  H104     1.0000 0.62000  0.06830  0.12150  Biso   1.000  H
  C97      1.0000 0.67490  0.67840  0.13830  Biso   1.000  C
  C98      1.0000 0.32510  0.82160  0.63830  Biso   1.000  C
  C99      1.0000 0.32510  0.17840  0.36170  Biso   1.000  C
  C100     1.0000 0.67490  0.32160  0.86170  Biso   1.000  C
  C101     1.0000 0.17490  0.17840  0.13830  Biso   1.000  C
  C102     1.0000 0.82510  0.32160  0.63830  Biso   1.000  C
  C103     1.0000 0.82510  0.67840  0.36170  Biso   1.000  C
  C104     1.0000 0.17490  0.82160  0.86170  Biso   1.000  C
  C105     1.0000 0.32510  0.32160  0.86170  Biso   1.000  C
  C106     1.0000 0.67490  0.17840  0.36170  Biso   1.000  C
  C107     1.0000 0.67490  0.82160  0.63830  Biso   1.000  C
  C108     1.0000 0.32510  0.67840  0.13830  Biso   1.000  C
  C109     1.0000 0.82510  0.82160  0.86170  Biso   1.000  C
  C110     1.0000 0.17490  0.67840  0.36170  Biso   1.000  C
  C111     1.0000 0.17490  0.32160  0.63830  Biso   1.000  C
  C112     1.0000 0.82510  0.17840  0.13830  Biso   1.000  C
  H105     1.0000 0.62130  0.70680  0.14120  Biso   1.000  H
  H106     1.0000 0.37870  0.79320  0.64120  Biso   1.000  H
  H107     1.0000 0.37870  0.20680  0.35880  Biso   1.000  H
  H108     1.0000 0.62130  0.29320  0.85880  Biso   1.000  H
  H109     1.0000 0.12130  0.20680  0.14120  Biso   1.000  H
  H110     1.0000 0.87870  0.29320  0.64120  Biso   1.000  H
  H111     1.0000 0.87870  0.70680  0.35880  Biso   1.000  H
  H112     1.0000 0.12130  0.79320  0.85880  Biso   1.000  H
  H113     1.0000 0.37870  0.29320  0.85880  Biso   1.000  H
  H114     1.0000 0.62130  0.20680  0.35880  Biso   1.000  H
  H115     1.0000 0.62130  0.79320  0.64120  Biso   1.000  H
  H116     1.0000 0.37870  0.70680  0.14120  Biso   1.000  H
  H117     1.0000 0.87870  0.79320  0.85880  Biso   1.000  H
  H118     1.0000 0.12130  0.70680  0.35880  Biso   1.000  H
  H119     1.0000 0.12130  0.29320  0.64120  Biso   1.000  H
  H120     1.0000 0.87870  0.20680  0.14120  Biso   1.000  H
  C113     1.0000 0.67490  0.62760  0.09180  Biso   1.000  C
  C114     1.0000 0.32510  0.87240  0.59180  Biso   1.000  C
  C115     1.0000 0.32510  0.12760  0.40820  Biso   1.000  C
  C116     1.0000 0.67490  0.37240  0.90820  Biso   1.000  C
  C117     1.0000 0.17490  0.12760  0.09180  Biso   1.000  C
  C118     1.0000 0.82510  0.37240  0.59180  Biso   1.000  C
  C119     1.0000 0.82510  0.62760  0.40820  Biso   1.000  C
  C120     1.0000 0.17490  0.87240  0.90820  Biso   1.000  C
  C121     1.0000 0.32510  0.37240  0.90820  Biso   1.000  C
  C122     1.0000 0.67490  0.12760  0.40820  Biso   1.000  C
  C123     1.0000 0.67490  0.87240  0.59180  Biso   1.000  C
  C124     1.0000 0.32510  0.62760  0.09180  Biso   1.000  C
  C125     1.0000 0.82510  0.87240  0.90820  Biso   1.000  C
  C126     1.0000 0.17490  0.62760  0.40820  Biso   1.000  C
  C127     1.0000 0.17490  0.37240  0.59180  Biso   1.000  C
  C128     1.0000 0.82510  0.12760  0.09180  Biso   1.000  C
  H121     1.0000 0.62030  0.62190  0.06470  Biso   1.000  H
  H122     1.0000 0.37970  0.87810  0.56470  Biso   1.000  H
  H123     1.0000 0.37970  0.12190  0.43530  Biso   1.000  H
  H124     1.0000 0.62030  0.37810  0.93530  Biso   1.000  H
  H125     1.0000 0.12030  0.12190  0.06470  Biso   1.000  H
  H126     1.0000 0.87970  0.37810  0.56470  Biso   1.000  H
  H127     1.0000 0.87970  0.62190  0.43530  Biso   1.000  H
  H128     1.0000 0.12030  0.87810  0.93530  Biso   1.000  H
  H129     1.0000 0.37970  0.37810  0.93530  Biso   1.000  H
  H130     1.0000 0.62030  0.12190  0.43530  Biso   1.000  H
  H131     1.0000 0.62030  0.87810  0.56470  Biso   1.000  H
  H132     1.0000 0.37970  0.62190  0.06470  Biso   1.000  H
  H133     1.0000 0.87970  0.87810  0.93530  Biso   1.000  H
  H134     1.0000 0.12030  0.62190  0.43530  Biso   1.000  H
  H135     1.0000 0.12030  0.37810  0.56470  Biso   1.000  H
  H136     1.0000 0.87970  0.12190  0.06470  Biso   1.000  H
  Sb1      1.0000 0.00000  0.00339  0.20637  Biso   1.000  Sb
  Sb2      1.0000 0.00000  0.49661  0.70637  Biso   1.000  Sb
  Sb3      1.0000 0.00000  0.50339  0.29363  Biso   1.000  Sb
  Sb4      1.0000 0.00000  0.99661  0.79363  Biso   1.000  Sb
  Sb5      1.0000 0.50000  0.50339  0.20637  Biso   1.000  Sb
  Sb6      1.0000 0.50000  0.99661  0.70637  Biso   1.000  Sb
  Sb7      1.0000 0.50000  0.00339  0.29363  Biso   1.000  Sb
  Sb8      1.0000 0.50000  0.49661  0.79363  Biso   1.000  Sb
  F33      1.0000 0.86310  0.00296  0.20743  Biso   1.000  F
  F34      1.0000 0.13690  0.49704  0.70743  Biso   1.000  F
  F35      1.0000 0.13690  0.50296  0.29257  Biso   1.000  F
  F36      1.0000 0.86310  0.99704  0.79257  Biso   1.000  F
  F37      1.0000 0.36310  0.50296  0.20743  Biso   1.000  F
  F38      1.0000 0.63690  0.99704  0.70743  Biso   1.000  F
  F39      1.0000 0.63690  0.00296  0.29257  Biso   1.000  F
  F40      1.0000 0.36310  0.49704  0.79257  Biso   1.000  F
  F41      1.0000 0.13690  0.99704  0.79257  Biso   1.000  F
  F42      1.0000 0.86310  0.50296  0.29257  Biso   1.000  F
  F43      1.0000 0.86310  0.49704  0.70743  Biso   1.000  F
  F44      1.0000 0.13690  0.00296  0.20743  Biso   1.000  F
  F45      1.0000 0.63690  0.49704  0.79257  Biso   1.000  F
  F46      1.0000 0.36310  0.00296  0.29257  Biso   1.000  F
  F47      1.0000 0.36310  0.99704  0.70743  Biso   1.000  F
  F48      1.0000 0.63690  0.50296  0.20743  Biso   1.000  F
  F49      1.0000 0.00000  0.00580  0.11080  Biso   1.000  F
  F50      1.0000 0.00000  0.49420  0.61080  Biso   1.000  F
  F51      1.0000 0.00000  0.50580  0.38920  Biso   1.000  F
  F52      1.0000 0.00000  0.99420  0.88920  Biso   1.000  F
  F53      1.0000 0.50000  0.50580  0.11080  Biso   1.000  F
  F54      1.0000 0.50000  0.99420  0.61080  Biso   1.000  F
  F55      1.0000 0.50000  0.00580  0.38920  Biso   1.000  F
  F56      1.0000 0.50000  0.49420  0.88920  Biso   1.000  F
  F57      1.0000 0.00000  0.09660  0.21340  Biso   1.000  F
  F58      1.0000 0.00000  0.40340  0.71340  Biso   1.000  F
  F59      1.0000 0.00000  0.59660  0.28660  Biso   1.000  F
  F60      1.0000 0.00000  0.90340  0.78660  Biso   1.000  F
  F61      1.0000 0.50000  0.59660  0.21340  Biso   1.000  F
  F62      1.0000 0.50000  0.90340  0.71340  Biso   1.000  F
  F63      1.0000 0.50000  0.09660  0.28660  Biso   1.000  F
  F64      1.0000 0.50000  0.40340  0.78660  Biso   1.000  F
  F65      1.0000 0.00000  0.91000  0.20870  Biso   1.000  F
  F66      1.0000 0.00000  0.59000  0.70870  Biso   1.000  F
  F67      1.0000 0.00000  0.41000  0.29130  Biso   1.000  F
  F68      1.0000 0.00000  0.09000  0.79130  Biso   1.000  F
  F69      1.0000 0.50000  0.41000  0.20870  Biso   1.000  F
  F70      1.0000 0.50000  0.09000  0.70870  Biso   1.000  F
  F71      1.0000 0.50000  0.91000  0.29130  Biso   1.000  F
  F72      1.0000 0.50000  0.59000  0.79130  Biso   1.000  F
  F73      1.0000 0.00000  0.00120  0.30100  Biso   1.000  F
  F74      1.0000 0.00000  0.49880  0.80100  Biso   1.000  F
  F75      1.0000 0.00000  0.50120  0.19900  Biso   1.000  F
  F76      1.0000 0.00000  0.99880  0.69900  Biso   1.000  F
  F77      1.0000 0.50000  0.50120  0.30100  Biso   1.000  F
  F78      1.0000 0.50000  0.99880  0.80100  Biso   1.000  F
  F79      1.0000 0.50000  0.00120  0.19900  Biso   1.000  F
  F80      1.0000 0.50000  0.49880  0.69900  Biso   1.000  F
  Sb9      1.0000 0.50000  0.20654  0.99958  Biso   1.000  Sb
  Sb10     1.0000 0.50000  0.29346  0.49958  Biso   1.000  Sb
  Sb11     1.0000 0.50000  0.70654  0.50042  Biso   1.000  Sb
  Sb12     1.0000 0.50000  0.79346  0.00042  Biso   1.000  Sb
  Sb13     1.0000 0.00000  0.70654  0.99958  Biso   1.000  Sb
  Sb14     1.0000 0.00000  0.79346  0.49958  Biso   1.000  Sb
  Sb15     1.0000 0.00000  0.20654  0.50042  Biso   1.000  Sb
  Sb16     1.0000 0.00000  0.29346  0.00042  Biso   1.000  Sb
  F81      1.0000 0.50000  0.11100  0.00360  Biso   1.000  F
  F82      1.0000 0.50000  0.38900  0.50360  Biso   1.000  F
  F83      1.0000 0.50000  0.61100  0.49640  Biso   1.000  F
  F84      1.0000 0.50000  0.88900  0.99640  Biso   1.000  F
  F85      1.0000 0.00000  0.61100  0.00360  Biso   1.000  F
  F86      1.0000 0.00000  0.88900  0.50360  Biso   1.000  F
  F87      1.0000 0.00000  0.11100  0.49640  Biso   1.000  F
  F88      1.0000 0.00000  0.38900  0.99640  Biso   1.000  F
  F89      1.0000 0.50000  0.20730  0.90580  Biso   1.000  F
  F90      1.0000 0.50000  0.29270  0.40580  Biso   1.000  F
  F91      1.0000 0.50000  0.70730  0.59420  Biso   1.000  F
  F92      1.0000 0.50000  0.79270  0.09420  Biso   1.000  F
  F93      1.0000 0.00000  0.70730  0.90580  Biso   1.000  F
  F94      1.0000 0.00000  0.79270  0.40580  Biso   1.000  F
  F95      1.0000 0.00000  0.20730  0.59420  Biso   1.000  F
  F96      1.0000 0.00000  0.29270  0.09420  Biso   1.000  F
  F97      1.0000 0.63690  0.20739  0.99919  Biso   1.000  F
  F98      1.0000 0.36310  0.29261  0.49919  Biso   1.000  F
  F99      1.0000 0.36310  0.70739  0.50081  Biso   1.000  F
  F100     1.0000 0.63690  0.79261  0.00081  Biso   1.000  F
  F101     1.0000 0.13690  0.70739  0.99919  Biso   1.000  F
  F102     1.0000 0.86310  0.79261  0.49919  Biso   1.000  F
  F103     1.0000 0.86310  0.20739  0.50081  Biso   1.000  F
  F104     1.0000 0.13690  0.29261  0.00081  Biso   1.000  F
  F105     1.0000 0.36310  0.79261  0.00081  Biso   1.000  F
  F106     1.0000 0.63690  0.70739  0.50081  Biso   1.000  F
  F107     1.0000 0.63690  0.29261  0.49919  Biso   1.000  F
  F108     1.0000 0.36310  0.20739  0.99919  Biso   1.000  F
  F109     1.0000 0.86310  0.29261  0.00081  Biso   1.000  F
  F110     1.0000 0.13690  0.20739  0.50081  Biso   1.000  F
  F111     1.0000 0.13690  0.79261  0.49919  Biso   1.000  F
  F112     1.0000 0.86310  0.70739  0.99919  Biso   1.000  F
  F113     1.0000 0.50000  0.21470  0.09310  Biso   1.000  F
  F114     1.0000 0.50000  0.28530  0.59310  Biso   1.000  F
  F115     1.0000 0.50000  0.71470  0.40690  Biso   1.000  F
  F116     1.0000 0.50000  0.78530  0.90690  Biso   1.000  F
  F117     1.0000 0.00000  0.71470  0.09310  Biso   1.000  F
  F118     1.0000 0.00000  0.78530  0.59310  Biso   1.000  F
  F119     1.0000 0.00000  0.21470  0.40690  Biso   1.000  F
  F120     1.0000 0.00000  0.28530  0.90690  Biso   1.000  F
  F121     1.0000 0.50000  0.30117  0.99630  Biso   1.000  F
  F122     1.0000 0.50000  0.19883  0.49630  Biso   1.000  F
  F123     1.0000 0.50000  0.80117  0.50370  Biso   1.000  F
  F124     1.0000 0.50000  0.69883  0.00370  Biso   1.000  F
  F125     1.0000 0.00000  0.80117  0.99630  Biso   1.000  F
  F126     1.0000 0.00000  0.69883  0.49630  Biso   1.000  F
  F127     1.0000 0.00000  0.30117  0.50370  Biso   1.000  F
  F128     1.0000 0.00000  0.19883  0.00370  Biso   1.000  F
  H137     1.0000 0.92670  0.54090  0.00060  Biso   1.000  H
  H138     1.0000 0.07330  0.95910  0.50060  Biso   1.000  H
  H139     1.0000 0.07330  0.04090  0.49940  Biso   1.000  H
  H140     1.0000 0.92670  0.45910  0.99940  Biso   1.000  H
  H141     1.0000 0.42670  0.04090  0.00060  Biso   1.000  H
  H142     1.0000 0.57330  0.45910  0.50060  Biso   1.000  H
  H143     1.0000 0.57330  0.54090  0.49940  Biso   1.000  H
  H144     1.0000 0.42670  0.95910  0.99940  Biso   1.000  H
  H145     1.0000 0.07330  0.45910  0.99940  Biso   1.000  H
  H146     1.0000 0.92670  0.04090  0.49940  Biso   1.000  H
  H147     1.0000 0.92670  0.95910  0.50060  Biso   1.000  H
  H148     1.0000 0.07330  0.54090  0.00060  Biso   1.000  H
  H149     1.0000 0.57330  0.95910  0.99940  Biso   1.000  H
  H150     1.0000 0.42670  0.54090  0.49940  Biso   1.000  H
  H151     1.0000 0.42670  0.45910  0.50060  Biso   1.000  H
  H152     1.0000 0.57330  0.04090  0.00060  Biso   1.000  H
