data_image0
_cell_length_a       11.686
_cell_length_b       14.239
_cell_length_c       8.467
_cell_angle_alpha    90
_cell_angle_beta     108.269
_cell_angle_gamma    90

_symmetry_space_group_name_H-M    "P 1"
_symmetry_int_tables_number       1

loop_
  _symmetry_equiv_pos_as_xyz
  'x, y, z'

loop_
  _atom_site_label
  _atom_site_occupancy
  _atom_site_fract_x
  _atom_site_fract_y
  _atom_site_fract_z
  _atom_site_thermal_displace_type
  _atom_site_B_iso_or_equiv
  _atom_site_type_symbol
  Cu1      1.0000 0.21591  0.75349  0.19984  Biso   1.000  Cu
  Cu2      1.0000 0.28409  0.25349  0.30016  Biso   1.000  Cu
  Cu3      1.0000 0.78409  0.24651  0.80016  Biso   1.000  Cu
  Cu4      1.0000 0.71591  0.74651  0.69984  Biso   1.000  Cu
  O1       1.0000 0.16071  0.69653  0.38480  Biso   1.000  O
  O2       1.0000 0.33929  0.19653  0.11520  Biso   1.000  O
  O3       1.0000 0.83929  0.30347  0.61520  Biso   1.000  O
  O4       1.0000 0.66071  0.80347  0.88480  Biso   1.000  O
  O5       1.0000 0.13450  0.90740  0.19570  Biso   1.000  O
  O6       1.0000 0.36550  0.40740  0.30430  Biso   1.000  O
  O7       1.0000 0.86550  0.09260  0.80430  Biso   1.000  O
  O8       1.0000 0.63450  0.59260  0.69570  Biso   1.000  O
  N1       1.0000 0.37250  0.79056  0.36330  Biso   1.000  N
  N2       1.0000 0.12750  0.29056  0.13670  Biso   1.000  N
  N3       1.0000 0.62750  0.20944  0.63670  Biso   1.000  N
  N4       1.0000 0.87250  0.70944  0.86330  Biso   1.000  N
  N5       1.0000 0.28610  0.77480  0.01170  Biso   1.000  N
  N6       1.0000 0.21390  0.27480  0.48830  Biso   1.000  N
  N7       1.0000 0.71390  0.22520  0.98830  Biso   1.000  N
  N8       1.0000 0.78610  0.72520  0.51170  Biso   1.000  N
  N9       1.0000 0.55910  0.78620  0.54140  Biso   1.000  N
  N10      1.0000 0.94090  0.28620  0.95860  Biso   1.000  N
  N11      1.0000 0.44090  0.21380  0.45860  Biso   1.000  N
  N12      1.0000 0.05910  0.71380  0.04140  Biso   1.000  N
  N13      1.0000 0.41770  0.78710  0.87640  Biso   1.000  N
  N14      1.0000 0.08230  0.28710  0.62360  Biso   1.000  N
  N15      1.0000 0.58230  0.21290  0.12360  Biso   1.000  N
  N16      1.0000 0.91770  0.71290  0.37640  Biso   1.000  N
  H1       1.0000 0.48590  0.78830  0.85750  Biso   1.000  H
  H2       1.0000 0.01410  0.28830  0.64250  Biso   1.000  H
  H3       1.0000 0.51410  0.21170  0.14250  Biso   1.000  H
  H4       1.0000 0.98590  0.71170  0.35750  Biso   1.000  H
  O9       1.0000 0.26040  0.57522  0.33420  Biso   1.000  O
  O10      1.0000 0.23960  0.07522  0.16580  Biso   1.000  O
  O11      1.0000 0.73960  0.42478  0.66580  Biso   1.000  O
  O12      1.0000 0.76040  0.92478  0.83420  Biso   1.000  O
  C1       1.0000 0.46000  0.73780  0.46350  Biso   1.000  C
  C2       1.0000 0.04000  0.23780  0.03650  Biso   1.000  C
  C3       1.0000 0.54000  0.26220  0.53650  Biso   1.000  C
  C4       1.0000 0.96000  0.76220  0.96350  Biso   1.000  C
  H5       1.0000 0.45230  0.67360  0.47740  Biso   1.000  H
  H6       1.0000 0.04770  0.17360  0.02260  Biso   1.000  H
  H7       1.0000 0.54770  0.32640  0.52260  Biso   1.000  H
  H8       1.0000 0.95230  0.82640  0.97740  Biso   1.000  H
  C5       1.0000 0.53400  0.87660  0.48550  Biso   1.000  C
  C6       1.0000 0.96600  0.37660  0.01450  Biso   1.000  C
  C7       1.0000 0.46600  0.12340  0.51450  Biso   1.000  C
  C8       1.0000 0.03400  0.62340  0.98550  Biso   1.000  C
  H9       1.0000 0.58620  0.92750  0.51630  Biso   1.000  H
  H10      1.0000 0.91380  0.42750  0.98370  Biso   1.000  H
  H11      1.0000 0.41380  0.07250  0.48370  Biso   1.000  H
  H12      1.0000 0.08620  0.57250  0.01630  Biso   1.000  H
  C9       1.0000 0.42000  0.87940  0.37750  Biso   1.000  C
  C10      1.0000 0.08000  0.37940  0.12250  Biso   1.000  C
  C11      1.0000 0.58000  0.12060  0.62250  Biso   1.000  C
  C12      1.0000 0.92000  0.62060  0.87750  Biso   1.000  C
  H13      1.0000 0.38080  0.93260  0.32250  Biso   1.000  H
  H14      1.0000 0.11920  0.43260  0.17750  Biso   1.000  H
  H15      1.0000 0.61920  0.06740  0.67750  Biso   1.000  H
  H16      1.0000 0.88080  0.56740  0.82250  Biso   1.000  H
  C13      1.0000 0.40140  0.77580  0.02430  Biso   1.000  C
  C14      1.0000 0.09860  0.27580  0.47570  Biso   1.000  C
  C15      1.0000 0.59860  0.22420  0.97570  Biso   1.000  C
  C16      1.0000 0.90140  0.72420  0.52430  Biso   1.000  C
  H17      1.0000 0.46370  0.76940  0.12390  Biso   1.000  H
  H18      1.0000 0.03630  0.26940  0.37610  Biso   1.000  H
  H19      1.0000 0.53630  0.23060  0.87610  Biso   1.000  H
  H20      1.0000 0.96370  0.73060  0.62390  Biso   1.000  H
  C17      1.0000 0.30740  0.79640  0.76080  Biso   1.000  C
  C18      1.0000 0.19260  0.29640  0.73920  Biso   1.000  C
  C19      1.0000 0.69260  0.20360  0.23920  Biso   1.000  C
  C20      1.0000 0.80740  0.70360  0.26080  Biso   1.000  C
  H21      1.0000 0.29080  0.80580  0.64710  Biso   1.000  H
  H22      1.0000 0.20920  0.30580  0.85290  Biso   1.000  H
  H23      1.0000 0.70920  0.19420  0.35290  Biso   1.000  H
  H24      1.0000 0.79080  0.69420  0.14710  Biso   1.000  H
  C21      1.0000 0.22670  0.78910  0.84510  Biso   1.000  C
  C22      1.0000 0.27330  0.28910  0.65490  Biso   1.000  C
  C23      1.0000 0.77330  0.21090  0.15490  Biso   1.000  C
  C24      1.0000 0.72670  0.71090  0.34510  Biso   1.000  C
  H25      1.0000 0.14350  0.79320  0.79760  Biso   1.000  H
  H26      1.0000 0.35650  0.29320  0.70240  Biso   1.000  H
  H27      1.0000 0.85650  0.20680  0.20240  Biso   1.000  H
  H28      1.0000 0.64350  0.70680  0.29760  Biso   1.000  H
  C25      1.0000 0.19860  0.61240  0.41100  Biso   1.000  C
  C26      1.0000 0.30140  0.11240  0.08900  Biso   1.000  C
  C27      1.0000 0.80140  0.38760  0.58900  Biso   1.000  C
  C28      1.0000 0.69860  0.88760  0.91100  Biso   1.000  C
  C29      1.0000 0.16420  0.55830  0.54260  Biso   1.000  C
  C30      1.0000 0.33580  0.05830  0.95740  Biso   1.000  C
  C31      1.0000 0.83580  0.44170  0.45740  Biso   1.000  C
  C32      1.0000 0.66420  0.94170  0.04260  Biso   1.000  C
  H29      1.0000 0.18190  0.59540  0.64210  Biso   1.000  H
  H30      1.0000 0.31810  0.09540  0.85790  Biso   1.000  H
  H31      1.0000 0.81810  0.40460  0.35790  Biso   1.000  H
  H32      1.0000 0.68190  0.90460  0.14210  Biso   1.000  H
  H33      1.0000 0.20930  0.50080  0.56630  Biso   1.000  H
  H34      1.0000 0.29070  0.00080  0.93370  Biso   1.000  H
  H35      1.0000 0.79070  0.49920  0.43370  Biso   1.000  H
  H36      1.0000 0.70930  0.99920  0.06630  Biso   1.000  H
  H37      1.0000 0.07960  0.54430  0.50330  Biso   1.000  H
  H38      1.0000 0.42040  0.04430  0.99670  Biso   1.000  H
  H39      1.0000 0.92040  0.45570  0.49670  Biso   1.000  H
  H40      1.0000 0.57960  0.95570  0.00330  Biso   1.000  H
  C33      1.0000 0.08320  0.93580  0.31930  Biso   1.000  C
  C34      1.0000 0.41680  0.43580  0.18070  Biso   1.000  C
  C35      1.0000 0.91680  0.06420  0.68070  Biso   1.000  C
  C36      1.0000 0.58320  0.56420  0.81930  Biso   1.000  C
  H41      1.0000 0.04690  0.88160  0.35390  Biso   1.000  H
  H42      1.0000 0.45310  0.38160  0.14610  Biso   1.000  H
  H43      1.0000 0.95310  0.11840  0.64610  Biso   1.000  H
  H44      1.0000 0.54690  0.61840  0.85390  Biso   1.000  H
  H45      1.0000 0.14710  0.95830  0.41540  Biso   1.000  H
  H46      1.0000 0.35290  0.45830  0.08460  Biso   1.000  H
  H47      1.0000 0.85290  0.04170  0.58460  Biso   1.000  H
  H48      1.0000 0.64710  0.54170  0.91540  Biso   1.000  H
  C37      1.0000 0.99540  0.00670  0.26700  Biso   1.000  C
  C38      1.0000 0.50460  0.50670  0.23300  Biso   1.000  C
  C39      1.0000 0.00460  0.99330  0.73300  Biso   1.000  C
  C40      1.0000 0.49540  0.49330  0.76700  Biso   1.000  C
  H49      1.0000 0.91670  0.97870  0.23100  Biso   1.000  H
  H50      1.0000 0.58330  0.47870  0.26900  Biso   1.000  H
  H51      1.0000 0.08330  0.02130  0.76900  Biso   1.000  H
  H52      1.0000 0.41670  0.52130  0.73100  Biso   1.000  H
  H53      1.0000 0.00840  0.04100  0.17650  Biso   1.000  H
  H54      1.0000 0.49160  0.54100  0.32350  Biso   1.000  H
  H55      1.0000 0.99160  0.95900  0.82350  Biso   1.000  H
  H56      1.0000 0.50840  0.45900  0.67650  Biso   1.000  H
  H57      1.0000 0.00110  0.04870  0.35790  Biso   1.000  H
  H58      1.0000 0.49890  0.54870  0.14210  Biso   1.000  H
  H59      1.0000 0.99890  0.95130  0.64210  Biso   1.000  H
  H60      1.0000 0.50110  0.45130  0.85790  Biso   1.000  H
  H61      1.0000 0.17230  0.95940  0.17550  Biso   1.000  H
  H62      1.0000 0.32770  0.45940  0.32450  Biso   1.000  H
  H63      1.0000 0.82770  0.04060  0.82450  Biso   1.000  H
  H64      1.0000 0.67230  0.54060  0.67550  Biso   1.000  H
