data_image0
_cell_length_a       13.815
_cell_length_b       5.931
_cell_length_c       22.02
_cell_angle_alpha    90
_cell_angle_beta     101.81
_cell_angle_gamma    90

_symmetry_space_group_name_H-M    "P 1"
_symmetry_int_tables_number       1

loop_
  _symmetry_equiv_pos_as_xyz
  'x, y, z'

loop_
  _atom_site_label
  _atom_site_occupancy
  _atom_site_fract_x
  _atom_site_fract_y
  _atom_site_fract_z
  _atom_site_thermal_displace_type
  _atom_site_B_iso_or_equiv
  _atom_site_type_symbol
  Cu1      1.0000 0.00000  0.04852  0.25000  Biso   1.000  Cu
  Cu2      1.0000 0.50000  0.54852  0.25000  Biso   1.000  Cu
  Cu3      1.0000 1.00000  0.95148  0.75000  Biso   1.000  Cu
  Cu4      1.0000 0.50000  0.45148  0.75000  Biso   1.000  Cu
  N1       1.0000 0.14000  0.00320  0.29168  Biso   1.000  N
  N2       1.0000 0.64000  0.50320  0.29168  Biso   1.000  N
  N3       1.0000 0.86000  0.00320  0.20832  Biso   1.000  N
  N4       1.0000 0.36000  0.50320  0.20832  Biso   1.000  N
  N5       1.0000 0.86000  0.99680  0.70832  Biso   1.000  N
  N6       1.0000 0.36000  0.49680  0.70832  Biso   1.000  N
  N7       1.0000 0.14000  0.99680  0.79168  Biso   1.000  N
  N8       1.0000 0.64000  0.49680  0.79168  Biso   1.000  N
  O1       1.0000 0.96304  0.05930  0.33162  Biso   1.000  O
  O2       1.0000 0.46304  0.55930  0.33162  Biso   1.000  O
  O3       1.0000 0.03696  0.05930  0.16838  Biso   1.000  O
  O4       1.0000 0.53696  0.55930  0.16838  Biso   1.000  O
  O5       1.0000 0.03696  0.94070  0.66838  Biso   1.000  O
  O6       1.0000 0.53696  0.44070  0.66838  Biso   1.000  O
  O7       1.0000 0.96304  0.94070  0.83162  Biso   1.000  O
  O8       1.0000 0.46304  0.44070  0.83162  Biso   1.000  O
  O9       1.0000 0.00000  0.43260  0.25000  Biso   1.000  O
  O10      1.0000 0.50000  0.93260  0.25000  Biso   1.000  O
  O11      1.0000 1.00000  0.56740  0.75000  Biso   1.000  O
  O12      1.0000 0.50000  0.06740  0.75000  Biso   1.000  O
  C1       1.0000 0.20190  0.84820  0.27950  Biso   1.000  C
  C2       1.0000 0.70190  0.34820  0.27950  Biso   1.000  C
  C3       1.0000 0.79810  0.84820  0.22050  Biso   1.000  C
  C4       1.0000 0.29810  0.34820  0.22050  Biso   1.000  C
  C5       1.0000 0.79810  0.15180  0.72050  Biso   1.000  C
  C6       1.0000 0.29810  0.65180  0.72050  Biso   1.000  C
  C7       1.0000 0.20190  0.15180  0.77950  Biso   1.000  C
  C8       1.0000 0.70190  0.65180  0.77950  Biso   1.000  C
  C9       1.0000 0.18920  0.11210  0.34445  Biso   1.000  C
  C10      1.0000 0.68920  0.61210  0.34445  Biso   1.000  C
  C11      1.0000 0.81080  0.11210  0.15555  Biso   1.000  C
  C12      1.0000 0.31080  0.61210  0.15555  Biso   1.000  C
  C13      1.0000 0.81080  0.88790  0.65555  Biso   1.000  C
  C14      1.0000 0.31080  0.38790  0.65555  Biso   1.000  C
  C15      1.0000 0.18920  0.88790  0.84445  Biso   1.000  C
  C16      1.0000 0.68920  0.38790  0.84445  Biso   1.000  C
  C17      1.0000 0.27950  0.01970  0.36230  Biso   1.000  C
  C18      1.0000 0.77950  0.51970  0.36230  Biso   1.000  C
  C19      1.0000 0.72050  0.01970  0.13770  Biso   1.000  C
  C20      1.0000 0.22050  0.51970  0.13770  Biso   1.000  C
  C21      1.0000 0.72050  0.98030  0.63770  Biso   1.000  C
  C22      1.0000 0.22050  0.48030  0.63770  Biso   1.000  C
  C23      1.0000 0.27950  0.98030  0.86230  Biso   1.000  C
  C24      1.0000 0.77950  0.48030  0.86230  Biso   1.000  C
  N9       1.0000 0.28700  0.85300  0.32135  Biso   1.000  N
  N10      1.0000 0.78700  0.35300  0.32135  Biso   1.000  N
  N11      1.0000 0.71300  0.85300  0.17865  Biso   1.000  N
  N12      1.0000 0.21300  0.35300  0.17865  Biso   1.000  N
  N13      1.0000 0.71300  0.14700  0.67865  Biso   1.000  N
  N14      1.0000 0.21300  0.64700  0.67865  Biso   1.000  N
  N15      1.0000 0.28700  0.14700  0.82135  Biso   1.000  N
  N16      1.0000 0.78700  0.64700  0.82135  Biso   1.000  N
  O13      1.0000 0.99610  0.69750  0.35464  Biso   1.000  O
  O14      1.0000 0.49610  0.19750  0.35464  Biso   1.000  O
  O15      1.0000 0.00390  0.69750  0.14536  Biso   1.000  O
  O16      1.0000 0.50390  0.19750  0.14536  Biso   1.000  O
  O17      1.0000 0.00390  0.30250  0.64536  Biso   1.000  O
  O18      1.0000 0.50390  0.80250  0.64536  Biso   1.000  O
  O19      1.0000 0.99610  0.30250  0.85464  Biso   1.000  O
  O20      1.0000 0.49610  0.80250  0.85464  Biso   1.000  O
  C25      1.0000 0.98310  0.89400  0.36947  Biso   1.000  C
  C26      1.0000 0.48310  0.39400  0.36947  Biso   1.000  C
  C27      1.0000 0.01690  0.89400  0.13053  Biso   1.000  C
  C28      1.0000 0.51690  0.39400  0.13053  Biso   1.000  C
  C29      1.0000 0.01690  0.10600  0.63053  Biso   1.000  C
  C30      1.0000 0.51690  0.60600  0.63053  Biso   1.000  C
  C31      1.0000 0.98310  0.10600  0.86947  Biso   1.000  C
  C32      1.0000 0.48310  0.60600  0.86947  Biso   1.000  C
  C33      1.0000 0.99090  0.95070  0.43692  Biso   1.000  C
  C34      1.0000 0.49090  0.45070  0.43692  Biso   1.000  C
  C35      1.0000 0.00910  0.95070  0.06308  Biso   1.000  C
  C36      1.0000 0.50910  0.45070  0.06308  Biso   1.000  C
  C37      1.0000 0.00910  0.04930  0.56308  Biso   1.000  C
  C38      1.0000 0.50910  0.54930  0.56308  Biso   1.000  C
  C39      1.0000 0.99090  0.04930  0.93692  Biso   1.000  C
  C40      1.0000 0.49090  0.54930  0.93692  Biso   1.000  C
  C41      1.0000 0.00370  0.17180  0.45742  Biso   1.000  C
  C42      1.0000 0.50370  0.67180  0.45742  Biso   1.000  C
  C43      1.0000 0.99630  0.17180  0.04258  Biso   1.000  C
  C44      1.0000 0.49630  0.67180  0.04258  Biso   1.000  C
  C45      1.0000 0.99630  0.82820  0.54258  Biso   1.000  C
  C46      1.0000 0.49630  0.32820  0.54258  Biso   1.000  C
  C47      1.0000 0.00370  0.82820  0.95742  Biso   1.000  C
  C48      1.0000 0.50370  0.32820  0.95742  Biso   1.000  C
  C49      1.0000 0.98750  0.78010  0.47961  Biso   1.000  C
  C50      1.0000 0.48750  0.28010  0.47961  Biso   1.000  C
  C51      1.0000 0.01250  0.78010  0.02039  Biso   1.000  C
  C52      1.0000 0.51250  0.28010  0.02039  Biso   1.000  C
  C53      1.0000 0.01250  0.21990  0.52039  Biso   1.000  C
  C54      1.0000 0.51250  0.71990  0.52039  Biso   1.000  C
  C55      1.0000 0.98750  0.21990  0.97961  Biso   1.000  C
  C56      1.0000 0.48750  0.71990  0.97961  Biso   1.000  C
  H1       1.0000 0.98600  0.50600  0.27900  Biso   1.000  H
  H2       1.0000 0.48600  0.00600  0.27900  Biso   1.000  H
  H3       1.0000 0.01400  0.50600  0.22100  Biso   1.000  H
  H4       1.0000 0.51400  0.00600  0.22100  Biso   1.000  H
  H5       1.0000 0.01400  0.49400  0.72100  Biso   1.000  H
  H6       1.0000 0.51400  0.99400  0.72100  Biso   1.000  H
  H7       1.0000 0.98600  0.49400  0.77900  Biso   1.000  H
  H8       1.0000 0.48600  0.99400  0.77900  Biso   1.000  H
  H9       1.0000 0.18900  0.74200  0.24800  Biso   1.000  H
  H10      1.0000 0.68900  0.24200  0.24800  Biso   1.000  H
  H11      1.0000 0.81100  0.74200  0.25200  Biso   1.000  H
  H12      1.0000 0.31100  0.24200  0.25200  Biso   1.000  H
  H13      1.0000 0.81100  0.25800  0.75200  Biso   1.000  H
  H14      1.0000 0.31100  0.75800  0.75200  Biso   1.000  H
  H15      1.0000 0.18900  0.25800  0.74800  Biso   1.000  H
  H16      1.0000 0.68900  0.75800  0.74800  Biso   1.000  H
  H17      1.0000 0.15500  0.23900  0.35500  Biso   1.000  H
  H18      1.0000 0.65500  0.73900  0.35500  Biso   1.000  H
  H19      1.0000 0.84500  0.23900  0.14500  Biso   1.000  H
  H20      1.0000 0.34500  0.73900  0.14500  Biso   1.000  H
  H21      1.0000 0.84500  0.76100  0.64500  Biso   1.000  H
  H22      1.0000 0.34500  0.26100  0.64500  Biso   1.000  H
  H23      1.0000 0.15500  0.76100  0.85500  Biso   1.000  H
  H24      1.0000 0.65500  0.26100  0.85500  Biso   1.000  H
  H25      1.0000 0.33400  0.04800  0.39800  Biso   1.000  H
  H26      1.0000 0.83400  0.54800  0.39800  Biso   1.000  H
  H27      1.0000 0.66600  0.04800  0.10200  Biso   1.000  H
  H28      1.0000 0.16600  0.54800  0.10200  Biso   1.000  H
  H29      1.0000 0.66600  0.95200  0.60200  Biso   1.000  H
  H30      1.0000 0.16600  0.45200  0.60200  Biso   1.000  H
  H31      1.0000 0.33400  0.95200  0.89800  Biso   1.000  H
  H32      1.0000 0.83400  0.45200  0.89800  Biso   1.000  H
  H33      1.0000 0.33100  0.73900  0.32300  Biso   1.000  H
  H34      1.0000 0.83100  0.23900  0.32300  Biso   1.000  H
  H35      1.0000 0.66900  0.73900  0.17700  Biso   1.000  H
  H36      1.0000 0.16900  0.23900  0.17700  Biso   1.000  H
  H37      1.0000 0.66900  0.26100  0.67700  Biso   1.000  H
  H38      1.0000 0.16900  0.76100  0.67700  Biso   1.000  H
  H39      1.0000 0.33100  0.26100  0.82300  Biso   1.000  H
  H40      1.0000 0.83100  0.76100  0.82300  Biso   1.000  H
  H41      1.0000 0.00500  0.30000  0.42500  Biso   1.000  H
  H42      1.0000 0.50500  0.80000  0.42500  Biso   1.000  H
  H43      1.0000 0.99500  0.30000  0.07500  Biso   1.000  H
  H44      1.0000 0.49500  0.80000  0.07500  Biso   1.000  H
  H45      1.0000 0.99500  0.70000  0.57500  Biso   1.000  H
  H46      1.0000 0.49500  0.20000  0.57500  Biso   1.000  H
  H47      1.0000 0.00500  0.70000  0.92500  Biso   1.000  H
  H48      1.0000 0.50500  0.20000  0.92500  Biso   1.000  H
  H49      1.0000 0.98100  0.63600  0.46600  Biso   1.000  H
  H50      1.0000 0.48100  0.13600  0.46600  Biso   1.000  H
  H51      1.0000 0.01900  0.63600  0.03400  Biso   1.000  H
  H52      1.0000 0.51900  0.13600  0.03400  Biso   1.000  H
  H53      1.0000 0.01900  0.36400  0.53400  Biso   1.000  H
  H54      1.0000 0.51900  0.86400  0.53400  Biso   1.000  H
  H55      1.0000 0.98100  0.36400  0.96600  Biso   1.000  H
  H56      1.0000 0.48100  0.86400  0.96600  Biso   1.000  H
  O21      1.0000 0.26440  0.97300  0.53050  Biso   1.000  O
  O22      1.0000 0.76440  0.47300  0.53050  Biso   1.000  O
  O23      1.0000 0.73560  0.97300  0.96950  Biso   1.000  O
  O24      1.0000 0.23560  0.47300  0.96950  Biso   1.000  O
  O25      1.0000 0.73560  0.02700  0.46950  Biso   1.000  O
  O26      1.0000 0.23560  0.52700  0.46950  Biso   1.000  O
  O27      1.0000 0.26440  0.02700  0.03050  Biso   1.000  O
  O28      1.0000 0.76440  0.52700  0.03050  Biso   1.000  O
  O29      1.0000 0.25430  0.84800  0.51310  Biso   1.000  O
  O30      1.0000 0.75430  0.34800  0.51310  Biso   1.000  O
  O31      1.0000 0.74570  0.84800  0.98690  Biso   1.000  O
  O32      1.0000 0.24570  0.34800  0.98690  Biso   1.000  O
  O33      1.0000 0.74570  0.15200  0.48690  Biso   1.000  O
  O34      1.0000 0.24570  0.65200  0.48690  Biso   1.000  O
  O35      1.0000 0.25430  0.15200  0.01310  Biso   1.000  O
  O36      1.0000 0.75430  0.65200  0.01310  Biso   1.000  O
