data_image0
_cell_length_a       7.6389
_cell_length_b       19.6763
_cell_length_c       11.2861
_cell_angle_alpha    90
_cell_angle_beta     98.958
_cell_angle_gamma    90

_symmetry_space_group_name_H-M    "P 1"
_symmetry_int_tables_number       1

loop_
  _symmetry_equiv_pos_as_xyz
  'x, y, z'

loop_
  _atom_site_label
  _atom_site_occupancy
  _atom_site_fract_x
  _atom_site_fract_y
  _atom_site_fract_z
  _atom_site_thermal_displace_type
  _atom_site_B_iso_or_equiv
  _atom_site_type_symbol
  C1       1.0000 0.00650  0.25479  0.02352  Biso   1.000  C
  C2       1.0000 0.49350  0.75479  0.47648  Biso   1.000  C
  C3       1.0000 0.99350  0.74521  0.97648  Biso   1.000  C
  C4       1.0000 0.50650  0.24521  0.52352  Biso   1.000  C
  H1       1.0000 0.90450  0.26320  0.96890  Biso   1.000  H
  H2       1.0000 0.59550  0.76320  0.53110  Biso   1.000  H
  H3       1.0000 0.09550  0.73680  0.03110  Biso   1.000  H
  H4       1.0000 0.40450  0.23680  0.46890  Biso   1.000  H
  C5       1.0000 0.16490  0.28259  0.00029  Biso   1.000  C
  C6       1.0000 0.33510  0.78259  0.49971  Biso   1.000  C
  C7       1.0000 0.83510  0.71741  0.99971  Biso   1.000  C
  C8       1.0000 0.66490  0.21741  0.50029  Biso   1.000  C
  C9       1.0000 0.16100  0.31997  0.88303  Biso   1.000  C
  C10      1.0000 0.33900  0.81997  0.61697  Biso   1.000  C
  C11      1.0000 0.83900  0.68003  0.11697  Biso   1.000  C
  C12      1.0000 0.66100  0.18003  0.38303  Biso   1.000  C
  C13      1.0000 0.31810  0.27095  0.08307  Biso   1.000  C
  C14      1.0000 0.18190  0.77095  0.41693  Biso   1.000  C
  C15      1.0000 0.68190  0.72905  0.91693  Biso   1.000  C
  C16      1.0000 0.81810  0.22905  0.58307  Biso   1.000  C
  C17      1.0000 0.49480  0.30160  0.06736  Biso   1.000  C
  C18      1.0000 0.00520  0.80160  0.43264  Biso   1.000  C
  C19      1.0000 0.50520  0.69840  0.93264  Biso   1.000  C
  C20      1.0000 0.99480  0.19840  0.56736  Biso   1.000  C
  C21      1.0000 0.30100  0.23319  0.18403  Biso   1.000  C
  C22      1.0000 0.19900  0.73319  0.31597  Biso   1.000  C
  C23      1.0000 0.69900  0.76681  0.81597  Biso   1.000  C
  C24      1.0000 0.80100  0.26681  0.68403  Biso   1.000  C
  H5       1.0000 0.39980  0.22540  0.24180  Biso   1.000  H
  H6       1.0000 0.10020  0.72540  0.25820  Biso   1.000  H
  H7       1.0000 0.60020  0.77460  0.75820  Biso   1.000  H
  H8       1.0000 0.89980  0.27460  0.74180  Biso   1.000  H
  C25      1.0000 0.13820  0.20691  0.19966  Biso   1.000  C
  C26      1.0000 0.36180  0.70691  0.30034  Biso   1.000  C
  C27      1.0000 0.86180  0.79309  0.80034  Biso   1.000  C
  C28      1.0000 0.63820  0.29309  0.69966  Biso   1.000  C
  H9       1.0000 0.13040  0.18150  0.26820  Biso   1.000  H
  H10      1.0000 0.36960  0.68150  0.23180  Biso   1.000  H
  H11      1.0000 0.86960  0.81850  0.73180  Biso   1.000  H
  H12      1.0000 0.63040  0.31850  0.76820  Biso   1.000  H
  C29      1.0000 0.54110  0.16216  0.88380  Biso   1.000  C
  C30      1.0000 0.95890  0.66216  0.61620  Biso   1.000  C
  C31      1.0000 0.45890  0.83784  0.11620  Biso   1.000  C
  C32      1.0000 0.04110  0.33784  0.38380  Biso   1.000  C
  H13      1.0000 0.50660  0.20740  0.88670  Biso   1.000  H
  H14      1.0000 0.99340  0.70740  0.61330  Biso   1.000  H
  H15      1.0000 0.49340  0.79260  0.11330  Biso   1.000  H
  H16      1.0000 0.00660  0.29260  0.38670  Biso   1.000  H
  C33      1.0000 0.49210  0.12577  0.77750  Biso   1.000  C
  C34      1.0000 0.00790  0.62577  0.72250  Biso   1.000  C
  C35      1.0000 0.50790  0.87423  0.22250  Biso   1.000  C
  C36      1.0000 0.99210  0.37423  0.27750  Biso   1.000  C
  H17      1.0000 0.42580  0.14680  0.71150  Biso   1.000  H
  H18      1.0000 0.07420  0.64680  0.78850  Biso   1.000  H
  H19      1.0000 0.57420  0.85320  0.28850  Biso   1.000  H
  H20      1.0000 0.92580  0.35320  0.21150  Biso   1.000  H
  C37      1.0000 0.54110  0.05955  0.77030  Biso   1.000  C
  C38      1.0000 0.95890  0.55955  0.72970  Biso   1.000  C
  C39      1.0000 0.45890  0.94045  0.22970  Biso   1.000  C
  C40      1.0000 0.04110  0.44045  0.27030  Biso   1.000  C
  H21      1.0000 0.51060  0.03540  0.69920  Biso   1.000  H
  H22      1.0000 0.98940  0.53540  0.80080  Biso   1.000  H
  H23      1.0000 0.48940  0.96460  0.30080  Biso   1.000  H
  H24      1.0000 0.01060  0.46460  0.19920  Biso   1.000  H
  C41      1.0000 0.63890  0.02783  0.87210  Biso   1.000  C
  C42      1.0000 0.86110  0.52783  0.62790  Biso   1.000  C
  C43      1.0000 0.36110  0.97217  0.12790  Biso   1.000  C
  C44      1.0000 0.13890  0.47217  0.37210  Biso   1.000  C
  C45      1.0000 0.68190  0.06798  0.97556  Biso   1.000  C
  C46      1.0000 0.81810  0.56798  0.52444  Biso   1.000  C
  C47      1.0000 0.31810  0.93202  0.02444  Biso   1.000  C
  C48      1.0000 0.18190  0.43202  0.47556  Biso   1.000  C
  C49      1.0000 0.77760  0.03894  0.08271  Biso   1.000  C
  C50      1.0000 0.72240  0.53894  0.41729  Biso   1.000  C
  C51      1.0000 0.22240  0.96106  0.91729  Biso   1.000  C
  C52      1.0000 0.27760  0.46106  0.58271  Biso   1.000  C
  C53      1.0000 0.83060  0.97081  0.08460  Biso   1.000  C
  C54      1.0000 0.66940  0.47081  0.41540  Biso   1.000  C
  C55      1.0000 0.16940  0.02919  0.91540  Biso   1.000  C
  C56      1.0000 0.33060  0.52919  0.58460  Biso   1.000  C
  C57      1.0000 0.69370  0.95810  0.87650  Biso   1.000  C
  C58      1.0000 0.80630  0.45810  0.62350  Biso   1.000  C
  C59      1.0000 0.30630  0.04190  0.12350  Biso   1.000  C
  C60      1.0000 0.19370  0.54190  0.37650  Biso   1.000  C
  H25      1.0000 0.66660  0.93100  0.80850  Biso   1.000  H
  H26      1.0000 0.83340  0.43100  0.69150  Biso   1.000  H
  H27      1.0000 0.33340  0.06900  0.19150  Biso   1.000  H
  H28      1.0000 0.16660  0.56900  0.30850  Biso   1.000  H
  C61      1.0000 0.78490  0.93101  0.97850  Biso   1.000  C
  C62      1.0000 0.71510  0.43101  0.52150  Biso   1.000  C
  C63      1.0000 0.21510  0.06899  0.02150  Biso   1.000  C
  C64      1.0000 0.28490  0.56899  0.47850  Biso   1.000  C
  H29      1.0000 0.81830  0.88550  0.97930  Biso   1.000  H
  H30      1.0000 0.68170  0.38550  0.52070  Biso   1.000  H
  H31      1.0000 0.18170  0.11450  0.02070  Biso   1.000  H
  H32      1.0000 0.31830  0.61450  0.47930  Biso   1.000  H
  C65      1.0000 0.92400  0.94594  0.19340  Biso   1.000  C
  C66      1.0000 0.57600  0.44594  0.30660  Biso   1.000  C
  C67      1.0000 0.07600  0.05406  0.80660  Biso   1.000  C
  C68      1.0000 0.42400  0.55406  0.69340  Biso   1.000  C
  H33      1.0000 0.96240  0.90100  0.19890  Biso   1.000  H
  H34      1.0000 0.53760  0.40100  0.30110  Biso   1.000  H
  H35      1.0000 0.03760  0.09900  0.80110  Biso   1.000  H
  H36      1.0000 0.46240  0.59900  0.69890  Biso   1.000  H
  C69      1.0000 0.95800  0.98789  0.29060  Biso   1.000  C
  C70      1.0000 0.54200  0.48789  0.20940  Biso   1.000  C
  C71      1.0000 0.04200  0.01211  0.70940  Biso   1.000  C
  C72      1.0000 0.45800  0.51211  0.79060  Biso   1.000  C
  H37      1.0000 0.02120  0.97200  0.36240  Biso   1.000  H
  H38      1.0000 0.47880  0.47200  0.13760  Biso   1.000  H
  H39      1.0000 0.97880  0.02800  0.63760  Biso   1.000  H
  H40      1.0000 0.52120  0.52800  0.86240  Biso   1.000  H
  C73      1.0000 0.89700  0.05513  0.28129  Biso   1.000  C
  C74      1.0000 0.60300  0.55513  0.21871  Biso   1.000  C
  C75      1.0000 0.10300  0.94487  0.71871  Biso   1.000  C
  C76      1.0000 0.39700  0.44487  0.78129  Biso   1.000  C
  H41      1.0000 0.91820  0.08300  0.34860  Biso   1.000  H
  H42      1.0000 0.58180  0.58300  0.15140  Biso   1.000  H
  H43      1.0000 0.08180  0.91700  0.65140  Biso   1.000  H
  H44      1.0000 0.41820  0.41700  0.84860  Biso   1.000  H
  Cu1      1.0000 0.72289  0.17593  0.14530  Biso   1.000  Cu
  Cu2      1.0000 0.77711  0.67593  0.35470  Biso   1.000  Cu
  Cu3      1.0000 0.27711  0.82407  0.85470  Biso   1.000  Cu
  Cu4      1.0000 0.22289  0.32407  0.64530  Biso   1.000  Cu
  N1       1.0000 0.99160  0.21668  0.11979  Biso   1.000  N
  N2       1.0000 0.50840  0.71668  0.38021  Biso   1.000  N
  N3       1.0000 0.00840  0.78332  0.88021  Biso   1.000  N
  N4       1.0000 0.49160  0.28332  0.61979  Biso   1.000  N
  N5       1.0000 0.63550  0.13443  0.98126  Biso   1.000  N
  N6       1.0000 0.86450  0.63443  0.51874  Biso   1.000  N
  N7       1.0000 0.36450  0.86557  0.01874  Biso   1.000  N
  N8       1.0000 0.13550  0.36557  0.48126  Biso   1.000  N
  N9       1.0000 0.81010  0.08049  0.17981  Biso   1.000  N
  N10      1.0000 0.68990  0.58049  0.32019  Biso   1.000  N
  N11      1.0000 0.18990  0.91951  0.82019  Biso   1.000  N
  N12      1.0000 0.31010  0.41951  0.67981  Biso   1.000  N
  O1       1.0000 0.26230  0.29543  0.81408  Biso   1.000  O
  O2       1.0000 0.23770  0.79543  0.68592  Biso   1.000  O
  O3       1.0000 0.73770  0.70457  0.18592  Biso   1.000  O
  O4       1.0000 0.76230  0.20457  0.31408  Biso   1.000  O
  O5       1.0000 0.05270  0.36605  0.85760  Biso   1.000  O
  O6       1.0000 0.44730  0.86605  0.64240  Biso   1.000  O
  O7       1.0000 0.94730  0.63395  0.14240  Biso   1.000  O
  O8       1.0000 0.55270  0.13395  0.35760  Biso   1.000  O
  O9       1.0000 0.49440  0.36032  0.02967  Biso   1.000  O
  O10      1.0000 0.00560  0.86032  0.47033  Biso   1.000  O
  O11      1.0000 0.50560  0.63968  0.97033  Biso   1.000  O
  O12      1.0000 0.99440  0.13968  0.52967  Biso   1.000  O
  O13      1.0000 0.63312  0.26628  0.09541  Biso   1.000  O
  O14      1.0000 0.86688  0.76628  0.40459  Biso   1.000  O
  O15      1.0000 0.36688  0.73372  0.90459  Biso   1.000  O
  O16      1.0000 0.13312  0.23372  0.59541  Biso   1.000  O
  O17      1.0000 0.80200  0.43550  0.98620  Biso   1.000  O
  O18      1.0000 0.69800  0.93550  0.51380  Biso   1.000  O
  O19      1.0000 0.19800  0.56450  0.01380  Biso   1.000  O
  O20      1.0000 0.30200  0.06450  0.48620  Biso   1.000  O
  H45      1.0000 0.73600  0.40800  0.92300  Biso   1.000  H
  H46      1.0000 0.76400  0.90800  0.57700  Biso   1.000  H
  H47      1.0000 0.26400  0.59200  0.07700  Biso   1.000  H
  H48      1.0000 0.23600  0.09200  0.42300  Biso   1.000  H
  H49      1.0000 0.92000  0.43300  0.96900  Biso   1.000  H
  H50      1.0000 0.58000  0.93300  0.53100  Biso   1.000  H
  H51      1.0000 0.08000  0.56700  0.03100  Biso   1.000  H
  H52      1.0000 0.42000  0.06700  0.46900  Biso   1.000  H
