data_image0
_cell_length_a       10.7461
_cell_length_b       20.064
_cell_length_c       13.384
_cell_angle_alpha    90
_cell_angle_beta     90
_cell_angle_gamma    90

_symmetry_space_group_name_H-M    "P 1"
_symmetry_int_tables_number       1

loop_
  _symmetry_equiv_pos_as_xyz
  'x, y, z'

loop_
  _atom_site_label
  _atom_site_occupancy
  _atom_site_fract_x
  _atom_site_fract_y
  _atom_site_fract_z
  _atom_site_thermal_displace_type
  _atom_site_B_iso_or_equiv
  _atom_site_type_symbol
  Cu1      1.0000 0.25000  0.75000  0.66274  Biso   1.000  Cu
  Cu2      1.0000 0.75000  0.25000  0.83726  Biso   1.000  Cu
  Cu3      1.0000 0.75000  0.25000  0.33726  Biso   1.000  Cu
  Cu4      1.0000 0.25000  0.75000  0.16274  Biso   1.000  Cu
  O1       1.0000 0.42710  0.72429  0.65620  Biso   1.000  O
  O2       1.0000 0.07290  0.77571  0.65620  Biso   1.000  O
  O3       1.0000 0.92710  0.27571  0.84380  Biso   1.000  O
  O4       1.0000 0.57290  0.22429  0.84380  Biso   1.000  O
  O5       1.0000 0.57290  0.27571  0.34380  Biso   1.000  O
  O6       1.0000 0.92710  0.22429  0.34380  Biso   1.000  O
  O7       1.0000 0.07290  0.72429  0.15620  Biso   1.000  O
  O8       1.0000 0.42710  0.77571  0.15620  Biso   1.000  O
  O9       1.0000 0.42400  0.75455  0.49720  Biso   1.000  O
  O10      1.0000 0.07600  0.74545  0.49720  Biso   1.000  O
  O11      1.0000 0.92400  0.24545  0.00280  Biso   1.000  O
  O12      1.0000 0.57600  0.25455  0.00280  Biso   1.000  O
  O13      1.0000 0.57600  0.24545  0.50280  Biso   1.000  O
  O14      1.0000 0.92400  0.25455  0.50280  Biso   1.000  O
  O15      1.0000 0.07600  0.75455  0.99720  Biso   1.000  O
  O16      1.0000 0.42400  0.74545  0.99720  Biso   1.000  O
  O17      1.0000 0.53580  0.60819  0.54780  Biso   1.000  O
  O18      1.0000 0.96420  0.89181  0.54780  Biso   1.000  O
  O19      1.0000 0.03580  0.39181  0.95220  Biso   1.000  O
  O20      1.0000 0.46420  0.10819  0.95220  Biso   1.000  O
  O21      1.0000 0.46420  0.39181  0.45220  Biso   1.000  O
  O22      1.0000 0.03580  0.10819  0.45220  Biso   1.000  O
  O23      1.0000 0.96420  0.60819  0.04780  Biso   1.000  O
  O24      1.0000 0.53580  0.89181  0.04780  Biso   1.000  O
  O25      1.0000 0.72490  0.57113  0.58660  Biso   1.000  O
  O26      1.0000 0.77510  0.92887  0.58660  Biso   1.000  O
  O27      1.0000 0.22490  0.42887  0.91340  Biso   1.000  O
  O28      1.0000 0.27510  0.07113  0.91340  Biso   1.000  O
  O29      1.0000 0.27510  0.42887  0.41340  Biso   1.000  O
  O30      1.0000 0.22490  0.07113  0.41340  Biso   1.000  O
  O31      1.0000 0.77510  0.57113  0.08660  Biso   1.000  O
  O32      1.0000 0.72490  0.92887  0.08660  Biso   1.000  O
  O33      1.0000 0.25000  0.75000  0.83510  Biso   1.000  O
  O34      1.0000 0.75000  0.25000  0.66490  Biso   1.000  O
  O35      1.0000 0.75000  0.25000  0.16490  Biso   1.000  O
  O36      1.0000 0.25000  0.75000  0.33510  Biso   1.000  O
  O37      1.0000 0.07550  0.24303  0.17260  Biso   1.000  O
  O38      1.0000 0.42450  0.25697  0.17260  Biso   1.000  O
  O39      1.0000 0.57550  0.75697  0.32740  Biso   1.000  O
  O40      1.0000 0.92450  0.74303  0.32740  Biso   1.000  O
  O41      1.0000 0.92450  0.75697  0.82740  Biso   1.000  O
  O42      1.0000 0.57550  0.74303  0.82740  Biso   1.000  O
  O43      1.0000 0.42450  0.24303  0.67260  Biso   1.000  O
  O44      1.0000 0.07550  0.25697  0.67260  Biso   1.000  O
  O45      1.0000 0.84880  0.44891  0.08340  Biso   1.000  O
  O46      1.0000 0.65120  0.05109  0.08340  Biso   1.000  O
  O47      1.0000 0.34880  0.55109  0.41660  Biso   1.000  O
  O48      1.0000 0.15120  0.94891  0.41660  Biso   1.000  O
  O49      1.0000 0.15120  0.55109  0.91660  Biso   1.000  O
  O50      1.0000 0.34880  0.94891  0.91660  Biso   1.000  O
  O51      1.0000 0.65120  0.44891  0.58340  Biso   1.000  O
  O52      1.0000 0.84880  0.05109  0.58340  Biso   1.000  O
  O53      1.0000 0.61570  0.39130  0.08250  Biso   1.000  O
  O54      1.0000 0.88430  0.10870  0.08250  Biso   1.000  O
  O55      1.0000 0.11570  0.60870  0.41750  Biso   1.000  O
  O56      1.0000 0.38430  0.89130  0.41750  Biso   1.000  O
  O57      1.0000 0.38430  0.60870  0.91750  Biso   1.000  O
  O58      1.0000 0.11570  0.89130  0.91750  Biso   1.000  O
  O59      1.0000 0.88430  0.39130  0.58250  Biso   1.000  O
  O60      1.0000 0.61570  0.10870  0.58250  Biso   1.000  O
  N1       1.0000 0.21290  0.37574  0.66850  Biso   1.000  N
  N2       1.0000 0.28710  0.12426  0.66850  Biso   1.000  N
  N3       1.0000 0.71290  0.62426  0.83150  Biso   1.000  N
  N4       1.0000 0.78710  0.87574  0.83150  Biso   1.000  N
  N5       1.0000 0.78710  0.62426  0.33150  Biso   1.000  N
  N6       1.0000 0.71290  0.87574  0.33150  Biso   1.000  N
  N7       1.0000 0.28710  0.37574  0.16850  Biso   1.000  N
  N8       1.0000 0.21290  0.12426  0.16850  Biso   1.000  N
  H1       1.0000 0.18500  0.33560  0.66710  Biso   1.000  H
  H2       1.0000 0.31500  0.16440  0.66710  Biso   1.000  H
  H3       1.0000 0.68500  0.66440  0.83290  Biso   1.000  H
  H4       1.0000 0.81500  0.83560  0.83290  Biso   1.000  H
  H5       1.0000 0.81500  0.66440  0.33290  Biso   1.000  H
  H6       1.0000 0.68500  0.83560  0.33290  Biso   1.000  H
  H7       1.0000 0.31500  0.33560  0.16710  Biso   1.000  H
  H8       1.0000 0.18500  0.16440  0.16710  Biso   1.000  H
  N9       1.0000 0.14110  0.43096  0.66040  Biso   1.000  N
  N10      1.0000 0.35890  0.06904  0.66040  Biso   1.000  N
  N11      1.0000 0.64110  0.56904  0.83960  Biso   1.000  N
  N12      1.0000 0.85890  0.93096  0.83960  Biso   1.000  N
  N13      1.0000 0.85890  0.56904  0.33960  Biso   1.000  N
  N14      1.0000 0.64110  0.93096  0.33960  Biso   1.000  N
  N15      1.0000 0.35890  0.43096  0.16040  Biso   1.000  N
  N16      1.0000 0.14110  0.06904  0.16040  Biso   1.000  N
  N17      1.0000 0.34280  0.45761  0.67920  Biso   1.000  N
  N18      1.0000 0.15720  0.04239  0.67920  Biso   1.000  N
  N19      1.0000 0.84280  0.54239  0.82080  Biso   1.000  N
  N20      1.0000 0.65720  0.95761  0.82080  Biso   1.000  N
  N21      1.0000 0.65720  0.54239  0.32080  Biso   1.000  N
  N22      1.0000 0.84280  0.95761  0.32080  Biso   1.000  N
  N23      1.0000 0.15720  0.45761  0.17920  Biso   1.000  N
  N24      1.0000 0.34280  0.04239  0.17920  Biso   1.000  N
  N25      1.0000 0.19440  0.54552  0.66650  Biso   1.000  N
  N26      1.0000 0.30560  0.95448  0.66650  Biso   1.000  N
  N27      1.0000 0.69440  0.45448  0.83350  Biso   1.000  N
  N28      1.0000 0.80560  0.04552  0.83350  Biso   1.000  N
  N29      1.0000 0.80560  0.45448  0.33350  Biso   1.000  N
  N30      1.0000 0.69440  0.04552  0.33350  Biso   1.000  N
  N31      1.0000 0.30560  0.54552  0.16650  Biso   1.000  N
  N32      1.0000 0.19440  0.95448  0.16650  Biso   1.000  N
  N33      1.0000 0.20180  0.65337  0.66280  Biso   1.000  N
  N34      1.0000 0.29820  0.84663  0.66280  Biso   1.000  N
  N35      1.0000 0.70180  0.34663  0.83720  Biso   1.000  N
  N36      1.0000 0.79820  0.15337  0.83720  Biso   1.000  N
  N37      1.0000 0.79820  0.34663  0.33720  Biso   1.000  N
  N38      1.0000 0.70180  0.15337  0.33720  Biso   1.000  N
  N39      1.0000 0.29820  0.65337  0.16280  Biso   1.000  N
  N40      1.0000 0.20180  0.84663  0.16280  Biso   1.000  N
  N41      1.0000 0.07900  0.63485  0.67450  Biso   1.000  N
  N42      1.0000 0.42100  0.86515  0.67450  Biso   1.000  N
  N43      1.0000 0.57900  0.36515  0.82550  Biso   1.000  N
  N44      1.0000 0.92100  0.13485  0.82550  Biso   1.000  N
  N45      1.0000 0.92100  0.36515  0.32550  Biso   1.000  N
  N46      1.0000 0.57900  0.13485  0.32550  Biso   1.000  N
  N47      1.0000 0.42100  0.63485  0.17450  Biso   1.000  N
  N48      1.0000 0.07900  0.86515  0.17450  Biso   1.000  N
  C1       1.0000 0.22650  0.47746  0.66890  Biso   1.000  C
  C2       1.0000 0.27350  0.02254  0.66890  Biso   1.000  C
  C3       1.0000 0.72650  0.52254  0.83110  Biso   1.000  C
  C4       1.0000 0.77350  0.97746  0.83110  Biso   1.000  C
  C5       1.0000 0.77350  0.52254  0.33110  Biso   1.000  C
  C6       1.0000 0.72650  0.97746  0.33110  Biso   1.000  C
  C7       1.0000 0.27350  0.47746  0.16890  Biso   1.000  C
  C8       1.0000 0.22650  0.02254  0.16890  Biso   1.000  C
  C9       1.0000 0.32830  0.39139  0.67870  Biso   1.000  C
  C10      1.0000 0.17170  0.10861  0.67870  Biso   1.000  C
  C11      1.0000 0.82830  0.60861  0.82130  Biso   1.000  C
  C12      1.0000 0.67170  0.89139  0.82130  Biso   1.000  C
  C13      1.0000 0.67170  0.60861  0.32130  Biso   1.000  C
  C14      1.0000 0.82830  0.89139  0.32130  Biso   1.000  C
  C15      1.0000 0.17170  0.39139  0.17870  Biso   1.000  C
  C16      1.0000 0.32830  0.10861  0.17870  Biso   1.000  C
  H9       1.0000 0.39280  0.36080  0.68490  Biso   1.000  H
  H10      1.0000 0.10720  0.13920  0.68490  Biso   1.000  H
  H11      1.0000 0.89280  0.63920  0.81510  Biso   1.000  H
  H12      1.0000 0.60720  0.86080  0.81510  Biso   1.000  H
  H13      1.0000 0.60720  0.63920  0.31510  Biso   1.000  H
  H14      1.0000 0.89280  0.86080  0.31510  Biso   1.000  H
  H15      1.0000 0.10720  0.36080  0.18490  Biso   1.000  H
  H16      1.0000 0.39280  0.13920  0.18490  Biso   1.000  H
  C17      1.0000 0.26910  0.59962  0.65950  Biso   1.000  C
  C18      1.0000 0.23090  0.90038  0.65950  Biso   1.000  C
  C19      1.0000 0.76910  0.40038  0.84050  Biso   1.000  C
  C20      1.0000 0.73090  0.09962  0.84050  Biso   1.000  C
  C21      1.0000 0.73090  0.40038  0.34050  Biso   1.000  C
  C22      1.0000 0.76910  0.09962  0.34050  Biso   1.000  C
  C23      1.0000 0.23090  0.59962  0.15950  Biso   1.000  C
  C24      1.0000 0.26910  0.90038  0.15950  Biso   1.000  C
  H17      1.0000 0.35520  0.59850  0.65330  Biso   1.000  H
  H18      1.0000 0.14480  0.90150  0.65330  Biso   1.000  H
  H19      1.0000 0.85520  0.40150  0.84670  Biso   1.000  H
  H20      1.0000 0.64480  0.09850  0.84670  Biso   1.000  H
  H21      1.0000 0.64480  0.40150  0.34670  Biso   1.000  H
  H22      1.0000 0.85520  0.09850  0.34670  Biso   1.000  H
  H23      1.0000 0.14480  0.59850  0.15330  Biso   1.000  H
  H24      1.0000 0.35520  0.90150  0.15330  Biso   1.000  H
  C25      1.0000 0.07830  0.57020  0.67620  Biso   1.000  C
  C26      1.0000 0.42170  0.92980  0.67620  Biso   1.000  C
  C27      1.0000 0.57830  0.42980  0.82380  Biso   1.000  C
  C28      1.0000 0.92170  0.07020  0.82380  Biso   1.000  C
  C29      1.0000 0.92170  0.42980  0.32380  Biso   1.000  C
  C30      1.0000 0.57830  0.07020  0.32380  Biso   1.000  C
  C31      1.0000 0.42170  0.57020  0.17620  Biso   1.000  C
  C32      1.0000 0.07830  0.92980  0.17620  Biso   1.000  C
  H25      1.0000 0.00710  0.54420  0.68310  Biso   1.000  H
  H26      1.0000 0.49290  0.95580  0.68310  Biso   1.000  H
  H27      1.0000 0.50710  0.45580  0.81690  Biso   1.000  H
  H28      1.0000 0.99290  0.04420  0.81690  Biso   1.000  H
  H29      1.0000 0.99290  0.45580  0.31690  Biso   1.000  H
  H30      1.0000 0.50710  0.04420  0.31690  Biso   1.000  H
  H31      1.0000 0.49290  0.54420  0.18310  Biso   1.000  H
  H32      1.0000 0.00710  0.95580  0.18310  Biso   1.000  H
  C33      1.0000 0.62020  0.74219  0.57470  Biso   1.000  C
  C34      1.0000 0.87980  0.75781  0.57470  Biso   1.000  C
  C35      1.0000 0.12020  0.25781  0.92530  Biso   1.000  C
  C36      1.0000 0.37980  0.24219  0.92530  Biso   1.000  C
  C37      1.0000 0.37980  0.25781  0.42530  Biso   1.000  C
  C38      1.0000 0.12020  0.24219  0.42530  Biso   1.000  C
  C39      1.0000 0.87980  0.74219  0.07470  Biso   1.000  C
  C40      1.0000 0.62020  0.75781  0.07470  Biso   1.000  C
  C41      1.0000 0.69740  0.68629  0.57420  Biso   1.000  C
  C42      1.0000 0.80260  0.81371  0.57420  Biso   1.000  C
  C43      1.0000 0.19740  0.31371  0.92580  Biso   1.000  C
  C44      1.0000 0.30260  0.18629  0.92580  Biso   1.000  C
  C45      1.0000 0.30260  0.31371  0.42580  Biso   1.000  C
  C46      1.0000 0.19740  0.18629  0.42580  Biso   1.000  C
  C47      1.0000 0.80260  0.68629  0.07420  Biso   1.000  C
  C48      1.0000 0.69740  0.81371  0.07420  Biso   1.000  C
  C49      1.0000 0.67340  0.80535  0.57450  Biso   1.000  C
  C50      1.0000 0.82660  0.69465  0.57450  Biso   1.000  C
  C51      1.0000 0.17340  0.19465  0.92550  Biso   1.000  C
  C52      1.0000 0.32660  0.30535  0.92550  Biso   1.000  C
  C53      1.0000 0.32660  0.19465  0.42550  Biso   1.000  C
  C54      1.0000 0.17340  0.30535  0.42550  Biso   1.000  C
  C55      1.0000 0.82660  0.80535  0.07450  Biso   1.000  C
  C56      1.0000 0.67340  0.69465  0.07450  Biso   1.000  C
  H33      1.0000 0.62220  0.84270  0.57460  Biso   1.000  H
  H34      1.0000 0.87780  0.65730  0.57460  Biso   1.000  H
  H35      1.0000 0.12220  0.15730  0.92540  Biso   1.000  H
  H36      1.0000 0.37780  0.34270  0.92540  Biso   1.000  H
  H37      1.0000 0.37780  0.15730  0.42540  Biso   1.000  H
  H38      1.0000 0.12220  0.34270  0.42540  Biso   1.000  H
  H39      1.0000 0.87780  0.84270  0.07460  Biso   1.000  H
  H40      1.0000 0.62220  0.65730  0.07460  Biso   1.000  H
  C57      1.0000 0.47970  0.73879  0.57440  Biso   1.000  C
  C58      1.0000 0.02030  0.76121  0.57440  Biso   1.000  C
  C59      1.0000 0.97970  0.26121  0.92560  Biso   1.000  C
  C60      1.0000 0.52030  0.23879  0.92560  Biso   1.000  C
  C61      1.0000 0.52030  0.26121  0.42560  Biso   1.000  C
  C62      1.0000 0.97970  0.23879  0.42560  Biso   1.000  C
  C63      1.0000 0.02030  0.73879  0.07440  Biso   1.000  C
  C64      1.0000 0.47970  0.76121  0.07440  Biso   1.000  C
  C65      1.0000 0.64330  0.61790  0.56870  Biso   1.000  C
  C66      1.0000 0.85670  0.88210  0.56870  Biso   1.000  C
  C67      1.0000 0.14330  0.38210  0.93130  Biso   1.000  C
  C68      1.0000 0.35670  0.11790  0.93130  Biso   1.000  C
  C69      1.0000 0.35670  0.38210  0.43130  Biso   1.000  C
  C70      1.0000 0.14330  0.11790  0.43130  Biso   1.000  C
  C71      1.0000 0.85670  0.61790  0.06870  Biso   1.000  C
  C72      1.0000 0.64330  0.88210  0.06870  Biso   1.000  C
  H41      1.0000 0.69800  0.54400  0.58600  Biso   1.000  H
  H42      1.0000 0.80200  0.95600  0.58600  Biso   1.000  H
  H43      1.0000 0.19800  0.45600  0.91400  Biso   1.000  H
  H44      1.0000 0.30200  0.04400  0.91400  Biso   1.000  H
  H45      1.0000 0.30200  0.45600  0.41400  Biso   1.000  H
  H46      1.0000 0.19800  0.04400  0.41400  Biso   1.000  H
  H47      1.0000 0.80200  0.54400  0.08600  Biso   1.000  H
  H48      1.0000 0.69800  0.95600  0.08600  Biso   1.000  H
  H49      1.0000 0.20900  0.75200  0.86800  Biso   1.000  H
  H50      1.0000 0.29100  0.74800  0.86800  Biso   1.000  H
  H51      1.0000 0.70900  0.24800  0.63200  Biso   1.000  H
  H52      1.0000 0.79100  0.25200  0.63200  Biso   1.000  H
  H53      1.0000 0.79100  0.24800  0.13200  Biso   1.000  H
  H54      1.0000 0.70900  0.25200  0.13200  Biso   1.000  H
  H55      1.0000 0.29100  0.75200  0.36800  Biso   1.000  H
  H56      1.0000 0.20900  0.74800  0.36800  Biso   1.000  H
