data_image0
_cell_length_a       31.764
_cell_length_b       8.8
_cell_length_c       17.569
_cell_angle_alpha    90
_cell_angle_beta     102.07
_cell_angle_gamma    90

_symmetry_space_group_name_H-M    "P 1"
_symmetry_int_tables_number       1

loop_
  _symmetry_equiv_pos_as_xyz
  'x, y, z'

loop_
  _atom_site_label
  _atom_site_occupancy
  _atom_site_fract_x
  _atom_site_fract_y
  _atom_site_fract_z
  _atom_site_thermal_displace_type
  _atom_site_B_iso_or_equiv
  _atom_site_type_symbol
  Cu1      1.0000 0.02804  0.04626  0.56145  Biso   1.000  Cu
  Cu2      1.0000 0.97196  0.04626  0.93855  Biso   1.000  Cu
  Cu3      1.0000 0.52804  0.54626  0.56145  Biso   1.000  Cu
  Cu4      1.0000 0.47196  0.54626  0.93855  Biso   1.000  Cu
  Cu5      1.0000 0.97196  0.95374  0.43855  Biso   1.000  Cu
  Cu6      1.0000 0.02804  0.95374  0.06145  Biso   1.000  Cu
  Cu7      1.0000 0.47196  0.45374  0.43855  Biso   1.000  Cu
  Cu8      1.0000 0.52804  0.45374  0.06145  Biso   1.000  Cu
  Cu9      1.0000 0.25000  0.75000  0.00000  Biso   1.000  Cu
  Cu10     1.0000 0.75000  0.75000  0.50000  Biso   1.000  Cu
  Cu11     1.0000 0.75000  0.25000  0.00000  Biso   1.000  Cu
  Cu12     1.0000 0.25000  0.25000  0.50000  Biso   1.000  Cu
  O1       1.0000 0.16092  0.58600  0.60140  Biso   1.000  O
  O2       1.0000 0.83908  0.58600  0.89860  Biso   1.000  O
  O3       1.0000 0.66092  0.08600  0.60140  Biso   1.000  O
  O4       1.0000 0.33908  0.08600  0.89860  Biso   1.000  O
  O5       1.0000 0.83908  0.41400  0.39860  Biso   1.000  O
  O6       1.0000 0.16092  0.41400  0.10140  Biso   1.000  O
  O7       1.0000 0.33908  0.91400  0.39860  Biso   1.000  O
  O8       1.0000 0.66092  0.91400  0.10140  Biso   1.000  O
  O9       1.0000 0.03458  0.63690  0.68040  Biso   1.000  O
  O10      1.0000 0.96542  0.63690  0.81960  Biso   1.000  O
  O11      1.0000 0.53458  0.13690  0.68040  Biso   1.000  O
  O12      1.0000 0.46542  0.13690  0.81960  Biso   1.000  O
  O13      1.0000 0.96542  0.36310  0.31960  Biso   1.000  O
  O14      1.0000 0.03458  0.36310  0.18040  Biso   1.000  O
  O15      1.0000 0.46542  0.86310  0.31960  Biso   1.000  O
  O16      1.0000 0.53458  0.86310  0.18040  Biso   1.000  O
  O17      1.0000 0.15221  0.90110  0.80130  Biso   1.000  O
  O18      1.0000 0.84779  0.90110  0.69870  Biso   1.000  O
  O19      1.0000 0.65221  0.40110  0.80130  Biso   1.000  O
  O20      1.0000 0.34779  0.40110  0.69870  Biso   1.000  O
  O21      1.0000 0.84779  0.09890  0.19870  Biso   1.000  O
  O22      1.0000 0.15221  0.09890  0.30130  Biso   1.000  O
  O23      1.0000 0.34779  0.59890  0.19870  Biso   1.000  O
  O24      1.0000 0.65221  0.59890  0.30130  Biso   1.000  O
  O25      1.0000 0.25187  0.72880  0.88845  Biso   1.000  O
  O26      1.0000 0.74813  0.72880  0.61155  Biso   1.000  O
  O27      1.0000 0.75187  0.22880  0.88845  Biso   1.000  O
  O28      1.0000 0.24813  0.22880  0.61155  Biso   1.000  O
  O29      1.0000 0.74813  0.27120  0.11155  Biso   1.000  O
  O30      1.0000 0.25187  0.27120  0.38845  Biso   1.000  O
  O31      1.0000 0.24813  0.77120  0.11155  Biso   1.000  O
  O32      1.0000 0.75187  0.77120  0.38845  Biso   1.000  O
  O33      1.0000 0.20155  0.54950  0.85730  Biso   1.000  O
  O34      1.0000 0.79845  0.54950  0.64270  Biso   1.000  O
  O35      1.0000 0.70155  0.04950  0.85730  Biso   1.000  O
  O36      1.0000 0.29845  0.04950  0.64270  Biso   1.000  O
  O37      1.0000 0.79845  0.45050  0.14270  Biso   1.000  O
  O38      1.0000 0.20155  0.45050  0.35730  Biso   1.000  O
  O39      1.0000 0.29845  0.95050  0.14270  Biso   1.000  O
  O40      1.0000 0.70155  0.95050  0.35730  Biso   1.000  O
  O41      1.0000 0.05732  0.85140  0.54717  Biso   1.000  O
  O42      1.0000 0.94268  0.85140  0.95283  Biso   1.000  O
  O43      1.0000 0.55732  0.35140  0.54717  Biso   1.000  O
  O44      1.0000 0.44268  0.35140  0.95283  Biso   1.000  O
  O45      1.0000 0.94268  0.14860  0.45283  Biso   1.000  O
  O46      1.0000 0.05732  0.14860  0.04717  Biso   1.000  O
  O47      1.0000 0.44268  0.64860  0.45283  Biso   1.000  O
  O48      1.0000 0.55732  0.64860  0.04717  Biso   1.000  O
  O49      1.0000 0.00846  0.76950  0.44540  Biso   1.000  O
  O50      1.0000 0.99154  0.76950  0.05460  Biso   1.000  O
  O51      1.0000 0.50846  0.26950  0.44540  Biso   1.000  O
  O52      1.0000 0.49154  0.26950  0.05460  Biso   1.000  O
  O53      1.0000 0.99154  0.23050  0.55460  Biso   1.000  O
  O54      1.0000 0.00846  0.23050  0.94540  Biso   1.000  O
  O55      1.0000 0.49154  0.73050  0.55460  Biso   1.000  O
  O56      1.0000 0.50846  0.73050  0.94540  Biso   1.000  O
  O57      1.0000 0.05758  0.85630  0.98720  Biso   1.000  O
  O58      1.0000 0.94242  0.85630  0.51280  Biso   1.000  O
  O59      1.0000 0.55758  0.35630  0.98720  Biso   1.000  O
  O60      1.0000 0.44242  0.35630  0.51280  Biso   1.000  O
  O61      1.0000 0.94242  0.14370  0.01280  Biso   1.000  O
  O62      1.0000 0.05758  0.14370  0.48720  Biso   1.000  O
  O63      1.0000 0.44242  0.64370  0.01280  Biso   1.000  O
  O64      1.0000 0.55758  0.64370  0.48720  Biso   1.000  O
  O65      1.0000 0.01090  0.94180  0.88240  Biso   1.000  O
  O66      1.0000 0.98910  0.94180  0.61760  Biso   1.000  O
  O67      1.0000 0.51090  0.44180  0.88240  Biso   1.000  O
  O68      1.0000 0.48910  0.44180  0.61760  Biso   1.000  O
  O69      1.0000 0.98910  0.05820  0.11760  Biso   1.000  O
  O70      1.0000 0.01090  0.05820  0.38240  Biso   1.000  O
  O71      1.0000 0.48910  0.55820  0.11760  Biso   1.000  O
  O72      1.0000 0.51090  0.55820  0.38240  Biso   1.000  O
  N1       1.0000 0.15806  0.74110  0.70280  Biso   1.000  N
  N2       1.0000 0.84194  0.74110  0.79720  Biso   1.000  N
  N3       1.0000 0.65806  0.24110  0.70280  Biso   1.000  N
  N4       1.0000 0.34194  0.24110  0.79720  Biso   1.000  N
  N5       1.0000 0.84194  0.25890  0.29720  Biso   1.000  N
  N6       1.0000 0.15806  0.25890  0.20280  Biso   1.000  N
  N7       1.0000 0.34194  0.75890  0.29720  Biso   1.000  N
  N8       1.0000 0.65806  0.75890  0.20280  Biso   1.000  N
  N9       1.0000 0.09719  0.60830  0.63830  Biso   1.000  N
  N10      1.0000 0.90281  0.60830  0.86170  Biso   1.000  N
  N11      1.0000 0.59719  0.10830  0.63830  Biso   1.000  N
  N12      1.0000 0.40281  0.10830  0.86170  Biso   1.000  N
  N13      1.0000 0.90281  0.39170  0.36170  Biso   1.000  N
  N14      1.0000 0.09719  0.39170  0.13830  Biso   1.000  N
  N15      1.0000 0.40281  0.89170  0.36170  Biso   1.000  N
  N16      1.0000 0.59719  0.89170  0.13830  Biso   1.000  N
  N17      1.0000 0.09217  0.77310  0.74050  Biso   1.000  N
  N18      1.0000 0.90783  0.77310  0.75950  Biso   1.000  N
  N19      1.0000 0.59217  0.27310  0.74050  Biso   1.000  N
  N20      1.0000 0.40783  0.27310  0.75950  Biso   1.000  N
  N21      1.0000 0.90783  0.22690  0.25950  Biso   1.000  N
  N22      1.0000 0.09217  0.22690  0.24050  Biso   1.000  N
  N23      1.0000 0.40783  0.72690  0.25950  Biso   1.000  N
  N24      1.0000 0.59217  0.72690  0.24050  Biso   1.000  N
  N25      1.0000 0.28237  0.55680  0.02530  Biso   1.000  N
  N26      1.0000 0.71763  0.55680  0.47470  Biso   1.000  N
  N27      1.0000 0.78237  0.05680  0.02530  Biso   1.000  N
  N28      1.0000 0.21763  0.05680  0.47470  Biso   1.000  N
  N29      1.0000 0.71763  0.44320  0.97470  Biso   1.000  N
  N30      1.0000 0.28237  0.44320  0.52530  Biso   1.000  N
  N31      1.0000 0.21763  0.94320  0.97470  Biso   1.000  N
  N32      1.0000 0.78237  0.94320  0.52530  Biso   1.000  N
  N33      1.0000 0.07291  0.14160  0.65980  Biso   1.000  N
  N34      1.0000 0.92709  0.14160  0.84020  Biso   1.000  N
  N35      1.0000 0.57291  0.64160  0.65980  Biso   1.000  N
  N36      1.0000 0.42709  0.64160  0.84020  Biso   1.000  N
  N37      1.0000 0.92709  0.85840  0.34020  Biso   1.000  N
  N38      1.0000 0.07291  0.85840  0.15980  Biso   1.000  N
  N39      1.0000 0.42709  0.35840  0.34020  Biso   1.000  N
  N40      1.0000 0.57291  0.35840  0.15980  Biso   1.000  N
  C1       1.0000 0.13985  0.64150  0.64420  Biso   1.000  C
  C2       1.0000 0.86015  0.64150  0.85580  Biso   1.000  C
  C3       1.0000 0.63985  0.14150  0.64420  Biso   1.000  C
  C4       1.0000 0.36015  0.14150  0.85580  Biso   1.000  C
  C5       1.0000 0.86015  0.35850  0.35580  Biso   1.000  C
  C6       1.0000 0.13985  0.35850  0.14420  Biso   1.000  C
  C7       1.0000 0.36015  0.85850  0.35580  Biso   1.000  C
  C8       1.0000 0.63985  0.85850  0.14420  Biso   1.000  C
  C9       1.0000 0.07145  0.67210  0.68520  Biso   1.000  C
  C10      1.0000 0.92855  0.67210  0.81480  Biso   1.000  C
  C11      1.0000 0.57145  0.17210  0.68520  Biso   1.000  C
  C12      1.0000 0.42855  0.17210  0.81480  Biso   1.000  C
  C13      1.0000 0.92855  0.32790  0.31480  Biso   1.000  C
  C14      1.0000 0.07145  0.32790  0.18520  Biso   1.000  C
  C15      1.0000 0.42855  0.82790  0.31480  Biso   1.000  C
  C16      1.0000 0.57145  0.82790  0.18520  Biso   1.000  C
  C17      1.0000 0.13502  0.81190  0.75240  Biso   1.000  C
  C18      1.0000 0.86498  0.81190  0.74760  Biso   1.000  C
  C19      1.0000 0.63502  0.31190  0.75240  Biso   1.000  C
  C20      1.0000 0.36498  0.31190  0.74760  Biso   1.000  C
  C21      1.0000 0.86498  0.18810  0.24760  Biso   1.000  C
  C22      1.0000 0.13502  0.18810  0.25240  Biso   1.000  C
  C23      1.0000 0.36498  0.68810  0.24760  Biso   1.000  C
  C24      1.0000 0.63502  0.68810  0.25240  Biso   1.000  C
  C25      1.0000 0.20436  0.77340  0.71310  Biso   1.000  C
  C26      1.0000 0.79564  0.77340  0.78690  Biso   1.000  C
  C27      1.0000 0.70436  0.27340  0.71310  Biso   1.000  C
  C28      1.0000 0.29564  0.27340  0.78690  Biso   1.000  C
  C29      1.0000 0.79564  0.22660  0.28690  Biso   1.000  C
  C30      1.0000 0.20436  0.22660  0.21310  Biso   1.000  C
  C31      1.0000 0.29564  0.72660  0.28690  Biso   1.000  C
  C32      1.0000 0.70436  0.72660  0.21310  Biso   1.000  C
  H1       1.0000 0.21140  0.78540  0.66230  Biso   1.000  H
  H2       1.0000 0.78860  0.78540  0.83770  Biso   1.000  H
  H3       1.0000 0.71140  0.28540  0.66230  Biso   1.000  H
  H4       1.0000 0.28860  0.28540  0.83770  Biso   1.000  H
  H5       1.0000 0.78860  0.21460  0.33770  Biso   1.000  H
  H6       1.0000 0.21140  0.21460  0.16230  Biso   1.000  H
  H7       1.0000 0.28860  0.71460  0.33770  Biso   1.000  H
  H8       1.0000 0.71140  0.71460  0.16230  Biso   1.000  H
  H9       1.0000 0.21070  0.86880  0.74080  Biso   1.000  H
  H10      1.0000 0.78930  0.86880  0.75920  Biso   1.000  H
  H11      1.0000 0.71070  0.36880  0.74080  Biso   1.000  H
  H12      1.0000 0.28930  0.36880  0.75920  Biso   1.000  H
  H13      1.0000 0.78930  0.13120  0.25920  Biso   1.000  H
  H14      1.0000 0.21070  0.13120  0.24080  Biso   1.000  H
  H15      1.0000 0.28930  0.63120  0.25920  Biso   1.000  H
  H16      1.0000 0.71070  0.63120  0.24080  Biso   1.000  H
  C33      1.0000 0.23234  0.65100  0.75690  Biso   1.000  C
  C34      1.0000 0.76766  0.65100  0.74310  Biso   1.000  C
  C35      1.0000 0.73234  0.15100  0.75690  Biso   1.000  C
  C36      1.0000 0.26766  0.15100  0.74310  Biso   1.000  C
  C37      1.0000 0.76766  0.34900  0.24310  Biso   1.000  C
  C38      1.0000 0.23234  0.34900  0.25690  Biso   1.000  C
  C39      1.0000 0.26766  0.84900  0.24310  Biso   1.000  C
  C40      1.0000 0.73234  0.84900  0.25690  Biso   1.000  C
  H17      1.0000 0.22450  0.55410  0.73150  Biso   1.000  H
  H18      1.0000 0.77550  0.55410  0.76850  Biso   1.000  H
  H19      1.0000 0.72450  0.05410  0.73150  Biso   1.000  H
  H20      1.0000 0.27550  0.05410  0.76850  Biso   1.000  H
  H21      1.0000 0.77550  0.44590  0.26850  Biso   1.000  H
  H22      1.0000 0.22450  0.44590  0.23150  Biso   1.000  H
  H23      1.0000 0.27550  0.94590  0.26850  Biso   1.000  H
  H24      1.0000 0.72450  0.94590  0.23150  Biso   1.000  H
  H25      1.0000 0.26210  0.67150  0.75520  Biso   1.000  H
  H26      1.0000 0.73790  0.67150  0.74480  Biso   1.000  H
  H27      1.0000 0.76210  0.17150  0.75520  Biso   1.000  H
  H28      1.0000 0.23790  0.17150  0.74480  Biso   1.000  H
  H29      1.0000 0.73790  0.32850  0.24480  Biso   1.000  H
  H30      1.0000 0.26210  0.32850  0.25520  Biso   1.000  H
  H31      1.0000 0.23790  0.82850  0.24480  Biso   1.000  H
  H32      1.0000 0.76210  0.82850  0.25520  Biso   1.000  H
  C41      1.0000 0.22816  0.64030  0.84080  Biso   1.000  C
  C42      1.0000 0.77184  0.64030  0.65920  Biso   1.000  C
  C43      1.0000 0.72816  0.14030  0.84080  Biso   1.000  C
  C44      1.0000 0.27184  0.14030  0.65920  Biso   1.000  C
  C45      1.0000 0.77184  0.35970  0.15920  Biso   1.000  C
  C46      1.0000 0.22816  0.35970  0.34080  Biso   1.000  C
  C47      1.0000 0.27184  0.85970  0.15920  Biso   1.000  C
  C48      1.0000 0.72816  0.85970  0.34080  Biso   1.000  C
  C49      1.0000 0.07523  0.51770  0.57130  Biso   1.000  C
  C50      1.0000 0.92477  0.51770  0.92870  Biso   1.000  C
  C51      1.0000 0.57523  0.01770  0.57130  Biso   1.000  C
  C52      1.0000 0.42477  0.01770  0.92870  Biso   1.000  C
  C53      1.0000 0.92477  0.48230  0.42870  Biso   1.000  C
  C54      1.0000 0.07523  0.48230  0.07130  Biso   1.000  C
  C55      1.0000 0.42477  0.98230  0.42870  Biso   1.000  C
  C56      1.0000 0.57523  0.98230  0.07130  Biso   1.000  C
  H33      1.0000 0.09280  0.42970  0.56580  Biso   1.000  H
  H34      1.0000 0.90720  0.42970  0.93420  Biso   1.000  H
  H35      1.0000 0.59280  0.92970  0.56580  Biso   1.000  H
  H36      1.0000 0.40720  0.92970  0.93420  Biso   1.000  H
  H37      1.0000 0.90720  0.57030  0.43420  Biso   1.000  H
  H38      1.0000 0.09280  0.57030  0.06580  Biso   1.000  H
  H39      1.0000 0.40720  0.07030  0.43420  Biso   1.000  H
  H40      1.0000 0.59280  0.07030  0.06580  Biso   1.000  H
  H41      1.0000 0.04800  0.48130  0.58120  Biso   1.000  H
  H42      1.0000 0.95200  0.48130  0.91880  Biso   1.000  H
  H43      1.0000 0.54800  0.98130  0.58120  Biso   1.000  H
  H44      1.0000 0.45200  0.98130  0.91880  Biso   1.000  H
  H45      1.0000 0.95200  0.51870  0.41880  Biso   1.000  H
  H46      1.0000 0.04800  0.51870  0.08120  Biso   1.000  H
  H47      1.0000 0.45200  0.01870  0.41880  Biso   1.000  H
  H48      1.0000 0.54800  0.01870  0.08120  Biso   1.000  H
  C57      1.0000 0.06676  0.60680  0.49570  Biso   1.000  C
  C58      1.0000 0.93324  0.60680  0.00430  Biso   1.000  C
  C59      1.0000 0.56676  0.10680  0.49570  Biso   1.000  C
  C60      1.0000 0.43324  0.10680  0.00430  Biso   1.000  C
  C61      1.0000 0.93324  0.39320  0.50430  Biso   1.000  C
  C62      1.0000 0.06676  0.39320  0.99570  Biso   1.000  C
  C63      1.0000 0.43324  0.89320  0.50430  Biso   1.000  C
  C64      1.0000 0.56676  0.89320  0.99570  Biso   1.000  C
  H49      1.0000 0.09420  0.63040  0.48260  Biso   1.000  H
  H50      1.0000 0.90580  0.63040  0.01740  Biso   1.000  H
  H51      1.0000 0.59420  0.13040  0.48260  Biso   1.000  H
  H52      1.0000 0.40580  0.13040  0.01740  Biso   1.000  H
  H53      1.0000 0.90580  0.36960  0.51740  Biso   1.000  H
  H54      1.0000 0.09420  0.36960  0.98260  Biso   1.000  H
  H55      1.0000 0.40580  0.86960  0.51740  Biso   1.000  H
  H56      1.0000 0.59420  0.86960  0.98260  Biso   1.000  H
  H57      1.0000 0.05110  0.54200  0.45480  Biso   1.000  H
  H58      1.0000 0.94890  0.54200  0.04520  Biso   1.000  H
  H59      1.0000 0.55110  0.04200  0.45480  Biso   1.000  H
  H60      1.0000 0.44890  0.04200  0.04520  Biso   1.000  H
  H61      1.0000 0.94890  0.45800  0.54520  Biso   1.000  H
  H62      1.0000 0.05110  0.45800  0.95480  Biso   1.000  H
  H63      1.0000 0.44890  0.95800  0.54520  Biso   1.000  H
  H64      1.0000 0.55110  0.95800  0.95480  Biso   1.000  H
  C65      1.0000 0.04170  0.75450  0.49560  Biso   1.000  C
  C66      1.0000 0.95830  0.75450  0.00440  Biso   1.000  C
  C67      1.0000 0.54170  0.25450  0.49560  Biso   1.000  C
  C68      1.0000 0.45830  0.25450  0.00440  Biso   1.000  C
  C69      1.0000 0.95830  0.24550  0.50440  Biso   1.000  C
  C70      1.0000 0.04170  0.24550  0.99560  Biso   1.000  C
  C71      1.0000 0.45830  0.74550  0.50440  Biso   1.000  C
  C72      1.0000 0.54170  0.74550  0.99560  Biso   1.000  C
  C73      1.0000 0.06631  0.85410  0.78840  Biso   1.000  C
  C74      1.0000 0.93369  0.85410  0.71160  Biso   1.000  C
  C75      1.0000 0.56631  0.35410  0.78840  Biso   1.000  C
  C76      1.0000 0.43369  0.35410  0.71160  Biso   1.000  C
  C77      1.0000 0.93369  0.14590  0.21160  Biso   1.000  C
  C78      1.0000 0.06631  0.14590  0.28840  Biso   1.000  C
  C79      1.0000 0.43369  0.64590  0.21160  Biso   1.000  C
  C80      1.0000 0.56631  0.64590  0.28840  Biso   1.000  C
  H65      1.0000 0.07750  0.95620  0.79900  Biso   1.000  H
  H66      1.0000 0.92250  0.95620  0.70100  Biso   1.000  H
  H67      1.0000 0.57750  0.45620  0.79900  Biso   1.000  H
  H68      1.0000 0.42250  0.45620  0.70100  Biso   1.000  H
  H69      1.0000 0.92250  0.04380  0.20100  Biso   1.000  H
  H70      1.0000 0.07750  0.04380  0.29900  Biso   1.000  H
  H71      1.0000 0.42250  0.54380  0.20100  Biso   1.000  H
  H72      1.0000 0.57750  0.54380  0.29900  Biso   1.000  H
  H73      1.0000 0.03680  0.86220  0.75960  Biso   1.000  H
  H74      1.0000 0.96320  0.86220  0.74040  Biso   1.000  H
  H75      1.0000 0.53680  0.36220  0.75960  Biso   1.000  H
  H76      1.0000 0.46320  0.36220  0.74040  Biso   1.000  H
  H77      1.0000 0.96320  0.13780  0.24040  Biso   1.000  H
  H78      1.0000 0.03680  0.13780  0.25960  Biso   1.000  H
  H79      1.0000 0.46320  0.63780  0.24040  Biso   1.000  H
  H80      1.0000 0.53680  0.63780  0.25960  Biso   1.000  H
  C81      1.0000 0.06703  0.77370  0.86400  Biso   1.000  C
  C82      1.0000 0.93297  0.77370  0.63600  Biso   1.000  C
  C83      1.0000 0.56703  0.27370  0.86400  Biso   1.000  C
  C84      1.0000 0.43297  0.27370  0.63600  Biso   1.000  C
  C85      1.0000 0.93297  0.22630  0.13600  Biso   1.000  C
  C86      1.0000 0.06703  0.22630  0.36400  Biso   1.000  C
  C87      1.0000 0.43297  0.72630  0.13600  Biso   1.000  C
  C88      1.0000 0.56703  0.72630  0.36400  Biso   1.000  C
  H81      1.0000 0.05380  0.67450  0.85370  Biso   1.000  H
  H82      1.0000 0.94620  0.67450  0.64630  Biso   1.000  H
  H83      1.0000 0.55380  0.17450  0.85370  Biso   1.000  H
  H84      1.0000 0.44620  0.17450  0.64630  Biso   1.000  H
  H85      1.0000 0.94620  0.32550  0.14630  Biso   1.000  H
  H86      1.0000 0.05380  0.32550  0.35370  Biso   1.000  H
  H87      1.0000 0.44620  0.82550  0.14630  Biso   1.000  H
  H88      1.0000 0.55380  0.82550  0.35370  Biso   1.000  H
  H89      1.0000 0.09660  0.75910  0.89120  Biso   1.000  H
  H90      1.0000 0.90340  0.75910  0.60880  Biso   1.000  H
  H91      1.0000 0.59660  0.25910  0.89120  Biso   1.000  H
  H92      1.0000 0.40340  0.25910  0.60880  Biso   1.000  H
  H93      1.0000 0.90340  0.24090  0.10880  Biso   1.000  H
  H94      1.0000 0.09660  0.24090  0.39120  Biso   1.000  H
  H95      1.0000 0.40340  0.74090  0.10880  Biso   1.000  H
  H96      1.0000 0.59660  0.74090  0.39120  Biso   1.000  H
  C89      1.0000 0.04293  0.86490  0.91530  Biso   1.000  C
  C90      1.0000 0.95707  0.86490  0.58470  Biso   1.000  C
  C91      1.0000 0.54293  0.36490  0.91530  Biso   1.000  C
  C92      1.0000 0.45707  0.36490  0.58470  Biso   1.000  C
  C93      1.0000 0.95707  0.13510  0.08470  Biso   1.000  C
  C94      1.0000 0.04293  0.13510  0.41530  Biso   1.000  C
  C95      1.0000 0.45707  0.63510  0.08470  Biso   1.000  C
  C96      1.0000 0.54293  0.63510  0.41530  Biso   1.000  C
  C97      1.0000 0.26829  0.44670  0.06620  Biso   1.000  C
  C98      1.0000 0.73171  0.44670  0.43380  Biso   1.000  C
  C99      1.0000 0.76829  0.94670  0.06620  Biso   1.000  C
  C100     1.0000 0.23171  0.94670  0.43380  Biso   1.000  C
  C101     1.0000 0.73171  0.55330  0.93380  Biso   1.000  C
  C102     1.0000 0.26829  0.55330  0.56620  Biso   1.000  C
  C103     1.0000 0.23171  0.05330  0.93380  Biso   1.000  C
  C104     1.0000 0.76829  0.05330  0.56620  Biso   1.000  C
  H97      1.0000 0.24320  0.46270  0.08460  Biso   1.000  H
  H98      1.0000 0.75680  0.46270  0.41540  Biso   1.000  H
  H99      1.0000 0.74320  0.96270  0.08460  Biso   1.000  H
  H100     1.0000 0.25680  0.96270  0.41540  Biso   1.000  H
  H101     1.0000 0.75680  0.53730  0.91540  Biso   1.000  H
  H102     1.0000 0.24320  0.53730  0.58460  Biso   1.000  H
  H103     1.0000 0.25680  0.03730  0.91540  Biso   1.000  H
  H104     1.0000 0.74320  0.03730  0.58460  Biso   1.000  H
  C105     1.0000 0.28957  0.31130  0.08190  Biso   1.000  C
  C106     1.0000 0.71043  0.31130  0.41810  Biso   1.000  C
  C107     1.0000 0.78957  0.81130  0.08190  Biso   1.000  C
  C108     1.0000 0.21043  0.81130  0.41810  Biso   1.000  C
  C109     1.0000 0.71043  0.68870  0.91810  Biso   1.000  C
  C110     1.0000 0.28957  0.68870  0.58190  Biso   1.000  C
  C111     1.0000 0.21043  0.18870  0.91810  Biso   1.000  C
  C112     1.0000 0.78957  0.18870  0.58190  Biso   1.000  C
  H105     1.0000 0.27880  0.23610  0.10980  Biso   1.000  H
  H106     1.0000 0.72120  0.23610  0.39020  Biso   1.000  H
  H107     1.0000 0.77880  0.73610  0.10980  Biso   1.000  H
  H108     1.0000 0.22120  0.73610  0.39020  Biso   1.000  H
  H109     1.0000 0.72120  0.76390  0.89020  Biso   1.000  H
  H110     1.0000 0.27880  0.76390  0.60980  Biso   1.000  H
  H111     1.0000 0.22120  0.26390  0.89020  Biso   1.000  H
  H112     1.0000 0.77880  0.26390  0.60980  Biso   1.000  H
  C113     1.0000 0.32715  0.28760  0.05570  Biso   1.000  C
  C114     1.0000 0.67285  0.28760  0.44430  Biso   1.000  C
  C115     1.0000 0.82715  0.78760  0.05570  Biso   1.000  C
  C116     1.0000 0.17285  0.78760  0.44430  Biso   1.000  C
  C117     1.0000 0.67285  0.71240  0.94430  Biso   1.000  C
  C118     1.0000 0.32715  0.71240  0.55570  Biso   1.000  C
  C119     1.0000 0.17285  0.21240  0.94430  Biso   1.000  C
  C120     1.0000 0.82715  0.21240  0.55570  Biso   1.000  C
  H113     1.0000 0.34200  0.19620  0.06510  Biso   1.000  H
  H114     1.0000 0.65800  0.19620  0.43490  Biso   1.000  H
  H115     1.0000 0.84200  0.69620  0.06510  Biso   1.000  H
  H116     1.0000 0.15800  0.69620  0.43490  Biso   1.000  H
  H117     1.0000 0.65800  0.80380  0.93490  Biso   1.000  H
  H118     1.0000 0.34200  0.80380  0.56510  Biso   1.000  H
  H119     1.0000 0.15800  0.30380  0.93490  Biso   1.000  H
  H120     1.0000 0.84200  0.30380  0.56510  Biso   1.000  H
  C121     1.0000 0.34187  0.40190  0.01580  Biso   1.000  C
  C122     1.0000 0.65813  0.40190  0.48420  Biso   1.000  C
  C123     1.0000 0.84187  0.90190  0.01580  Biso   1.000  C
  C124     1.0000 0.15813  0.90190  0.48420  Biso   1.000  C
  C125     1.0000 0.65813  0.59810  0.98420  Biso   1.000  C
  C126     1.0000 0.34187  0.59810  0.51580  Biso   1.000  C
  C127     1.0000 0.15813  0.09810  0.98420  Biso   1.000  C
  C128     1.0000 0.84187  0.09810  0.51580  Biso   1.000  C
  H121     1.0000 0.36740  0.38980  0.99830  Biso   1.000  H
  H122     1.0000 0.63260  0.38980  0.50170  Biso   1.000  H
  H123     1.0000 0.86740  0.88980  0.99830  Biso   1.000  H
  H124     1.0000 0.13260  0.88980  0.50170  Biso   1.000  H
  H125     1.0000 0.63260  0.61020  0.00170  Biso   1.000  H
  H126     1.0000 0.36740  0.61020  0.49830  Biso   1.000  H
  H127     1.0000 0.13260  0.11020  0.00170  Biso   1.000  H
  H128     1.0000 0.86740  0.11020  0.49830  Biso   1.000  H
  C129     1.0000 0.31915  0.53370  0.00150  Biso   1.000  C
  C130     1.0000 0.68085  0.53370  0.49850  Biso   1.000  C
  C131     1.0000 0.81915  0.03370  0.00150  Biso   1.000  C
  C132     1.0000 0.18085  0.03370  0.49850  Biso   1.000  C
  C133     1.0000 0.68085  0.46630  0.99850  Biso   1.000  C
  C134     1.0000 0.31915  0.46630  0.50150  Biso   1.000  C
  C135     1.0000 0.18085  0.96630  0.99850  Biso   1.000  C
  C136     1.0000 0.81915  0.96630  0.50150  Biso   1.000  C
  H129     1.0000 0.32960  0.61050  0.97420  Biso   1.000  H
  H130     1.0000 0.67040  0.61050  0.52580  Biso   1.000  H
  H131     1.0000 0.82960  0.11050  0.97420  Biso   1.000  H
  H132     1.0000 0.17040  0.11050  0.52580  Biso   1.000  H
  H133     1.0000 0.67040  0.38950  0.02580  Biso   1.000  H
  H134     1.0000 0.32960  0.38950  0.47420  Biso   1.000  H
  H135     1.0000 0.17040  0.88950  0.02580  Biso   1.000  H
  H136     1.0000 0.82960  0.88950  0.47420  Biso   1.000  H
  O73      1.0000 0.17388  0.62520  0.98520  Biso   1.000  O
  O74      1.0000 0.82612  0.62520  0.51480  Biso   1.000  O
  O75      1.0000 0.67388  0.12520  0.98520  Biso   1.000  O
  O76      1.0000 0.32612  0.12520  0.51480  Biso   1.000  O
  O77      1.0000 0.82612  0.37480  0.01480  Biso   1.000  O
  O78      1.0000 0.17388  0.37480  0.48520  Biso   1.000  O
  O79      1.0000 0.32612  0.87480  0.01480  Biso   1.000  O
  O80      1.0000 0.67388  0.87480  0.48520  Biso   1.000  O
  C137     1.0000 0.11530  0.14300  0.64390  Biso   1.000  C
  C138     1.0000 0.88470  0.14300  0.85610  Biso   1.000  C
  C139     1.0000 0.61530  0.64300  0.64390  Biso   1.000  C
  C140     1.0000 0.38470  0.64300  0.85610  Biso   1.000  C
  C141     1.0000 0.88470  0.85700  0.35610  Biso   1.000  C
  C142     1.0000 0.11530  0.85700  0.14390  Biso   1.000  C
  C143     1.0000 0.38470  0.35700  0.35610  Biso   1.000  C
  C144     1.0000 0.61530  0.35700  0.14390  Biso   1.000  C
  H137     1.0000 0.12160  0.08300  0.60410  Biso   1.000  H
  H138     1.0000 0.87840  0.08300  0.89590  Biso   1.000  H
  H139     1.0000 0.62160  0.58300  0.60410  Biso   1.000  H
  H140     1.0000 0.37840  0.58300  0.89590  Biso   1.000  H
  H141     1.0000 0.87840  0.91700  0.39590  Biso   1.000  H
  H142     1.0000 0.12160  0.91700  0.10410  Biso   1.000  H
  H143     1.0000 0.37840  0.41700  0.39590  Biso   1.000  H
  H144     1.0000 0.62160  0.41700  0.10410  Biso   1.000  H
  C145     1.0000 0.14680  0.23320  0.68740  Biso   1.000  C
  C146     1.0000 0.85320  0.23320  0.81260  Biso   1.000  C
  C147     1.0000 0.64680  0.73320  0.68740  Biso   1.000  C
  C148     1.0000 0.35320  0.73320  0.81260  Biso   1.000  C
  C149     1.0000 0.85320  0.76680  0.31260  Biso   1.000  C
  C150     1.0000 0.14680  0.76680  0.18740  Biso   1.000  C
  C151     1.0000 0.35320  0.26680  0.31260  Biso   1.000  C
  C152     1.0000 0.64680  0.26680  0.18740  Biso   1.000  C
  H145     1.0000 0.17450  0.23970  0.67800  Biso   1.000  H
  H146     1.0000 0.82550  0.23970  0.82200  Biso   1.000  H
  H147     1.0000 0.67450  0.73970  0.67800  Biso   1.000  H
  H148     1.0000 0.32550  0.73970  0.82200  Biso   1.000  H
  H149     1.0000 0.82550  0.76030  0.32200  Biso   1.000  H
  H150     1.0000 0.17450  0.76030  0.17800  Biso   1.000  H
  H151     1.0000 0.32550  0.26030  0.32200  Biso   1.000  H
  H152     1.0000 0.67450  0.26030  0.17800  Biso   1.000  H
  C153     1.0000 0.13330  0.31660  0.74870  Biso   1.000  C
  C154     1.0000 0.86670  0.31660  0.75130  Biso   1.000  C
  C155     1.0000 0.63330  0.81660  0.74870  Biso   1.000  C
  C156     1.0000 0.36670  0.81660  0.75130  Biso   1.000  C
  C157     1.0000 0.86670  0.68340  0.25130  Biso   1.000  C
  C158     1.0000 0.13330  0.68340  0.24870  Biso   1.000  C
  C159     1.0000 0.36670  0.18340  0.25130  Biso   1.000  C
  C160     1.0000 0.63330  0.18340  0.24870  Biso   1.000  C
  H153     1.0000 0.15400  0.37500  0.78140  Biso   1.000  H
  H154     1.0000 0.84600  0.37500  0.71860  Biso   1.000  H
  H155     1.0000 0.65400  0.87500  0.78140  Biso   1.000  H
  H156     1.0000 0.34600  0.87500  0.71860  Biso   1.000  H
  H157     1.0000 0.84600  0.62500  0.21860  Biso   1.000  H
  H158     1.0000 0.15400  0.62500  0.28140  Biso   1.000  H
  H159     1.0000 0.34600  0.12500  0.21860  Biso   1.000  H
  H160     1.0000 0.65400  0.12500  0.28140  Biso   1.000  H
  C161     1.0000 0.09250  0.31680  0.76270  Biso   1.000  C
  C162     1.0000 0.90750  0.31680  0.73730  Biso   1.000  C
  C163     1.0000 0.59250  0.81680  0.76270  Biso   1.000  C
  C164     1.0000 0.40750  0.81680  0.73730  Biso   1.000  C
  C165     1.0000 0.90750  0.68320  0.23730  Biso   1.000  C
  C166     1.0000 0.09250  0.68320  0.26270  Biso   1.000  C
  C167     1.0000 0.40750  0.18320  0.23730  Biso   1.000  C
  C168     1.0000 0.59250  0.18320  0.26270  Biso   1.000  C
  H161     1.0000 0.08360  0.37430  0.80090  Biso   1.000  H
  H162     1.0000 0.91640  0.37430  0.69910  Biso   1.000  H
  H163     1.0000 0.58360  0.87430  0.80090  Biso   1.000  H
  H164     1.0000 0.41640  0.87430  0.69910  Biso   1.000  H
  H165     1.0000 0.91640  0.62570  0.19910  Biso   1.000  H
  H166     1.0000 0.08360  0.62570  0.30090  Biso   1.000  H
  H167     1.0000 0.41640  0.12570  0.19910  Biso   1.000  H
  H168     1.0000 0.58360  0.12570  0.30090  Biso   1.000  H
  C169     1.0000 0.06670  0.22140  0.71300  Biso   1.000  C
  C170     1.0000 0.93330  0.22140  0.78700  Biso   1.000  C
  C171     1.0000 0.56670  0.72140  0.71300  Biso   1.000  C
  C172     1.0000 0.43330  0.72140  0.78700  Biso   1.000  C
  C173     1.0000 0.93330  0.77860  0.28700  Biso   1.000  C
  C174     1.0000 0.06670  0.77860  0.21300  Biso   1.000  C
  C175     1.0000 0.43330  0.27860  0.28700  Biso   1.000  C
  C176     1.0000 0.56670  0.27860  0.21300  Biso   1.000  C
  H169     1.0000 0.03870  0.21580  0.72110  Biso   1.000  H
  H170     1.0000 0.96130  0.21580  0.77890  Biso   1.000  H
  H171     1.0000 0.53870  0.71580  0.72110  Biso   1.000  H
  H172     1.0000 0.46130  0.71580  0.77890  Biso   1.000  H
  H173     1.0000 0.96130  0.78420  0.27890  Biso   1.000  H
  H174     1.0000 0.03870  0.78420  0.22110  Biso   1.000  H
  H175     1.0000 0.46130  0.28420  0.27890  Biso   1.000  H
  H176     1.0000 0.53870  0.28420  0.22110  Biso   1.000  H
  C177     1.0000 0.11300  0.17810  0.66990  Biso   1.000  C
  C178     1.0000 0.88700  0.17810  0.83010  Biso   1.000  C
  C179     1.0000 0.61300  0.67810  0.66990  Biso   1.000  C
  C180     1.0000 0.38700  0.67810  0.83010  Biso   1.000  C
  C181     1.0000 0.88700  0.82190  0.33010  Biso   1.000  C
  C182     1.0000 0.11300  0.82190  0.16990  Biso   1.000  C
  C183     1.0000 0.38700  0.32190  0.33010  Biso   1.000  C
  C184     1.0000 0.61300  0.32190  0.16990  Biso   1.000  C
  C185     1.0000 0.13810  0.27470  0.71930  Biso   1.000  C
  C186     1.0000 0.86190  0.27470  0.78070  Biso   1.000  C
  C187     1.0000 0.63810  0.77470  0.71930  Biso   1.000  C
  C188     1.0000 0.36190  0.77470  0.78070  Biso   1.000  C
  C189     1.0000 0.86190  0.72530  0.28070  Biso   1.000  C
  C190     1.0000 0.13810  0.72530  0.21930  Biso   1.000  C
  C191     1.0000 0.36190  0.22530  0.28070  Biso   1.000  C
  C192     1.0000 0.63810  0.22530  0.21930  Biso   1.000  C
  C193     1.0000 0.11640  0.34180  0.77030  Biso   1.000  C
  C194     1.0000 0.88360  0.34180  0.72970  Biso   1.000  C
  C195     1.0000 0.61640  0.84180  0.77030  Biso   1.000  C
  C196     1.0000 0.38360  0.84180  0.72970  Biso   1.000  C
  C197     1.0000 0.88360  0.65820  0.22970  Biso   1.000  C
  C198     1.0000 0.11640  0.65820  0.27030  Biso   1.000  C
  C199     1.0000 0.38360  0.15820  0.22970  Biso   1.000  C
  C200     1.0000 0.61640  0.15820  0.27030  Biso   1.000  C
  C201     1.0000 0.07010  0.31660  0.76800  Biso   1.000  C
  C202     1.0000 0.92990  0.31660  0.73200  Biso   1.000  C
  C203     1.0000 0.57010  0.81660  0.76800  Biso   1.000  C
  C204     1.0000 0.42990  0.81660  0.73200  Biso   1.000  C
  C205     1.0000 0.92990  0.68340  0.23200  Biso   1.000  C
  C206     1.0000 0.07010  0.68340  0.26800  Biso   1.000  C
  C207     1.0000 0.42990  0.18340  0.23200  Biso   1.000  C
  C208     1.0000 0.57010  0.18340  0.26800  Biso   1.000  C
  C209     1.0000 0.05090  0.21720  0.71300  Biso   1.000  C
  C210     1.0000 0.94910  0.21720  0.78700  Biso   1.000  C
  C211     1.0000 0.55090  0.71720  0.71300  Biso   1.000  C
  C212     1.0000 0.44910  0.71720  0.78700  Biso   1.000  C
  C213     1.0000 0.94910  0.78280  0.28700  Biso   1.000  C
  C214     1.0000 0.05090  0.78280  0.21300  Biso   1.000  C
  C215     1.0000 0.44910  0.28280  0.28700  Biso   1.000  C
  C216     1.0000 0.55090  0.28280  0.21300  Biso   1.000  C
  H177     1.0000 0.12750  0.12780  0.63650  Biso   1.000  H
  H178     1.0000 0.87250  0.12780  0.86350  Biso   1.000  H
  H179     1.0000 0.62750  0.62780  0.63650  Biso   1.000  H
  H180     1.0000 0.37250  0.62780  0.86350  Biso   1.000  H
  H181     1.0000 0.87250  0.87220  0.36350  Biso   1.000  H
  H182     1.0000 0.12750  0.87220  0.13650  Biso   1.000  H
  H183     1.0000 0.37250  0.37220  0.36350  Biso   1.000  H
  H184     1.0000 0.62750  0.37220  0.13650  Biso   1.000  H
  H185     1.0000 0.16690  0.29360  0.71880  Biso   1.000  H
  H186     1.0000 0.83310  0.29360  0.78120  Biso   1.000  H
  H187     1.0000 0.66690  0.79360  0.71880  Biso   1.000  H
  H188     1.0000 0.33310  0.79360  0.78120  Biso   1.000  H
  H189     1.0000 0.83310  0.70640  0.28120  Biso   1.000  H
  H190     1.0000 0.16690  0.70640  0.21880  Biso   1.000  H
  H191     1.0000 0.33310  0.20640  0.28120  Biso   1.000  H
  H192     1.0000 0.66690  0.20640  0.21880  Biso   1.000  H
  H193     1.0000 0.13150  0.40640  0.80820  Biso   1.000  H
  H194     1.0000 0.86850  0.40640  0.69180  Biso   1.000  H
  H195     1.0000 0.63150  0.90640  0.80820  Biso   1.000  H
  H196     1.0000 0.36850  0.90640  0.69180  Biso   1.000  H
  H197     1.0000 0.86850  0.59360  0.19180  Biso   1.000  H
  H198     1.0000 0.13150  0.59360  0.30820  Biso   1.000  H
  H199     1.0000 0.36850  0.09360  0.19180  Biso   1.000  H
  H200     1.0000 0.63150  0.09360  0.30820  Biso   1.000  H
  H201     1.0000 0.05540  0.36510  0.80170  Biso   1.000  H
  H202     1.0000 0.94460  0.36510  0.69830  Biso   1.000  H
  H203     1.0000 0.55540  0.86510  0.80170  Biso   1.000  H
  H204     1.0000 0.44460  0.86510  0.69830  Biso   1.000  H
  H205     1.0000 0.94460  0.63490  0.19830  Biso   1.000  H
  H206     1.0000 0.05540  0.63490  0.30170  Biso   1.000  H
  H207     1.0000 0.44460  0.13490  0.19830  Biso   1.000  H
  H208     1.0000 0.55540  0.13490  0.30170  Biso   1.000  H
  H209     1.0000 0.02180  0.19620  0.70930  Biso   1.000  H
  H210     1.0000 0.97820  0.19620  0.79070  Biso   1.000  H
  H211     1.0000 0.52180  0.69620  0.70930  Biso   1.000  H
  H212     1.0000 0.47820  0.69620  0.79070  Biso   1.000  H
  H213     1.0000 0.97820  0.80380  0.29070  Biso   1.000  H
  H214     1.0000 0.02180  0.80380  0.20930  Biso   1.000  H
  H215     1.0000 0.47820  0.30380  0.29070  Biso   1.000  H
  H216     1.0000 0.52180  0.30380  0.20930  Biso   1.000  H
