data_image0
_cell_length_a       7.989
_cell_length_b       17.815
_cell_length_c       11.932
_cell_angle_alpha    90
_cell_angle_beta     104.66
_cell_angle_gamma    90

_symmetry_space_group_name_H-M    "P 1"
_symmetry_int_tables_number       1

loop_
  _symmetry_equiv_pos_as_xyz
  'x, y, z'

loop_
  _atom_site_label
  _atom_site_occupancy
  _atom_site_fract_x
  _atom_site_fract_y
  _atom_site_fract_z
  _atom_site_thermal_displace_type
  _atom_site_B_iso_or_equiv
  _atom_site_type_symbol
  Cu1      1.0000 0.05640  0.06912  0.50628  Biso   1.000  Cu
  Cu2      1.0000 0.44360  0.56912  0.99372  Biso   1.000  Cu
  Cu3      1.0000 0.94360  0.93088  0.49372  Biso   1.000  Cu
  Cu4      1.0000 0.55640  0.43088  0.00628  Biso   1.000  Cu
  O1       1.0000 0.35250  0.20680  0.71290  Biso   1.000  O
  O2       1.0000 0.14750  0.70680  0.78710  Biso   1.000  O
  O3       1.0000 0.64750  0.79320  0.28710  Biso   1.000  O
  O4       1.0000 0.85250  0.29320  0.21290  Biso   1.000  O
  O5       1.0000 0.38200  0.15690  0.08950  Biso   1.000  O
  O6       1.0000 0.11800  0.65690  0.41050  Biso   1.000  O
  O7       1.0000 0.61800  0.84310  0.91050  Biso   1.000  O
  O8       1.0000 0.88200  0.34310  0.58950  Biso   1.000  O
  O9       1.0000 0.82780  0.09260  0.93950  Biso   1.000  O
  O10      1.0000 0.67220  0.59260  0.56050  Biso   1.000  O
  O11      1.0000 0.17220  0.90740  0.06050  Biso   1.000  O
  O12      1.0000 0.32780  0.40740  0.43950  Biso   1.000  O
  O13      1.0000 0.00500  0.38710  0.90580  Biso   1.000  O
  O14      1.0000 0.49500  0.88710  0.59420  Biso   1.000  O
  O15      1.0000 0.99500  0.61290  0.09420  Biso   1.000  O
  O16      1.0000 0.50500  0.11290  0.40580  Biso   1.000  O
  O17      1.0000 0.87000  0.27610  0.88560  Biso   1.000  O
  O18      1.0000 0.63000  0.77610  0.61440  Biso   1.000  O
  O19      1.0000 0.13000  0.72390  0.11440  Biso   1.000  O
  O20      1.0000 0.37000  0.22390  0.38560  Biso   1.000  O
  O21      1.0000 0.89410  0.07250  0.35150  Biso   1.000  O
  O22      1.0000 0.60590  0.57250  0.14850  Biso   1.000  O
  O23      1.0000 0.10590  0.92750  0.64850  Biso   1.000  O
  O24      1.0000 0.39410  0.42750  0.85150  Biso   1.000  O
  O25      1.0000 0.79090  0.95550  0.34050  Biso   1.000  O
  O26      1.0000 0.70910  0.45550  0.15950  Biso   1.000  O
  O27      1.0000 0.20910  0.04450  0.65950  Biso   1.000  O
  O28      1.0000 0.29090  0.54450  0.84050  Biso   1.000  O
  O29      1.0000 0.87240  0.08640  0.58500  Biso   1.000  O
  O30      1.0000 0.62760  0.58640  0.91500  Biso   1.000  O
  O31      1.0000 0.12760  0.91360  0.41500  Biso   1.000  O
  O32      1.0000 0.37240  0.41360  0.08500  Biso   1.000  O
  O33      1.0000 0.76620  0.96900  0.56840  Biso   1.000  O
  O34      1.0000 0.73380  0.46900  0.93160  Biso   1.000  O
  O35      1.0000 0.23380  0.03100  0.43160  Biso   1.000  O
  O36      1.0000 0.26620  0.53100  0.06840  Biso   1.000  O
  O37      1.0000 0.12480  0.18640  0.50150  Biso   1.000  O
  O38      1.0000 0.37520  0.68640  0.99850  Biso   1.000  O
  O39      1.0000 0.87520  0.81360  0.49850  Biso   1.000  O
  O40      1.0000 0.62480  0.31360  0.00150  Biso   1.000  O
  N1       1.0000 0.35200  0.17090  0.89510  Biso   1.000  N
  N2       1.0000 0.14800  0.67090  0.60490  Biso   1.000  N
  N3       1.0000 0.64800  0.82910  0.10490  Biso   1.000  N
  N4       1.0000 0.85200  0.32910  0.39510  Biso   1.000  N
  N5       1.0000 0.61200  0.12870  0.01720  Biso   1.000  N
  N6       1.0000 0.88800  0.62870  0.48280  Biso   1.000  N
  N7       1.0000 0.38800  0.87130  0.98280  Biso   1.000  N
  N8       1.0000 0.11200  0.37130  0.51720  Biso   1.000  N
  N9       1.0000 0.58860  0.14440  0.82080  Biso   1.000  N
  N10      1.0000 0.91140  0.64440  0.67920  Biso   1.000  N
  N11      1.0000 0.41140  0.85560  0.17920  Biso   1.000  N
  N12      1.0000 0.08860  0.35560  0.32080  Biso   1.000  N
  C1       1.0000 0.42900  0.17700  0.80430  Biso   1.000  C
  C2       1.0000 0.07100  0.67700  0.69570  Biso   1.000  C
  C3       1.0000 0.57100  0.82300  0.19570  Biso   1.000  C
  C4       1.0000 0.92900  0.32300  0.30430  Biso   1.000  C
  C5       1.0000 0.44300  0.15130  0.00780  Biso   1.000  C
  C6       1.0000 0.05700  0.65130  0.49220  Biso   1.000  C
  C7       1.0000 0.55700  0.84870  0.99220  Biso   1.000  C
  C8       1.0000 0.94300  0.34870  0.50780  Biso   1.000  C
  C9       1.0000 0.68700  0.11850  0.92870  Biso   1.000  C
  C10      1.0000 0.81300  0.61850  0.57130  Biso   1.000  C
  C11      1.0000 0.31300  0.88150  0.07130  Biso   1.000  C
  C12      1.0000 0.18700  0.38150  0.42870  Biso   1.000  C
  C13      1.0000 0.17200  0.19790  0.87860  Biso   1.000  C
  C14      1.0000 0.32800  0.69790  0.62140  Biso   1.000  C
  C15      1.0000 0.82800  0.80210  0.12140  Biso   1.000  C
  C16      1.0000 0.67200  0.30210  0.37860  Biso   1.000  C
  H1       1.0000 0.11340  0.16890  0.92630  Biso   1.000  H
  H2       1.0000 0.38660  0.66890  0.57370  Biso   1.000  H
  H3       1.0000 0.88660  0.83110  0.07370  Biso   1.000  H
  H4       1.0000 0.61340  0.33110  0.42630  Biso   1.000  H
  H5       1.0000 0.10830  0.19200  0.79820  Biso   1.000  H
  H6       1.0000 0.39170  0.69200  0.70180  Biso   1.000  H
  H7       1.0000 0.89170  0.80800  0.20180  Biso   1.000  H
  H8       1.0000 0.60830  0.30800  0.29820  Biso   1.000  H
  C17      1.0000 0.17800  0.28080  0.91310  Biso   1.000  C
  C18      1.0000 0.32200  0.78080  0.58690  Biso   1.000  C
  C19      1.0000 0.82200  0.71920  0.08690  Biso   1.000  C
  C20      1.0000 0.67800  0.21920  0.41310  Biso   1.000  C
  H9       1.0000 0.24220  0.28600  0.99330  Biso   1.000  H
  H10      1.0000 0.25780  0.78600  0.50670  Biso   1.000  H
  H11      1.0000 0.75780  0.71400  0.00670  Biso   1.000  H
  H12      1.0000 0.74220  0.21400  0.49330  Biso   1.000  H
  H13      1.0000 0.23740  0.30910  0.86560  Biso   1.000  H
  H14      1.0000 0.26260  0.80910  0.63440  Biso   1.000  H
  H15      1.0000 0.76260  0.69090  0.13440  Biso   1.000  H
  H16      1.0000 0.73740  0.19090  0.36560  Biso   1.000  H
  C21      1.0000 0.00000  0.31220  0.89850  Biso   1.000  C
  C22      1.0000 0.50000  0.81220  0.60150  Biso   1.000  C
  C23      1.0000 0.00000  0.68780  0.10150  Biso   1.000  C
  C24      1.0000 0.50000  0.18780  0.39850  Biso   1.000  C
  C25      1.0000 0.71700  0.11370  0.13580  Biso   1.000  C
  C26      1.0000 0.78300  0.61370  0.36420  Biso   1.000  C
  C27      1.0000 0.28300  0.88630  0.86420  Biso   1.000  C
  C28      1.0000 0.21700  0.38630  0.63580  Biso   1.000  C
  H17      1.0000 0.68550  0.14940  0.18830  Biso   1.000  H
  H18      1.0000 0.81450  0.64940  0.31170  Biso   1.000  H
  H19      1.0000 0.31450  0.85060  0.81170  Biso   1.000  H
  H20      1.0000 0.18550  0.35060  0.68830  Biso   1.000  H
  H21      1.0000 0.83810  0.12190  0.13820  Biso   1.000  H
  H22      1.0000 0.66190  0.62190  0.36180  Biso   1.000  H
  H23      1.0000 0.16190  0.87810  0.86180  Biso   1.000  H
  H24      1.0000 0.33810  0.37810  0.63820  Biso   1.000  H
  C29      1.0000 0.69600  0.03560  0.17780  Biso   1.000  C
  C30      1.0000 0.80400  0.53560  0.32220  Biso   1.000  C
  C31      1.0000 0.30400  0.96440  0.82220  Biso   1.000  C
  C32      1.0000 0.19600  0.46440  0.67780  Biso   1.000  C
  H25      1.0000 0.72930  0.00000  0.12570  Biso   1.000  H
  H26      1.0000 0.77070  0.50000  0.37430  Biso   1.000  H
  H27      1.0000 0.27070  0.00000  0.87430  Biso   1.000  H
  H28      1.0000 0.22930  0.50000  0.62570  Biso   1.000  H
  H29      1.0000 0.57510  0.02730  0.17430  Biso   1.000  H
  H30      1.0000 0.92490  0.52730  0.32570  Biso   1.000  H
  H31      1.0000 0.42490  0.97270  0.82570  Biso   1.000  H
  H32      1.0000 0.07510  0.47270  0.67430  Biso   1.000  H
  C33      1.0000 0.80200  0.02010  0.29950  Biso   1.000  C
  C34      1.0000 0.69800  0.52010  0.20050  Biso   1.000  C
  C35      1.0000 0.19800  0.97990  0.70050  Biso   1.000  C
  C36      1.0000 0.30200  0.47990  0.79950  Biso   1.000  C
  C37      1.0000 0.66700  0.13730  0.72360  Biso   1.000  C
  C38      1.0000 0.83300  0.63730  0.77640  Biso   1.000  C
  C39      1.0000 0.33300  0.86270  0.27640  Biso   1.000  C
  C40      1.0000 0.16700  0.36270  0.22360  Biso   1.000  C
  H33      1.0000 0.78820  0.15090  0.74830  Biso   1.000  H
  H34      1.0000 0.71180  0.65090  0.75170  Biso   1.000  H
  H35      1.0000 0.21180  0.84910  0.25170  Biso   1.000  H
  H36      1.0000 0.28820  0.34910  0.24830  Biso   1.000  H
  H37      1.0000 0.61040  0.17150  0.66250  Biso   1.000  H
  H38      1.0000 0.88960  0.67150  0.83750  Biso   1.000  H
  H39      1.0000 0.38960  0.82850  0.33750  Biso   1.000  H
  H40      1.0000 0.11040  0.32850  0.16250  Biso   1.000  H
  C41      1.0000 0.65000  0.05660  0.67690  Biso   1.000  C
  C42      1.0000 0.85000  0.55660  0.82310  Biso   1.000  C
  C43      1.0000 0.35000  0.94340  0.32310  Biso   1.000  C
  C44      1.0000 0.15000  0.44340  0.17690  Biso   1.000  C
  H41      1.0000 0.66960  0.02210  0.74180  Biso   1.000  H
  H42      1.0000 0.83040  0.52210  0.75820  Biso   1.000  H
  H43      1.0000 0.33040  0.97790  0.25820  Biso   1.000  H
  H44      1.0000 0.16960  0.47790  0.24180  Biso   1.000  H
  H45      1.0000 0.53230  0.04900  0.63080  Biso   1.000  H
  H46      1.0000 0.96770  0.54900  0.86920  Biso   1.000  H
  H47      1.0000 0.46770  0.95100  0.36920  Biso   1.000  H
  H48      1.0000 0.03230  0.45100  0.13080  Biso   1.000  H
  C45      1.0000 0.77200  0.03790  0.60480  Biso   1.000  C
  C46      1.0000 0.72800  0.53790  0.89520  Biso   1.000  C
  C47      1.0000 0.22800  0.96210  0.39520  Biso   1.000  C
  C48      1.0000 0.27200  0.46210  0.10480  Biso   1.000  C
