data_image0
_cell_length_a       19.805
_cell_length_b       8.901
_cell_length_c       16.702
_cell_angle_alpha    90
_cell_angle_beta     103.035
_cell_angle_gamma    90

_symmetry_space_group_name_H-M    "P 1"
_symmetry_int_tables_number       1

loop_
  _symmetry_equiv_pos_as_xyz
  'x, y, z'

loop_
  _atom_site_label
  _atom_site_occupancy
  _atom_site_fract_x
  _atom_site_fract_y
  _atom_site_fract_z
  _atom_site_thermal_displace_type
  _atom_site_B_iso_or_equiv
  _atom_site_type_symbol
  Cu1      1.0000 0.44674  0.44977  0.52705  Biso   1.000  Cu
  Cu2      1.0000 0.55326  0.44977  0.97295  Biso   1.000  Cu
  Cu3      1.0000 0.94674  0.94977  0.52705  Biso   1.000  Cu
  Cu4      1.0000 0.05326  0.94977  0.97295  Biso   1.000  Cu
  Cu5      1.0000 0.55326  0.55023  0.47295  Biso   1.000  Cu
  Cu6      1.0000 0.44674  0.55023  0.02705  Biso   1.000  Cu
  Cu7      1.0000 0.05326  0.05023  0.47295  Biso   1.000  Cu
  Cu8      1.0000 0.94674  0.05023  0.02705  Biso   1.000  Cu
  O1       1.0000 0.23680  0.19720  0.20730  Biso   1.000  O
  O2       1.0000 0.76320  0.19720  0.29270  Biso   1.000  O
  O3       1.0000 0.73680  0.69720  0.20730  Biso   1.000  O
  O4       1.0000 0.26320  0.69720  0.29270  Biso   1.000  O
  O5       1.0000 0.76320  0.80280  0.79270  Biso   1.000  O
  O6       1.0000 0.23680  0.80280  0.70730  Biso   1.000  O
  O7       1.0000 0.26320  0.30280  0.79270  Biso   1.000  O
  O8       1.0000 0.73680  0.30280  0.70730  Biso   1.000  O
  O9       1.0000 0.44948  0.11290  0.15240  Biso   1.000  O
  O10      1.0000 0.55052  0.11290  0.34760  Biso   1.000  O
  O11      1.0000 0.94948  0.61290  0.15240  Biso   1.000  O
  O12      1.0000 0.05052  0.61290  0.34760  Biso   1.000  O
  O13      1.0000 0.55052  0.88710  0.84760  Biso   1.000  O
  O14      1.0000 0.44948  0.88710  0.65240  Biso   1.000  O
  O15      1.0000 0.05052  0.38710  0.84760  Biso   1.000  O
  O16      1.0000 0.94948  0.38710  0.65240  Biso   1.000  O
  O17      1.0000 0.25297  0.02400  0.95680  Biso   1.000  O
  O18      1.0000 0.74703  0.02400  0.54320  Biso   1.000  O
  O19      1.0000 0.75297  0.52400  0.95680  Biso   1.000  O
  O20      1.0000 0.24703  0.52400  0.54320  Biso   1.000  O
  O21      1.0000 0.74703  0.97600  0.04320  Biso   1.000  O
  O22      1.0000 0.25297  0.97600  0.45680  Biso   1.000  O
  O23      1.0000 0.24703  0.47600  0.04320  Biso   1.000  O
  O24      1.0000 0.75297  0.47600  0.45680  Biso   1.000  O
  O25      1.0000 0.40910  0.37760  0.41500  Biso   1.000  O
  O26      1.0000 0.59090  0.37760  0.08500  Biso   1.000  O
  O27      1.0000 0.90910  0.87760  0.41500  Biso   1.000  O
  O28      1.0000 0.09090  0.87760  0.08500  Biso   1.000  O
  O29      1.0000 0.59090  0.62240  0.58500  Biso   1.000  O
  O30      1.0000 0.40910  0.62240  0.91500  Biso   1.000  O
  O31      1.0000 0.09090  0.12240  0.58500  Biso   1.000  O
  O32      1.0000 0.90910  0.12240  0.91500  Biso   1.000  O
  O33      1.0000 0.49796  0.46960  0.36817  Biso   1.000  O
  O34      1.0000 0.50204  0.46960  0.13183  Biso   1.000  O
  O35      1.0000 0.99796  0.96960  0.36817  Biso   1.000  O
  O36      1.0000 0.00204  0.96960  0.13183  Biso   1.000  O
  O37      1.0000 0.50204  0.53040  0.63183  Biso   1.000  O
  O38      1.0000 0.49796  0.53040  0.86817  Biso   1.000  O
  O39      1.0000 0.00204  0.03040  0.63183  Biso   1.000  O
  O40      1.0000 0.99796  0.03040  0.86817  Biso   1.000  O
  O41      1.0000 0.40373  0.35230  0.98994  Biso   1.000  O
  O42      1.0000 0.59627  0.35230  0.51006  Biso   1.000  O
  O43      1.0000 0.90373  0.85230  0.98994  Biso   1.000  O
  O44      1.0000 0.09627  0.85230  0.51006  Biso   1.000  O
  O45      1.0000 0.59627  0.64770  0.01006  Biso   1.000  O
  O46      1.0000 0.40373  0.64770  0.48994  Biso   1.000  O
  O47      1.0000 0.09627  0.14770  0.01006  Biso   1.000  O
  O48      1.0000 0.90373  0.14770  0.48994  Biso   1.000  O
  O49      1.0000 0.49686  0.26760  0.94900  Biso   1.000  O
  O50      1.0000 0.50314  0.26760  0.55100  Biso   1.000  O
  O51      1.0000 0.99686  0.76760  0.94900  Biso   1.000  O
  O52      1.0000 0.00314  0.76760  0.55100  Biso   1.000  O
  O53      1.0000 0.50314  0.73240  0.05100  Biso   1.000  O
  O54      1.0000 0.49686  0.73240  0.44900  Biso   1.000  O
  O55      1.0000 0.00314  0.23240  0.05100  Biso   1.000  O
  O56      1.0000 0.99686  0.23240  0.44900  Biso   1.000  O
  O57      1.0000 0.36451  0.36180  0.57600  Biso   1.000  O
  O58      1.0000 0.63549  0.36180  0.92400  Biso   1.000  O
  O59      1.0000 0.86451  0.86180  0.57600  Biso   1.000  O
  O60      1.0000 0.13549  0.86180  0.92400  Biso   1.000  O
  O61      1.0000 0.63549  0.63820  0.42400  Biso   1.000  O
  O62      1.0000 0.36451  0.63820  0.07600  Biso   1.000  O
  O63      1.0000 0.13549  0.13820  0.42400  Biso   1.000  O
  O64      1.0000 0.86451  0.13820  0.07600  Biso   1.000  O
  O65      1.0000 0.36320  0.82080  0.20730  Biso   1.000  O
  O66      1.0000 0.63680  0.82080  0.29270  Biso   1.000  O
  O67      1.0000 0.86320  0.32080  0.20730  Biso   1.000  O
  O68      1.0000 0.13680  0.32080  0.29270  Biso   1.000  O
  O69      1.0000 0.63680  0.17920  0.79270  Biso   1.000  O
  O70      1.0000 0.36320  0.17920  0.70730  Biso   1.000  O
  O71      1.0000 0.13680  0.67920  0.79270  Biso   1.000  O
  O72      1.0000 0.86320  0.67920  0.70730  Biso   1.000  O
  O73      1.0000 0.50000  0.70970  0.25000  Biso   1.000  O
  O74      1.0000 0.00000  0.20970  0.25000  Biso   1.000  O
  O75      1.0000 0.50000  0.29030  0.75000  Biso   1.000  O
  O76      1.0000 0.00000  0.79030  0.75000  Biso   1.000  O
  N1       1.0000 0.24470  0.10930  0.08250  Biso   1.000  N
  N2       1.0000 0.75530  0.10930  0.41750  Biso   1.000  N
  N3       1.0000 0.74470  0.60930  0.08250  Biso   1.000  N
  N4       1.0000 0.25530  0.60930  0.41750  Biso   1.000  N
  N5       1.0000 0.75530  0.89070  0.91750  Biso   1.000  N
  N6       1.0000 0.24470  0.89070  0.58250  Biso   1.000  N
  N7       1.0000 0.25530  0.39070  0.91750  Biso   1.000  N
  N8       1.0000 0.74470  0.39070  0.58250  Biso   1.000  N
  N9       1.0000 0.34350  0.16100  0.18210  Biso   1.000  N
  N10      1.0000 0.65650  0.16100  0.31790  Biso   1.000  N
  N11      1.0000 0.84350  0.66100  0.18210  Biso   1.000  N
  N12      1.0000 0.15650  0.66100  0.31790  Biso   1.000  N
  N13      1.0000 0.65650  0.83900  0.81790  Biso   1.000  N
  N14      1.0000 0.34350  0.83900  0.68210  Biso   1.000  N
  N15      1.0000 0.15650  0.33900  0.81790  Biso   1.000  N
  N16      1.0000 0.84350  0.33900  0.68210  Biso   1.000  N
  N17      1.0000 0.35200  0.06100  0.05370  Biso   1.000  N
  N18      1.0000 0.64800  0.06100  0.44630  Biso   1.000  N
  N19      1.0000 0.85200  0.56100  0.05370  Biso   1.000  N
  N20      1.0000 0.14800  0.56100  0.44630  Biso   1.000  N
  N21      1.0000 0.64800  0.93900  0.94630  Biso   1.000  N
  N22      1.0000 0.35200  0.93900  0.55370  Biso   1.000  N
  N23      1.0000 0.14800  0.43900  0.94630  Biso   1.000  N
  N24      1.0000 0.85200  0.43900  0.55370  Biso   1.000  N
  C1       1.0000 0.27310  0.15870  0.16130  Biso   1.000  C
  C2       1.0000 0.72690  0.15870  0.33870  Biso   1.000  C
  C3       1.0000 0.77310  0.65870  0.16130  Biso   1.000  C
  C4       1.0000 0.22690  0.65870  0.33870  Biso   1.000  C
  C5       1.0000 0.72690  0.84130  0.83870  Biso   1.000  C
  C6       1.0000 0.27310  0.84130  0.66130  Biso   1.000  C
  C7       1.0000 0.22690  0.34130  0.83870  Biso   1.000  C
  C8       1.0000 0.77310  0.34130  0.66130  Biso   1.000  C
  C9       1.0000 0.38630  0.11090  0.13100  Biso   1.000  C
  C10      1.0000 0.61370  0.11090  0.36900  Biso   1.000  C
  C11      1.0000 0.88630  0.61090  0.13100  Biso   1.000  C
  C12      1.0000 0.11370  0.61090  0.36900  Biso   1.000  C
  C13      1.0000 0.61370  0.88910  0.86900  Biso   1.000  C
  C14      1.0000 0.38630  0.88910  0.63100  Biso   1.000  C
  C15      1.0000 0.11370  0.38910  0.86900  Biso   1.000  C
  C16      1.0000 0.88630  0.38910  0.63100  Biso   1.000  C
  C17      1.0000 0.28160  0.06290  0.02730  Biso   1.000  C
  C18      1.0000 0.71840  0.06290  0.47270  Biso   1.000  C
  C19      1.0000 0.78160  0.56290  0.02730  Biso   1.000  C
  C20      1.0000 0.21840  0.56290  0.47270  Biso   1.000  C
  C21      1.0000 0.71840  0.93710  0.97270  Biso   1.000  C
  C22      1.0000 0.28160  0.93710  0.52730  Biso   1.000  C
  C23      1.0000 0.21840  0.43710  0.97270  Biso   1.000  C
  C24      1.0000 0.78160  0.43710  0.52730  Biso   1.000  C
  C25      1.0000 0.37830  0.20240  0.26670  Biso   1.000  C
  C26      1.0000 0.62170  0.20240  0.23330  Biso   1.000  C
  C27      1.0000 0.87830  0.70240  0.26670  Biso   1.000  C
  C28      1.0000 0.12170  0.70240  0.23330  Biso   1.000  C
  C29      1.0000 0.62170  0.79760  0.73330  Biso   1.000  C
  C30      1.0000 0.37830  0.79760  0.76670  Biso   1.000  C
  C31      1.0000 0.12170  0.29760  0.73330  Biso   1.000  C
  C32      1.0000 0.87830  0.29760  0.76670  Biso   1.000  C
  H1       1.0000 0.41790  0.13730  0.28560  Biso   1.000  H
  H2       1.0000 0.58210  0.13730  0.21440  Biso   1.000  H
  H3       1.0000 0.91790  0.63730  0.28560  Biso   1.000  H
  H4       1.0000 0.08210  0.63730  0.21440  Biso   1.000  H
  H5       1.0000 0.58210  0.86270  0.71440  Biso   1.000  H
  H6       1.0000 0.41790  0.86270  0.78560  Biso   1.000  H
  H7       1.0000 0.08210  0.36270  0.71440  Biso   1.000  H
  H8       1.0000 0.91790  0.36270  0.78560  Biso   1.000  H
  H9       1.0000 0.34650  0.18750  0.30260  Biso   1.000  H
  H10      1.0000 0.65350  0.18750  0.19740  Biso   1.000  H
  H11      1.0000 0.84650  0.68750  0.30260  Biso   1.000  H
  H12      1.0000 0.15350  0.68750  0.19740  Biso   1.000  H
  H13      1.0000 0.65350  0.81250  0.69740  Biso   1.000  H
  H14      1.0000 0.34650  0.81250  0.80260  Biso   1.000  H
  H15      1.0000 0.15350  0.31250  0.69740  Biso   1.000  H
  H16      1.0000 0.84650  0.31250  0.80260  Biso   1.000  H
  C33      1.0000 0.40220  0.36560  0.27210  Biso   1.000  C
  C34      1.0000 0.59780  0.36560  0.22790  Biso   1.000  C
  C35      1.0000 0.90220  0.86560  0.27210  Biso   1.000  C
  C36      1.0000 0.09780  0.86560  0.22790  Biso   1.000  C
  C37      1.0000 0.59780  0.63440  0.72790  Biso   1.000  C
  C38      1.0000 0.40220  0.63440  0.77210  Biso   1.000  C
  C39      1.0000 0.09780  0.13440  0.72790  Biso   1.000  C
  C40      1.0000 0.90220  0.13440  0.77210  Biso   1.000  C
  H17      1.0000 0.43290  0.38140  0.23500  Biso   1.000  H
  H18      1.0000 0.56710  0.38140  0.26500  Biso   1.000  H
  H19      1.0000 0.93290  0.88140  0.23500  Biso   1.000  H
  H20      1.0000 0.06710  0.88140  0.26500  Biso   1.000  H
  H21      1.0000 0.56710  0.61860  0.76500  Biso   1.000  H
  H22      1.0000 0.43290  0.61860  0.73500  Biso   1.000  H
  H23      1.0000 0.06710  0.11860  0.76500  Biso   1.000  H
  H24      1.0000 0.93290  0.11860  0.73500  Biso   1.000  H
  H25      1.0000 0.36240  0.43090  0.25490  Biso   1.000  H
  H26      1.0000 0.63760  0.43090  0.24510  Biso   1.000  H
  H27      1.0000 0.86240  0.93090  0.25490  Biso   1.000  H
  H28      1.0000 0.13760  0.93090  0.24510  Biso   1.000  H
  H29      1.0000 0.63760  0.56910  0.74510  Biso   1.000  H
  H30      1.0000 0.36240  0.56910  0.75490  Biso   1.000  H
  H31      1.0000 0.13760  0.06910  0.74510  Biso   1.000  H
  H32      1.0000 0.86240  0.06910  0.75490  Biso   1.000  H
  C41      1.0000 0.43970  0.40610  0.35840  Biso   1.000  C
  C42      1.0000 0.56030  0.40610  0.14160  Biso   1.000  C
  C43      1.0000 0.93970  0.90610  0.35840  Biso   1.000  C
  C44      1.0000 0.06030  0.90610  0.14160  Biso   1.000  C
  C45      1.0000 0.56030  0.59390  0.64160  Biso   1.000  C
  C46      1.0000 0.43970  0.59390  0.85840  Biso   1.000  C
  C47      1.0000 0.06030  0.09390  0.64160  Biso   1.000  C
  C48      1.0000 0.93970  0.09390  0.85840  Biso   1.000  C
  C49      1.0000 0.39330  0.00080  0.99800  Biso   1.000  C
  C50      1.0000 0.60670  0.00080  0.50200  Biso   1.000  C
  C51      1.0000 0.89330  0.50080  0.99800  Biso   1.000  C
  C52      1.0000 0.10670  0.50080  0.50200  Biso   1.000  C
  C53      1.0000 0.60670  0.99920  0.00200  Biso   1.000  C
  C54      1.0000 0.39330  0.99920  0.49800  Biso   1.000  C
  C55      1.0000 0.10670  0.49920  0.00200  Biso   1.000  C
  C56      1.0000 0.89330  0.49920  0.49800  Biso   1.000  C
  H33      1.0000 0.37270  0.90730  0.97460  Biso   1.000  H
  H34      1.0000 0.62730  0.90730  0.52540  Biso   1.000  H
  H35      1.0000 0.87270  0.40730  0.97460  Biso   1.000  H
  H36      1.0000 0.12730  0.40730  0.52540  Biso   1.000  H
  H37      1.0000 0.62730  0.09270  0.02540  Biso   1.000  H
  H38      1.0000 0.37270  0.09270  0.47460  Biso   1.000  H
  H39      1.0000 0.12730  0.59270  0.02540  Biso   1.000  H
  H40      1.0000 0.87270  0.59270  0.47460  Biso   1.000  H
  H41      1.0000 0.43970  0.97850  0.02960  Biso   1.000  H
  H42      1.0000 0.56030  0.97850  0.47040  Biso   1.000  H
  H43      1.0000 0.93970  0.47850  0.02960  Biso   1.000  H
  H44      1.0000 0.06030  0.47850  0.47040  Biso   1.000  H
  H45      1.0000 0.56030  0.02150  0.97040  Biso   1.000  H
  H46      1.0000 0.43970  0.02150  0.52960  Biso   1.000  H
  H47      1.0000 0.06030  0.52150  0.97040  Biso   1.000  H
  H48      1.0000 0.93970  0.52150  0.52960  Biso   1.000  H
  C57      1.0000 0.39850  0.10850  0.92810  Biso   1.000  C
  C58      1.0000 0.60150  0.10850  0.57190  Biso   1.000  C
  C59      1.0000 0.89850  0.60850  0.92810  Biso   1.000  C
  C60      1.0000 0.10150  0.60850  0.57190  Biso   1.000  C
  C61      1.0000 0.60150  0.89150  0.07190  Biso   1.000  C
  C62      1.0000 0.39850  0.89150  0.42810  Biso   1.000  C
  C63      1.0000 0.10150  0.39150  0.07190  Biso   1.000  C
  C64      1.0000 0.89850  0.39150  0.42810  Biso   1.000  C
  H49      1.0000 0.42240  0.05820  0.89100  Biso   1.000  H
  H50      1.0000 0.57760  0.05820  0.60900  Biso   1.000  H
  H51      1.0000 0.92240  0.55820  0.89100  Biso   1.000  H
  H52      1.0000 0.07760  0.55820  0.60900  Biso   1.000  H
  H53      1.0000 0.57760  0.94180  0.10900  Biso   1.000  H
  H54      1.0000 0.42240  0.94180  0.39100  Biso   1.000  H
  H55      1.0000 0.07760  0.44180  0.10900  Biso   1.000  H
  H56      1.0000 0.92240  0.44180  0.39100  Biso   1.000  H
  H57      1.0000 0.35220  0.13290  0.89730  Biso   1.000  H
  H58      1.0000 0.64780  0.13290  0.60270  Biso   1.000  H
  H59      1.0000 0.85220  0.63290  0.89730  Biso   1.000  H
  H60      1.0000 0.14780  0.63290  0.60270  Biso   1.000  H
  H61      1.0000 0.64780  0.86710  0.10270  Biso   1.000  H
  H62      1.0000 0.35220  0.86710  0.39730  Biso   1.000  H
  H63      1.0000 0.14780  0.36710  0.10270  Biso   1.000  H
  H64      1.0000 0.85220  0.36710  0.39730  Biso   1.000  H
  C65      1.0000 0.43660  0.25350  0.95800  Biso   1.000  C
  C66      1.0000 0.56340  0.25350  0.54200  Biso   1.000  C
  C67      1.0000 0.93660  0.75350  0.95800  Biso   1.000  C
  C68      1.0000 0.06340  0.75350  0.54200  Biso   1.000  C
  C69      1.0000 0.56340  0.74650  0.04200  Biso   1.000  C
  C70      1.0000 0.43660  0.74650  0.45800  Biso   1.000  C
  C71      1.0000 0.06340  0.24650  0.04200  Biso   1.000  C
  C72      1.0000 0.93660  0.24650  0.45800  Biso   1.000  C
  H65      1.0000 0.19600  0.11700  0.06000  Biso   1.000  H
  H66      1.0000 0.80400  0.11700  0.44000  Biso   1.000  H
  H67      1.0000 0.69600  0.61700  0.06000  Biso   1.000  H
  H68      1.0000 0.30400  0.61700  0.44000  Biso   1.000  H
  H69      1.0000 0.80400  0.88300  0.94000  Biso   1.000  H
  H70      1.0000 0.19600  0.88300  0.56000  Biso   1.000  H
  H71      1.0000 0.30400  0.38300  0.94000  Biso   1.000  H
  H72      1.0000 0.69600  0.38300  0.56000  Biso   1.000  H
