data_image0
_cell_length_a       3.5874
_cell_length_b       24.524
_cell_length_c       11.8717
_cell_angle_alpha    90
_cell_angle_beta     95.4
_cell_angle_gamma    90

_symmetry_space_group_name_H-M    "P 1"
_symmetry_int_tables_number       1

loop_
  _symmetry_equiv_pos_as_xyz
  'x, y, z'

loop_
  _atom_site_label
  _atom_site_occupancy
  _atom_site_fract_x
  _atom_site_fract_y
  _atom_site_fract_z
  _atom_site_thermal_displace_type
  _atom_site_B_iso_or_equiv
  _atom_site_type_symbol
  Cu1      1.0000 0.02310  0.11746  0.12323  Biso   1.000  Cu
  Cu2      1.0000 0.97690  0.61746  0.37677  Biso   1.000  Cu
  Cu3      1.0000 0.97690  0.88254  0.87677  Biso   1.000  Cu
  Cu4      1.0000 0.02310  0.38254  0.62323  Biso   1.000  Cu
  Cl1      1.0000 0.54950  0.07600  0.01555  Biso   1.000  Cl
  Cl2      1.0000 0.45050  0.57600  0.48445  Biso   1.000  Cl
  Cl3      1.0000 0.45050  0.92400  0.98445  Biso   1.000  Cl
  Cl4      1.0000 0.54950  0.42400  0.51555  Biso   1.000  Cl
  N1       1.0000 0.40600  0.14540  0.34480  Biso   1.000  N
  N2       1.0000 0.59400  0.64540  0.15520  Biso   1.000  N
  N3       1.0000 0.59400  0.85460  0.65520  Biso   1.000  N
  N4       1.0000 0.40600  0.35460  0.84480  Biso   1.000  N
  N5       1.0000 0.26150  0.16590  0.24770  Biso   1.000  N
  N6       1.0000 0.73850  0.66590  0.25230  Biso   1.000  N
  N7       1.0000 0.73850  0.83410  0.75230  Biso   1.000  N
  N8       1.0000 0.26150  0.33410  0.74770  Biso   1.000  N
  N9       1.0000 0.29010  0.21840  0.23260  Biso   1.000  N
  N10      1.0000 0.70990  0.71840  0.26740  Biso   1.000  N
  N11      1.0000 0.70990  0.78160  0.76740  Biso   1.000  N
  N12      1.0000 0.29010  0.28160  0.73260  Biso   1.000  N
  N13      1.0000 0.24190  0.00780  0.38260  Biso   1.000  N
  N14      1.0000 0.75810  0.50780  0.11740  Biso   1.000  N
  N15      1.0000 0.75810  0.99220  0.61740  Biso   1.000  N
  N16      1.0000 0.24190  0.49220  0.88260  Biso   1.000  N
  N17      1.0000 0.39890  0.05660  0.42700  Biso   1.000  N
  N18      1.0000 0.60110  0.55660  0.07300  Biso   1.000  N
  N19      1.0000 0.60110  0.94340  0.57300  Biso   1.000  N
  N20      1.0000 0.39890  0.44340  0.92700  Biso   1.000  N
  N21      1.0000 0.12330  0.06740  0.24780  Biso   1.000  N
  N22      1.0000 0.87670  0.56740  0.25220  Biso   1.000  N
  N23      1.0000 0.87670  0.93260  0.75220  Biso   1.000  N
  N24      1.0000 0.12330  0.43260  0.74780  Biso   1.000  N
  N25      1.0000 0.91500  0.97630  0.21330  Biso   1.000  N
  N26      1.0000 0.08500  0.47630  0.28670  Biso   1.000  N
  N27      1.0000 0.08500  0.02370  0.78670  Biso   1.000  N
  N28      1.0000 0.91500  0.52370  0.71330  Biso   1.000  N
  N29      1.0000 0.86400  0.26930  0.97980  Biso   1.000  N
  N30      1.0000 0.13600  0.76930  0.52020  Biso   1.000  N
  N31      1.0000 0.13600  0.73070  0.02020  Biso   1.000  N
  N32      1.0000 0.86400  0.23070  0.47980  Biso   1.000  N
  N33      1.0000 0.04870  0.27950  0.08710  Biso   1.000  N
  N34      1.0000 0.95130  0.77950  0.41290  Biso   1.000  N
  N35      1.0000 0.95130  0.72050  0.91290  Biso   1.000  N
  N36      1.0000 0.04870  0.22050  0.58710  Biso   1.000  N
  N37      1.0000 0.97960  0.18930  0.05480  Biso   1.000  N
  N38      1.0000 0.02040  0.68930  0.44520  Biso   1.000  N
  N39      1.0000 0.02040  0.81070  0.94520  Biso   1.000  N
  N40      1.0000 0.97960  0.31070  0.55480  Biso   1.000  N
  N41      1.0000 0.65700  0.19280  0.86950  Biso   1.000  N
  N42      1.0000 0.34300  0.69280  0.63050  Biso   1.000  N
  N43      1.0000 0.34300  0.80720  0.13050  Biso   1.000  N
  N44      1.0000 0.65700  0.30720  0.36950  Biso   1.000  N
  C1       1.0000 0.32000  0.09060  0.34140  Biso   1.000  C
  C2       1.0000 0.68000  0.59060  0.15860  Biso   1.000  C
  C3       1.0000 0.68000  0.90940  0.65860  Biso   1.000  C
  C4       1.0000 0.32000  0.40940  0.84140  Biso   1.000  C
  C5       1.0000 0.08200  0.01520  0.27680  Biso   1.000  C
  C6       1.0000 0.91800  0.51520  0.22320  Biso   1.000  C
  C7       1.0000 0.91800  0.98480  0.72320  Biso   1.000  C
  C8       1.0000 0.08200  0.48480  0.77680  Biso   1.000  C
  C9       1.0000 0.10890  0.22990  0.12670  Biso   1.000  C
  C10      1.0000 0.89110  0.72990  0.37330  Biso   1.000  C
  C11      1.0000 0.89110  0.77010  0.87330  Biso   1.000  C
  C12      1.0000 0.10890  0.27010  0.62670  Biso   1.000  C
  C13      1.0000 0.81600  0.21520  0.96390  Biso   1.000  C
  C14      1.0000 0.18400  0.71520  0.53610  Biso   1.000  C
  C15      1.0000 0.18400  0.78480  0.03610  Biso   1.000  C
  C16      1.0000 0.81600  0.28480  0.46390  Biso   1.000  C
  O1       1.0000 0.10500  0.10880  0.63250  Biso   1.000  O
  O2       1.0000 0.89500  0.60880  0.86750  Biso   1.000  O
  O3       1.0000 0.89500  0.89120  0.36750  Biso   1.000  O
  O4       1.0000 0.10500  0.39120  0.13250  Biso   1.000  O
  O5       1.0000 0.30300  0.11760  0.67580  Biso   1.000  O
  O6       1.0000 0.69700  0.61760  0.82420  Biso   1.000  O
  O7       1.0000 0.69700  0.88240  0.32420  Biso   1.000  O
  O8       1.0000 0.30300  0.38240  0.17580  Biso   1.000  O
  H1       1.0000 0.29000  0.97900  0.41700  Biso   1.000  H
  H2       1.0000 0.71000  0.47900  0.08300  Biso   1.000  H
  H3       1.0000 0.71000  0.02100  0.58300  Biso   1.000  H
  H4       1.0000 0.29000  0.52100  0.91700  Biso   1.000  H
  H5       1.0000 0.83000  0.98300  0.14800  Biso   1.000  H
  H6       1.0000 0.17000  0.48300  0.35200  Biso   1.000  H
  H7       1.0000 0.17000  0.01700  0.85200  Biso   1.000  H
  H8       1.0000 0.83000  0.51700  0.64800  Biso   1.000  H
  H9       1.0000 0.92000  0.94200  0.23600  Biso   1.000  H
  H10      1.0000 0.08000  0.44200  0.26400  Biso   1.000  H
  H11      1.0000 0.08000  0.05800  0.76400  Biso   1.000  H
  H12      1.0000 0.92000  0.55800  0.73600  Biso   1.000  H
  H13      1.0000 0.79000  0.29000  0.95700  Biso   1.000  H
  H14      1.0000 0.21000  0.79000  0.54300  Biso   1.000  H
  H15      1.0000 0.21000  0.71000  0.04300  Biso   1.000  H
  H16      1.0000 0.79000  0.21000  0.45700  Biso   1.000  H
  H17      1.0000 0.64000  0.15800  0.86900  Biso   1.000  H
  H18      1.0000 0.36000  0.65800  0.63100  Biso   1.000  H
  H19      1.0000 0.36000  0.84200  0.13100  Biso   1.000  H
  H20      1.0000 0.64000  0.34200  0.36900  Biso   1.000  H
  H21      1.0000 0.54000  0.21200  0.82000  Biso   1.000  H
  H22      1.0000 0.46000  0.71200  0.68000  Biso   1.000  H
  H23      1.0000 0.46000  0.78800  0.18000  Biso   1.000  H
  H24      1.0000 0.54000  0.28800  0.32000  Biso   1.000  H
  H25      1.0000 0.10000  0.14300  0.60800  Biso   1.000  H
  H26      1.0000 0.90000  0.64300  0.89200  Biso   1.000  H
  H27      1.0000 0.90000  0.85700  0.39200  Biso   1.000  H
  H28      1.0000 0.10000  0.35700  0.10800  Biso   1.000  H
  H29      1.0000 0.18000  0.09300  0.57300  Biso   1.000  H
  H30      1.0000 0.82000  0.59300  0.92700  Biso   1.000  H
  H31      1.0000 0.82000  0.90700  0.42700  Biso   1.000  H
  H32      1.0000 0.18000  0.40700  0.07300  Biso   1.000  H
  H33      1.0000 0.15000  0.14300  0.64600  Biso   1.000  H
  H34      1.0000 0.85000  0.64300  0.85400  Biso   1.000  H
  H35      1.0000 0.85000  0.85700  0.35400  Biso   1.000  H
  H36      1.0000 0.15000  0.35700  0.14600  Biso   1.000  H
  H37      1.0000 0.41000  0.10700  0.61700  Biso   1.000  H
  H38      1.0000 0.59000  0.60700  0.88300  Biso   1.000  H
  H39      1.0000 0.59000  0.89300  0.38300  Biso   1.000  H
  H40      1.0000 0.41000  0.39300  0.11700  Biso   1.000  H
