data_image0
_cell_length_a       4.7736
_cell_length_b       16.5443
_cell_length_c       12.9502
_cell_angle_alpha    90
_cell_angle_beta     95.705
_cell_angle_gamma    90

_symmetry_space_group_name_H-M    "P 1"
_symmetry_int_tables_number       1

loop_
  _symmetry_equiv_pos_as_xyz
  'x, y, z'

loop_
  _atom_site_label
  _atom_site_occupancy
  _atom_site_fract_x
  _atom_site_fract_y
  _atom_site_fract_z
  _atom_site_thermal_displace_type
  _atom_site_B_iso_or_equiv
  _atom_site_type_symbol
  Cu1      1.0000 0.53016  0.22809  0.32811  Biso   1.000  Cu
  Cu2      1.0000 0.96984  0.72809  0.17189  Biso   1.000  Cu
  Cu3      1.0000 0.46984  0.77191  0.67189  Biso   1.000  Cu
  Cu4      1.0000 0.03016  0.27191  0.82811  Biso   1.000  Cu
  O1       1.0000 0.71880  0.31608  0.41343  Biso   1.000  O
  O2       1.0000 0.78120  0.81608  0.08657  Biso   1.000  O
  O3       1.0000 0.28120  0.68392  0.58657  Biso   1.000  O
  O4       1.0000 0.21880  0.18392  0.91343  Biso   1.000  O
  O5       1.0000 0.09430  0.25562  0.36428  Biso   1.000  O
  O6       1.0000 0.40570  0.75562  0.13572  Biso   1.000  O
  O7       1.0000 0.90570  0.74438  0.63572  Biso   1.000  O
  O8       1.0000 0.59430  0.24438  0.86428  Biso   1.000  O
  O9       1.0000 0.47650  0.29438  0.20234  Biso   1.000  O
  O10      1.0000 0.02350  0.79438  0.29766  Biso   1.000  O
  O11      1.0000 0.52350  0.70562  0.79766  Biso   1.000  O
  O12      1.0000 0.97650  0.20562  0.70234  Biso   1.000  O
  O13      1.0000 0.65220  0.36252  0.07647  Biso   1.000  O
  O14      1.0000 0.84780  0.86252  0.42353  Biso   1.000  O
  O15      1.0000 0.34780  0.63748  0.92353  Biso   1.000  O
  O16      1.0000 0.15220  0.13748  0.57647  Biso   1.000  O
  C1       1.0000 0.65200  0.06709  0.39360  Biso   1.000  C
  C2       1.0000 0.84800  0.56709  0.10640  Biso   1.000  C
  C3       1.0000 0.34800  0.93291  0.60640  Biso   1.000  C
  C4       1.0000 0.15200  0.43291  0.89360  Biso   1.000  C
  H1       1.0000 0.62490  0.02450  0.44310  Biso   1.000  H
  H2       1.0000 0.87510  0.52450  0.05690  Biso   1.000  H
  H3       1.0000 0.37510  0.97550  0.55690  Biso   1.000  H
  H4       1.0000 0.12490  0.47550  0.94310  Biso   1.000  H
  H5       1.0000 0.84120  0.06240  0.37290  Biso   1.000  H
  H6       1.0000 0.65880  0.56240  0.12710  Biso   1.000  H
  H7       1.0000 0.15880  0.93760  0.62710  Biso   1.000  H
  H8       1.0000 0.34120  0.43760  0.87290  Biso   1.000  H
  C5       1.0000 0.44020  0.05847  0.30020  Biso   1.000  C
  C6       1.0000 0.05980  0.55847  0.19980  Biso   1.000  C
  C7       1.0000 0.55980  0.94153  0.69980  Biso   1.000  C
  C8       1.0000 0.94020  0.44153  0.80020  Biso   1.000  C
  C9       1.0000 0.31450  0.98728  0.26800  Biso   1.000  C
  C10      1.0000 0.18550  0.48728  0.23200  Biso   1.000  C
  C11      1.0000 0.68550  0.01272  0.73200  Biso   1.000  C
  C12      1.0000 0.81450  0.51272  0.76800  Biso   1.000  C
  H9       1.0000 0.35610  0.93980  0.30480  Biso   1.000  H
  H10      1.0000 0.14390  0.43980  0.19520  Biso   1.000  H
  H11      1.0000 0.64390  0.06020  0.69520  Biso   1.000  H
  H12      1.0000 0.85610  0.56020  0.80480  Biso   1.000  H
  C13      1.0000 0.12410  0.98694  0.17980  Biso   1.000  C
  C14      1.0000 0.37590  0.48694  0.32020  Biso   1.000  C
  C15      1.0000 0.87590  0.01306  0.82020  Biso   1.000  C
  C16      1.0000 0.62410  0.51306  0.67980  Biso   1.000  C
  H13      1.0000 0.03490  0.93940  0.15660  Biso   1.000  H
  H14      1.0000 0.46510  0.43940  0.34340  Biso   1.000  H
  H15      1.0000 0.96510  0.06060  0.84340  Biso   1.000  H
  H16      1.0000 0.53490  0.56060  0.65660  Biso   1.000  H
  C17      1.0000 0.07000  0.05831  0.12720  Biso   1.000  C
  C18      1.0000 0.43000  0.55831  0.37280  Biso   1.000  C
  C19      1.0000 0.93000  0.94169  0.87280  Biso   1.000  C
  C20      1.0000 0.57000  0.44169  0.62720  Biso   1.000  C
  H17      1.0000 0.94580  0.05940  0.06720  Biso   1.000  H
  H18      1.0000 0.55420  0.55940  0.43280  Biso   1.000  H
  H19      1.0000 0.05420  0.94060  0.93280  Biso   1.000  H
  H20      1.0000 0.44580  0.44060  0.56720  Biso   1.000  H
  C21      1.0000 0.20060  0.12792  0.16400  Biso   1.000  C
  C22      1.0000 0.29940  0.62792  0.33600  Biso   1.000  C
  C23      1.0000 0.79940  0.87208  0.83600  Biso   1.000  C
  C24      1.0000 0.70060  0.37208  0.66400  Biso   1.000  C
  H21      1.0000 0.16170  0.17610  0.12850  Biso   1.000  H
  H22      1.0000 0.33830  0.67610  0.37150  Biso   1.000  H
  H23      1.0000 0.83830  0.82390  0.87150  Biso   1.000  H
  H24      1.0000 0.66170  0.32390  0.62850  Biso   1.000  H
  C25      1.0000 0.98180  0.30699  0.41320  Biso   1.000  C
  C26      1.0000 0.51820  0.80699  0.08680  Biso   1.000  C
  C27      1.0000 0.01820  0.69301  0.58680  Biso   1.000  C
  C28      1.0000 0.48180  0.19301  0.91320  Biso   1.000  C
  H25      1.0000 0.09820  0.34230  0.45360  Biso   1.000  H
  H26      1.0000 0.40180  0.84230  0.04640  Biso   1.000  H
  H27      1.0000 0.90180  0.65770  0.54640  Biso   1.000  H
  H28      1.0000 0.59820  0.15770  0.95360  Biso   1.000  H
  C29      1.0000 0.67330  0.32199  0.15636  Biso   1.000  C
  C30      1.0000 0.82670  0.82199  0.34364  Biso   1.000  C
  C31      1.0000 0.32670  0.67801  0.84364  Biso   1.000  C
  C32      1.0000 0.17330  0.17801  0.65636  Biso   1.000  C
  H29      1.0000 0.85500  0.31070  0.18560  Biso   1.000  H
  H30      1.0000 0.64500  0.81070  0.31440  Biso   1.000  H
  H31      1.0000 0.14500  0.68930  0.81440  Biso   1.000  H
  H32      1.0000 0.35500  0.18930  0.68560  Biso   1.000  H
  N1       1.0000 0.61570  0.14651  0.44154  Biso   1.000  N
  N2       1.0000 0.88430  0.64651  0.05846  Biso   1.000  N
  N3       1.0000 0.38430  0.85349  0.55846  Biso   1.000  N
  N4       1.0000 0.11570  0.35349  0.94154  Biso   1.000  N
  H33      1.0000 0.75910  0.16020  0.48180  Biso   1.000  H
  H34      1.0000 0.74090  0.66020  0.01820  Biso   1.000  H
  H35      1.0000 0.24090  0.83980  0.51820  Biso   1.000  H
  H36      1.0000 0.25910  0.33980  0.98180  Biso   1.000  H
  H37      1.0000 0.47200  0.14670  0.48430  Biso   1.000  H
  H38      1.0000 0.02800  0.64670  0.01570  Biso   1.000  H
  H39      1.0000 0.52800  0.85330  0.51570  Biso   1.000  H
  H40      1.0000 0.97200  0.35330  0.98430  Biso   1.000  H
  N5       1.0000 0.38300  0.12838  0.24998  Biso   1.000  N
  N6       1.0000 0.11700  0.62838  0.25002  Biso   1.000  N
  N7       1.0000 0.61700  0.87162  0.75002  Biso   1.000  N
  N8       1.0000 0.88300  0.37162  0.74998  Biso   1.000  N
