data_image0
_cell_length_a       11.806
_cell_length_b       22.856
_cell_length_c       7.101
_cell_angle_alpha    90
_cell_angle_beta     106.7
_cell_angle_gamma    90

_symmetry_space_group_name_H-M    "P 1"
_symmetry_int_tables_number       1

loop_
  _symmetry_equiv_pos_as_xyz
  'x, y, z'

loop_
  _atom_site_label
  _atom_site_occupancy
  _atom_site_fract_x
  _atom_site_fract_y
  _atom_site_fract_z
  _atom_site_thermal_displace_type
  _atom_site_B_iso_or_equiv
  _atom_site_type_symbol
  N1       1.0000 0.92390  0.44030  0.78820  Biso   1.000  N
  N2       1.0000 0.57610  0.94030  0.71180  Biso   1.000  N
  N3       1.0000 0.07610  0.55970  0.21180  Biso   1.000  N
  N4       1.0000 0.42390  0.05970  0.28820  Biso   1.000  N
  N5       1.0000 0.57760  0.63550  0.89200  Biso   1.000  N
  N6       1.0000 0.92240  0.13550  0.60800  Biso   1.000  N
  N7       1.0000 0.42240  0.36450  0.10800  Biso   1.000  N
  N8       1.0000 0.07760  0.86450  0.39200  Biso   1.000  N
  N9       1.0000 0.49670  0.59870  0.13210  Biso   1.000  N
  N10      1.0000 0.00330  0.09870  0.36790  Biso   1.000  N
  N11      1.0000 0.50330  0.40130  0.86790  Biso   1.000  N
  N12      1.0000 0.99670  0.90130  0.63210  Biso   1.000  N
  O1       1.0000 0.84830  0.51200  0.05080  Biso   1.000  O
  O2       1.0000 0.65170  0.01200  0.44920  Biso   1.000  O
  O3       1.0000 0.15170  0.48800  0.94920  Biso   1.000  O
  O4       1.0000 0.34830  0.98800  0.55080  Biso   1.000  O
  O5       1.0000 0.77860  0.58890  0.86550  Biso   1.000  O
  O6       1.0000 0.72140  0.08890  0.63450  Biso   1.000  O
  O7       1.0000 0.22140  0.41110  0.13450  Biso   1.000  O
  O8       1.0000 0.27860  0.91110  0.36550  Biso   1.000  O
  O9       1.0000 0.95780  0.57140  0.70770  Biso   1.000  O
  O10      1.0000 0.54220  0.07140  0.79230  Biso   1.000  O
  O11      1.0000 0.04220  0.42860  0.29230  Biso   1.000  O
  O12      1.0000 0.45780  0.92860  0.20770  Biso   1.000  O
  F1       1.0000 0.28390  0.76330  0.11400  Biso   1.000  F
  F2       1.0000 0.21610  0.26330  0.38600  Biso   1.000  F
  F3       1.0000 0.71610  0.23670  0.88600  Biso   1.000  F
  F4       1.0000 0.78390  0.73670  0.61400  Biso   1.000  F
  F5       1.0000 0.15800  0.75440  0.84060  Biso   1.000  F
  F6       1.0000 0.34200  0.25440  0.65940  Biso   1.000  F
  F7       1.0000 0.84200  0.24560  0.15940  Biso   1.000  F
  F8       1.0000 0.65800  0.74560  0.34060  Biso   1.000  F
  F9       1.0000 0.24760  0.83080  0.92490  Biso   1.000  F
  F10      1.0000 0.25240  0.33080  0.57510  Biso   1.000  F
  F11      1.0000 0.75240  0.16920  0.07510  Biso   1.000  F
  F12      1.0000 0.74760  0.66920  0.42490  Biso   1.000  F
  C1       1.0000 0.03030  0.56920  0.36410  Biso   1.000  C
  C2       1.0000 0.46970  0.06920  0.13590  Biso   1.000  C
  C3       1.0000 0.96970  0.43080  0.63590  Biso   1.000  C
  C4       1.0000 0.53030  0.93080  0.86410  Biso   1.000  C
  C5       1.0000 0.07990  0.60920  0.51270  Biso   1.000  C
  C6       1.0000 0.42010  0.10920  0.98730  Biso   1.000  C
  C7       1.0000 0.92010  0.39080  0.48730  Biso   1.000  C
  C8       1.0000 0.57990  0.89080  0.01270  Biso   1.000  C
  C9       1.0000 0.17950  0.64100  0.50330  Biso   1.000  C
  C10      1.0000 0.32050  0.14100  0.99670  Biso   1.000  C
  C11      1.0000 0.82050  0.35900  0.49670  Biso   1.000  C
  C12      1.0000 0.67950  0.85900  0.00330  Biso   1.000  C
  C13      1.0000 0.22540  0.63110  0.34500  Biso   1.000  C
  C14      1.0000 0.27460  0.13110  0.15500  Biso   1.000  C
  C15      1.0000 0.77460  0.36890  0.65500  Biso   1.000  C
  C16      1.0000 0.72540  0.86890  0.84500  Biso   1.000  C
  C17      1.0000 0.17270  0.59060  0.20180  Biso   1.000  C
  C18      1.0000 0.32730  0.09060  0.29820  Biso   1.000  C
  C19      1.0000 0.82730  0.40940  0.79820  Biso   1.000  C
  C20      1.0000 0.67270  0.90940  0.70180  Biso   1.000  C
  C21      1.0000 0.02770  0.62020  0.68270  Biso   1.000  C
  C22      1.0000 0.47230  0.12020  0.81730  Biso   1.000  C
  C23      1.0000 0.97230  0.37980  0.31730  Biso   1.000  C
  C24      1.0000 0.52770  0.87980  0.18270  Biso   1.000  C
  C25      1.0000 0.77330  0.55170  0.99230  Biso   1.000  C
  C26      1.0000 0.72670  0.05170  0.50770  Biso   1.000  C
  C27      1.0000 0.22670  0.44830  0.00770  Biso   1.000  C
  C28      1.0000 0.27330  0.94830  0.49230  Biso   1.000  C
  C29      1.0000 0.67710  0.55510  0.08900  Biso   1.000  C
  C30      1.0000 0.82290  0.05510  0.41100  Biso   1.000  C
  C31      1.0000 0.32290  0.44490  0.91100  Biso   1.000  C
  C32      1.0000 0.17710  0.94490  0.58900  Biso   1.000  C
  C33      1.0000 0.68160  0.51540  0.23880  Biso   1.000  C
  C34      1.0000 0.81840  0.01540  0.26120  Biso   1.000  C
  C35      1.0000 0.31840  0.48460  0.76120  Biso   1.000  C
  C36      1.0000 0.18160  0.98460  0.73880  Biso   1.000  C
  C37      1.0000 0.59710  0.51870  0.34710  Biso   1.000  C
  C38      1.0000 0.90290  0.01870  0.15290  Biso   1.000  C
  C39      1.0000 0.40290  0.48130  0.65290  Biso   1.000  C
  C40      1.0000 0.09710  0.98130  0.84710  Biso   1.000  C
  C41      1.0000 0.50700  0.56130  0.27940  Biso   1.000  C
  C42      1.0000 0.99300  0.06130  0.22060  Biso   1.000  C
  C43      1.0000 0.49300  0.43870  0.72060  Biso   1.000  C
  C44      1.0000 0.00700  0.93870  0.77940  Biso   1.000  C
  C45      1.0000 0.58400  0.59700  0.04090  Biso   1.000  C
  C46      1.0000 0.91600  0.09700  0.45910  Biso   1.000  C
  C47      1.0000 0.41600  0.40300  0.95910  Biso   1.000  C
  C48      1.0000 0.08400  0.90300  0.54090  Biso   1.000  C
  C49      1.0000 0.50270  0.68280  0.82710  Biso   1.000  C
  C50      1.0000 0.99730  0.18280  0.67290  Biso   1.000  C
  C51      1.0000 0.49730  0.31720  0.17290  Biso   1.000  C
  C52      1.0000 0.00270  0.81720  0.32710  Biso   1.000  C
  C53      1.0000 0.41980  0.70450  0.92110  Biso   1.000  C
  C54      1.0000 0.08020  0.20450  0.57890  Biso   1.000  C
  C55      1.0000 0.58020  0.29550  0.07890  Biso   1.000  C
  C56      1.0000 0.91980  0.79550  0.42110  Biso   1.000  C
  C57      1.0000 0.35310  0.75310  0.83880  Biso   1.000  C
  C58      1.0000 0.14690  0.25310  0.66120  Biso   1.000  C
  C59      1.0000 0.64690  0.24690  0.16120  Biso   1.000  C
  C60      1.0000 0.85310  0.74690  0.33880  Biso   1.000  C
  C61      1.0000 0.36470  0.78180  0.67260  Biso   1.000  C
  C62      1.0000 0.13530  0.28180  0.82740  Biso   1.000  C
  C63      1.0000 0.63530  0.21820  0.32740  Biso   1.000  C
  C64      1.0000 0.86470  0.71820  0.17260  Biso   1.000  C
  C65      1.0000 0.44770  0.76020  0.57840  Biso   1.000  C
  C66      1.0000 0.05230  0.26020  0.92160  Biso   1.000  C
  C67      1.0000 0.55230  0.23980  0.42160  Biso   1.000  C
  C68      1.0000 0.94770  0.73980  0.07840  Biso   1.000  C
  C69      1.0000 0.51210  0.71040  0.65270  Biso   1.000  C
  C70      1.0000 0.98790  0.21040  0.84730  Biso   1.000  C
  C71      1.0000 0.48790  0.28960  0.34730  Biso   1.000  C
  C72      1.0000 0.01210  0.78960  0.15270  Biso   1.000  C
  C73      1.0000 0.26120  0.77300  0.92860  Biso   1.000  C
  C74      1.0000 0.23880  0.27300  0.57140  Biso   1.000  C
  C75      1.0000 0.73880  0.22700  0.07140  Biso   1.000  C
  C76      1.0000 0.76120  0.72700  0.42860  Biso   1.000  C
  Cu1      1.0000 0.00000  0.50000  0.00000  Biso   1.000  Cu
  Cu2      1.0000 0.50000  0.00000  0.50000  Biso   1.000  Cu
  H1       1.0000 0.04090  0.45370  0.62890  Biso   1.000  H
  H2       1.0000 0.45910  0.95370  0.87110  Biso   1.000  H
  H3       1.0000 0.95910  0.54630  0.37110  Biso   1.000  H
  H4       1.0000 0.54090  0.04630  0.12890  Biso   1.000  H
  H5       1.0000 0.21580  0.67000  0.60780  Biso   1.000  H
  H6       1.0000 0.28420  0.17000  0.89220  Biso   1.000  H
  H7       1.0000 0.78420  0.33000  0.39220  Biso   1.000  H
  H8       1.0000 0.71580  0.83000  0.10780  Biso   1.000  H
  H9       1.0000 0.29640  0.65360  0.33490  Biso   1.000  H
  H10      1.0000 0.20360  0.15360  0.16510  Biso   1.000  H
  H11      1.0000 0.70360  0.34640  0.66510  Biso   1.000  H
  H12      1.0000 0.79640  0.84640  0.83490  Biso   1.000  H
  H13      1.0000 0.20710  0.58350  0.09020  Biso   1.000  H
  H14      1.0000 0.29290  0.08350  0.40980  Biso   1.000  H
  H15      1.0000 0.79290  0.41650  0.90980  Biso   1.000  H
  H16      1.0000 0.70710  0.91650  0.59020  Biso   1.000  H
  H17      1.0000 0.89570  0.37900  0.19940  Biso   1.000  H
  H18      1.0000 0.60430  0.87900  0.30060  Biso   1.000  H
  H19      1.0000 0.10430  0.62100  0.80060  Biso   1.000  H
  H20      1.0000 0.39570  0.12100  0.69940  Biso   1.000  H
  H21      1.0000 0.01900  0.33870  0.34190  Biso   1.000  H
  H22      1.0000 0.48100  0.83870  0.15810  Biso   1.000  H
  H23      1.0000 0.98100  0.66130  0.65810  Biso   1.000  H
  H24      1.0000 0.51900  0.16130  0.84190  Biso   1.000  H
  H25      1.0000 0.11720  0.42520  0.27940  Biso   1.000  H
  H26      1.0000 0.38280  0.92520  0.22060  Biso   1.000  H
  H27      1.0000 0.88280  0.57480  0.72060  Biso   1.000  H
  H28      1.0000 0.61720  0.07480  0.77940  Biso   1.000  H
  H29      1.0000 0.74270  0.48410  0.27090  Biso   1.000  H
  H30      1.0000 0.75730  0.98410  0.22910  Biso   1.000  H
  H31      1.0000 0.25730  0.51590  0.72910  Biso   1.000  H
  H32      1.0000 0.24270  0.01590  0.77090  Biso   1.000  H
  H33      1.0000 0.60140  0.49280  0.46210  Biso   1.000  H
  H34      1.0000 0.89860  0.99280  0.03790  Biso   1.000  H
  H35      1.0000 0.39860  0.50720  0.53790  Biso   1.000  H
  H36      1.0000 0.10140  0.00720  0.96210  Biso   1.000  H
  H37      1.0000 0.44450  0.56420  0.34710  Biso   1.000  H
  H38      1.0000 0.05550  0.06420  0.15290  Biso   1.000  H
  H39      1.0000 0.55550  0.43580  0.65290  Biso   1.000  H
  H40      1.0000 0.94450  0.93580  0.84710  Biso   1.000  H
  H41      1.0000 0.41170  0.68590  0.04340  Biso   1.000  H
  H42      1.0000 0.08830  0.18590  0.45660  Biso   1.000  H
  H43      1.0000 0.58830  0.31410  0.95660  Biso   1.000  H
  H44      1.0000 0.91170  0.81410  0.54340  Biso   1.000  H
  H45      1.0000 0.33670  0.81770  0.62030  Biso   1.000  H
  H46      1.0000 0.16330  0.31770  0.87970  Biso   1.000  H
  H47      1.0000 0.66330  0.18230  0.37970  Biso   1.000  H
  H48      1.0000 0.83670  0.68230  0.12030  Biso   1.000  H
  H49      1.0000 0.45800  0.78000  0.45890  Biso   1.000  H
  H50      1.0000 0.04200  0.28000  0.04110  Biso   1.000  H
  H51      1.0000 0.54200  0.22000  0.54110  Biso   1.000  H
  H52      1.0000 0.95800  0.72000  0.95890  Biso   1.000  H
  H53      1.0000 0.56850  0.69410  0.58500  Biso   1.000  H
  H54      1.0000 0.93150  0.19410  0.91500  Biso   1.000  H
  H55      1.0000 0.43150  0.30590  0.41500  Biso   1.000  H
  H56      1.0000 0.06850  0.80590  0.08500  Biso   1.000  H
  H57      1.0000 0.63590  0.62810  0.81690  Biso   1.000  H
  H58      1.0000 0.86410  0.12810  0.68310  Biso   1.000  H
  H59      1.0000 0.36410  0.37190  0.18310  Biso   1.000  H
  H60      1.0000 0.13590  0.87190  0.31690  Biso   1.000  H
