data_image0
_cell_length_a       15.116
_cell_length_b       11.177
_cell_length_c       20.068
_cell_angle_alpha    90
_cell_angle_beta     110.649
_cell_angle_gamma    90

_symmetry_space_group_name_H-M    "P 1"
_symmetry_int_tables_number       1

loop_
  _symmetry_equiv_pos_as_xyz
  'x, y, z'

loop_
  _atom_site_label
  _atom_site_occupancy
  _atom_site_fract_x
  _atom_site_fract_y
  _atom_site_fract_z
  _atom_site_thermal_displace_type
  _atom_site_B_iso_or_equiv
  _atom_site_type_symbol
  Cu1      1.0000 0.49297  0.10343  0.09301  Biso   1.000  Cu
  Cu2      1.0000 0.50703  0.60343  0.40699  Biso   1.000  Cu
  Cu3      1.0000 0.50703  0.89657  0.90699  Biso   1.000  Cu
  Cu4      1.0000 0.49297  0.39657  0.59301  Biso   1.000  Cu
  O1       1.0000 0.48670  0.05140  0.18480  Biso   1.000  O
  O2       1.0000 0.51330  0.55140  0.31520  Biso   1.000  O
  O3       1.0000 0.51330  0.94860  0.81520  Biso   1.000  O
  O4       1.0000 0.48670  0.44860  0.68480  Biso   1.000  O
  O5       1.0000 0.45040  0.24300  0.19090  Biso   1.000  O
  O6       1.0000 0.54960  0.74300  0.30910  Biso   1.000  O
  O7       1.0000 0.54960  0.75700  0.80910  Biso   1.000  O
  O8       1.0000 0.45040  0.25700  0.69090  Biso   1.000  O
  O9       1.0000 0.47090  0.41300  0.42910  Biso   1.000  O
  O10      1.0000 0.52910  0.91300  0.07090  Biso   1.000  O
  O11      1.0000 0.52910  0.58700  0.57090  Biso   1.000  O
  O12      1.0000 0.47090  0.08700  0.92910  Biso   1.000  O
  O13      1.0000 0.50140  0.28580  0.52044  Biso   1.000  O
  O14      1.0000 0.49860  0.78580  0.97956  Biso   1.000  O
  O15      1.0000 0.49860  0.71420  0.47956  Biso   1.000  O
  O16      1.0000 0.50140  0.21420  0.02044  Biso   1.000  O
  N1       1.0000 0.63440  0.12740  0.14400  Biso   1.000  N
  N2       1.0000 0.36560  0.62740  0.35600  Biso   1.000  N
  N3       1.0000 0.36560  0.87260  0.85600  Biso   1.000  N
  N4       1.0000 0.63440  0.37260  0.64400  Biso   1.000  N
  N5       1.0000 0.13040  0.02030  0.38980  Biso   1.000  N
  N6       1.0000 0.86960  0.52030  0.11020  Biso   1.000  N
  N7       1.0000 0.86960  0.97970  0.61020  Biso   1.000  N
  N8       1.0000 0.13040  0.47970  0.88980  Biso   1.000  N
  N9       1.0000 0.35250  0.08630  0.04310  Biso   1.000  N
  N10      1.0000 0.64750  0.58630  0.45690  Biso   1.000  N
  N11      1.0000 0.64750  0.91370  0.95690  Biso   1.000  N
  N12      1.0000 0.35250  0.41370  0.54310  Biso   1.000  N
  N13      1.0000 0.83480  0.23900  0.89020  Biso   1.000  N
  N14      1.0000 0.16520  0.73900  0.60980  Biso   1.000  N
  N15      1.0000 0.16520  0.76100  0.10980  Biso   1.000  N
  N16      1.0000 0.83480  0.26100  0.39020  Biso   1.000  N
  C1       1.0000 0.77870  0.23910  0.17380  Biso   1.000  C
  C2       1.0000 0.22130  0.73910  0.32620  Biso   1.000  C
  C3       1.0000 0.22130  0.76090  0.82620  Biso   1.000  C
  C4       1.0000 0.77870  0.26090  0.67380  Biso   1.000  C
  H1       1.0000 0.80790  0.31020  0.16910  Biso   1.000  H
  H2       1.0000 0.19210  0.81020  0.33090  Biso   1.000  H
  H3       1.0000 0.19210  0.68980  0.83090  Biso   1.000  H
  H4       1.0000 0.80790  0.18980  0.66910  Biso   1.000  H
  C5       1.0000 0.68180  0.22520  0.13990  Biso   1.000  C
  C6       1.0000 0.31820  0.72520  0.36010  Biso   1.000  C
  C7       1.0000 0.31820  0.77480  0.86010  Biso   1.000  C
  C8       1.0000 0.68180  0.27480  0.63990  Biso   1.000  C
  H5       1.0000 0.64800  0.28850  0.11250  Biso   1.000  H
  H6       1.0000 0.35200  0.78850  0.38750  Biso   1.000  H
  H7       1.0000 0.35200  0.71150  0.88750  Biso   1.000  H
  H8       1.0000 0.64800  0.21150  0.61250  Biso   1.000  H
  C9       1.0000 0.68510  0.04070  0.18660  Biso   1.000  C
  C10      1.0000 0.31490  0.54070  0.31340  Biso   1.000  C
  C11      1.0000 0.31490  0.95930  0.81340  Biso   1.000  C
  C12      1.0000 0.68510  0.45930  0.68660  Biso   1.000  C
  H9       1.0000 0.65330  0.97350  0.19370  Biso   1.000  H
  H10      1.0000 0.34670  0.47350  0.30630  Biso   1.000  H
  H11      1.0000 0.34670  0.02650  0.80630  Biso   1.000  H
  H12      1.0000 0.65330  0.52650  0.69370  Biso   1.000  H
  C13      1.0000 0.78130  0.04570  0.22020  Biso   1.000  C
  C14      1.0000 0.21870  0.54570  0.27980  Biso   1.000  C
  C15      1.0000 0.21870  0.95430  0.77980  Biso   1.000  C
  C16      1.0000 0.78130  0.45430  0.72020  Biso   1.000  C
  H13      1.0000 0.81310  0.98080  0.24710  Biso   1.000  H
  H14      1.0000 0.18690  0.48080  0.25290  Biso   1.000  H
  H15      1.0000 0.18690  0.01920  0.75290  Biso   1.000  H
  H16      1.0000 0.81310  0.51920  0.74710  Biso   1.000  H
  C17      1.0000 0.83160  0.14660  0.21460  Biso   1.000  C
  C18      1.0000 0.16840  0.64660  0.28540  Biso   1.000  C
  C19      1.0000 0.16840  0.85340  0.78540  Biso   1.000  C
  C20      1.0000 0.83160  0.35340  0.71460  Biso   1.000  C
  C21      1.0000 0.93560  0.15750  0.24910  Biso   1.000  C
  C22      1.0000 0.06440  0.65750  0.25090  Biso   1.000  C
  C23      1.0000 0.06440  0.84250  0.75090  Biso   1.000  C
  C24      1.0000 0.93560  0.34250  0.74910  Biso   1.000  C
  H17      1.0000 0.96480  0.22010  0.23440  Biso   1.000  H
  H18      1.0000 0.03520  0.72010  0.26560  Biso   1.000  H
  H19      1.0000 0.03520  0.77990  0.76560  Biso   1.000  H
  H20      1.0000 0.96480  0.27990  0.73440  Biso   1.000  H
  C25      1.0000 0.98980  0.08650  0.29860  Biso   1.000  C
  C26      1.0000 0.01020  0.58650  0.20140  Biso   1.000  C
  C27      1.0000 0.01020  0.91350  0.70140  Biso   1.000  C
  C28      1.0000 0.98980  0.41350  0.79860  Biso   1.000  C
  H21      1.0000 0.96020  0.02320  0.31230  Biso   1.000  H
  H22      1.0000 0.03980  0.52320  0.18770  Biso   1.000  H
  H23      1.0000 0.03980  0.97680  0.68770  Biso   1.000  H
  H24      1.0000 0.96020  0.47680  0.81230  Biso   1.000  H
  C29      1.0000 0.09260  0.09650  0.33470  Biso   1.000  C
  C30      1.0000 0.90740  0.59650  0.16530  Biso   1.000  C
  C31      1.0000 0.90740  0.90350  0.66530  Biso   1.000  C
  C32      1.0000 0.09260  0.40350  0.83470  Biso   1.000  C
  C33      1.0000 0.22450  0.02740  0.42480  Biso   1.000  C
  C34      1.0000 0.77550  0.52740  0.07520  Biso   1.000  C
  C35      1.0000 0.77550  0.97260  0.57520  Biso   1.000  C
  C36      1.0000 0.22450  0.47260  0.92480  Biso   1.000  C
  H25      1.0000 0.25140  0.97660  0.46340  Biso   1.000  H
  H26      1.0000 0.74860  0.47660  0.03660  Biso   1.000  H
  H27      1.0000 0.74860  0.02340  0.53660  Biso   1.000  H
  H28      1.0000 0.25140  0.52340  0.96340  Biso   1.000  H
  C37      1.0000 0.28090  0.10250  0.40760  Biso   1.000  C
  C38      1.0000 0.71910  0.60250  0.09240  Biso   1.000  C
  C39      1.0000 0.71910  0.89750  0.59240  Biso   1.000  C
  C40      1.0000 0.28090  0.39750  0.90760  Biso   1.000  C
  H29      1.0000 0.34500  0.10530  0.43480  Biso   1.000  H
  H30      1.0000 0.65500  0.60530  0.06520  Biso   1.000  H
  H31      1.0000 0.65500  0.89470  0.56520  Biso   1.000  H
  H32      1.0000 0.34500  0.39470  0.93480  Biso   1.000  H
  C41      1.0000 0.24430  0.17640  0.34930  Biso   1.000  C
  C42      1.0000 0.75570  0.67640  0.15070  Biso   1.000  C
  C43      1.0000 0.75570  0.82360  0.65070  Biso   1.000  C
  C44      1.0000 0.24430  0.32360  0.84930  Biso   1.000  C
  H33      1.0000 0.28330  0.22620  0.33460  Biso   1.000  H
  H34      1.0000 0.71670  0.72620  0.16540  Biso   1.000  H
  H35      1.0000 0.71670  0.77380  0.66540  Biso   1.000  H
  H36      1.0000 0.28330  0.27380  0.83460  Biso   1.000  H
  C45      1.0000 0.14660  0.17370  0.31280  Biso   1.000  C
  C46      1.0000 0.85340  0.67370  0.18720  Biso   1.000  C
  C47      1.0000 0.85340  0.82630  0.68720  Biso   1.000  C
  C48      1.0000 0.14660  0.32630  0.81280  Biso   1.000  C
  H37      1.0000 0.11890  0.22400  0.27420  Biso   1.000  H
  H38      1.0000 0.88110  0.72400  0.22580  Biso   1.000  H
  H39      1.0000 0.88110  0.77600  0.72580  Biso   1.000  H
  H40      1.0000 0.11890  0.27600  0.77420  Biso   1.000  H
  C49      1.0000 0.21250  0.97950  0.97430  Biso   1.000  C
  C50      1.0000 0.78750  0.47950  0.52570  Biso   1.000  C
  C51      1.0000 0.78750  0.02050  0.02570  Biso   1.000  C
  C52      1.0000 0.21250  0.52050  0.47430  Biso   1.000  C
  H41      1.0000 0.18690  0.90760  0.95270  Biso   1.000  H
  H42      1.0000 0.81310  0.40760  0.54730  Biso   1.000  H
  H43      1.0000 0.81310  0.09240  0.04730  Biso   1.000  H
  H44      1.0000 0.18690  0.59240  0.45270  Biso   1.000  H
  C53      1.0000 0.30890  0.98920  0.01070  Biso   1.000  C
  C54      1.0000 0.69110  0.48920  0.48930  Biso   1.000  C
  C55      1.0000 0.69110  0.01080  0.98930  Biso   1.000  C
  C56      1.0000 0.30890  0.51080  0.51070  Biso   1.000  C
  H45      1.0000 0.34580  0.92190  0.01230  Biso   1.000  H
  H46      1.0000 0.65420  0.42190  0.48770  Biso   1.000  H
  H47      1.0000 0.65420  0.07810  0.98770  Biso   1.000  H
  H48      1.0000 0.34580  0.57810  0.51230  Biso   1.000  H
  C57      1.0000 0.29540  0.17740  0.03810  Biso   1.000  C
  C58      1.0000 0.70460  0.67740  0.46190  Biso   1.000  C
  C59      1.0000 0.70460  0.82260  0.96190  Biso   1.000  C
  C60      1.0000 0.29540  0.32260  0.53810  Biso   1.000  C
  H49      1.0000 0.32310  0.24880  0.05900  Biso   1.000  H
  H50      1.0000 0.67690  0.74880  0.44100  Biso   1.000  H
  H51      1.0000 0.67690  0.75120  0.94100  Biso   1.000  H
  H52      1.0000 0.32310  0.25120  0.55900  Biso   1.000  H
  C61      1.0000 0.19820  0.17710  0.00480  Biso   1.000  C
  C62      1.0000 0.80180  0.67710  0.49520  Biso   1.000  C
  C63      1.0000 0.80180  0.82290  0.99520  Biso   1.000  C
  C64      1.0000 0.19820  0.32290  0.50480  Biso   1.000  C
  H53      1.0000 0.16270  0.24460  0.00580  Biso   1.000  H
  H54      1.0000 0.83730  0.74460  0.49420  Biso   1.000  H
  H55      1.0000 0.83730  0.75540  0.99420  Biso   1.000  H
  H56      1.0000 0.16270  0.25540  0.50580  Biso   1.000  H
  C65      1.0000 0.15530  0.07540  0.97030  Biso   1.000  C
  C66      1.0000 0.84470  0.57540  0.52970  Biso   1.000  C
  C67      1.0000 0.84470  0.92460  0.02970  Biso   1.000  C
  C68      1.0000 0.15530  0.42460  0.47030  Biso   1.000  C
  C69      1.0000 0.05180  0.06690  0.93200  Biso   1.000  C
  C70      1.0000 0.94820  0.56690  0.56800  Biso   1.000  C
  C71      1.0000 0.94820  0.93310  0.06800  Biso   1.000  C
  C72      1.0000 0.05180  0.43310  0.43200  Biso   1.000  C
  H57      1.0000 0.02940  0.99350  0.91100  Biso   1.000  H
  H58      1.0000 0.97060  0.49350  0.58900  Biso   1.000  H
  H59      1.0000 0.97060  0.00650  0.08900  Biso   1.000  H
  H60      1.0000 0.02940  0.50650  0.41100  Biso   1.000  H
  C73      1.0000 0.98970  0.14840  0.92430  Biso   1.000  C
  C74      1.0000 0.01030  0.64840  0.57570  Biso   1.000  C
  C75      1.0000 0.01030  0.85160  0.07570  Biso   1.000  C
  C76      1.0000 0.98970  0.35160  0.42430  Biso   1.000  C
  H61      1.0000 0.01240  0.22200  0.94500  Biso   1.000  H
  H62      1.0000 0.98760  0.72200  0.55500  Biso   1.000  H
  H63      1.0000 0.98760  0.77800  0.05500  Biso   1.000  H
  H64      1.0000 0.01240  0.27800  0.44500  Biso   1.000  H
  C77      1.0000 0.88620  0.14050  0.88670  Biso   1.000  C
  C78      1.0000 0.11380  0.64050  0.61330  Biso   1.000  C
  C79      1.0000 0.11380  0.85950  0.11330  Biso   1.000  C
  C80      1.0000 0.88620  0.35950  0.38670  Biso   1.000  C
  C81      1.0000 0.84680  0.04200  0.85120  Biso   1.000  C
  C82      1.0000 0.15320  0.54200  0.64880  Biso   1.000  C
  C83      1.0000 0.15320  0.95800  0.14880  Biso   1.000  C
  C84      1.0000 0.84680  0.45800  0.35120  Biso   1.000  C
  H65      1.0000 0.88430  0.97660  0.85020  Biso   1.000  H
  H66      1.0000 0.11570  0.47660  0.64980  Biso   1.000  H
  H67      1.0000 0.11570  0.02340  0.14980  Biso   1.000  H
  H68      1.0000 0.88430  0.52340  0.35020  Biso   1.000  H
  C85      1.0000 0.75100  0.03710  0.81620  Biso   1.000  C
  C86      1.0000 0.24900  0.53710  0.68380  Biso   1.000  C
  C87      1.0000 0.24900  0.96290  0.18380  Biso   1.000  C
  C88      1.0000 0.75100  0.46290  0.31620  Biso   1.000  C
  H69      1.0000 0.72310  0.96890  0.79090  Biso   1.000  H
  H70      1.0000 0.27690  0.46890  0.70910  Biso   1.000  H
  H71      1.0000 0.27690  0.03110  0.20910  Biso   1.000  H
  H72      1.0000 0.72310  0.53110  0.29090  Biso   1.000  H
  C89      1.0000 0.69660  0.13440  0.81880  Biso   1.000  C
  C90      1.0000 0.30340  0.63440  0.68120  Biso   1.000  C
  C91      1.0000 0.30340  0.86560  0.18120  Biso   1.000  C
  C92      1.0000 0.69660  0.36560  0.31880  Biso   1.000  C
  H73      1.0000 0.63130  0.13200  0.79640  Biso   1.000  H
  H74      1.0000 0.36870  0.63200  0.70360  Biso   1.000  H
  H75      1.0000 0.36870  0.86800  0.20360  Biso   1.000  H
  H76      1.0000 0.63130  0.36800  0.29640  Biso   1.000  H
  C93      1.0000 0.73950  0.23440  0.85480  Biso   1.000  C
  C94      1.0000 0.26050  0.73440  0.64520  Biso   1.000  C
  C95      1.0000 0.26050  0.76560  0.14520  Biso   1.000  C
  C96      1.0000 0.73950  0.26560  0.35480  Biso   1.000  C
  H77      1.0000 0.70280  0.30110  0.85520  Biso   1.000  H
  H78      1.0000 0.29720  0.80110  0.64480  Biso   1.000  H
  H79      1.0000 0.29720  0.69890  0.14480  Biso   1.000  H
  H80      1.0000 0.70280  0.19890  0.35520  Biso   1.000  H
  C97      1.0000 0.49350  0.12760  0.29720  Biso   1.000  C
  C98      1.0000 0.50650  0.62760  0.20280  Biso   1.000  C
  C99      1.0000 0.50650  0.87240  0.70280  Biso   1.000  C
  C100     1.0000 0.49350  0.37240  0.79720  Biso   1.000  C
  C101     1.0000 0.52090  0.01640  0.32950  Biso   1.000  C
  C102     1.0000 0.47910  0.51640  0.17050  Biso   1.000  C
  C103     1.0000 0.47910  0.98360  0.67050  Biso   1.000  C
  C104     1.0000 0.52090  0.48360  0.82950  Biso   1.000  C
  H81      1.0000 0.52490  0.95120  0.30190  Biso   1.000  H
  H82      1.0000 0.47510  0.45120  0.19810  Biso   1.000  H
  H83      1.0000 0.47510  0.04880  0.69810  Biso   1.000  H
  H84      1.0000 0.52490  0.54880  0.80190  Biso   1.000  H
  C105     1.0000 0.54210  0.00180  0.40190  Biso   1.000  C
  C106     1.0000 0.45790  0.50180  0.09810  Biso   1.000  C
  C107     1.0000 0.45790  0.99820  0.59810  Biso   1.000  C
  C108     1.0000 0.54210  0.49820  0.90190  Biso   1.000  C
  H85      1.0000 0.56110  0.92750  0.42300  Biso   1.000  H
  H86      1.0000 0.43890  0.42750  0.07700  Biso   1.000  H
  H87      1.0000 0.43890  0.07250  0.57700  Biso   1.000  H
  H88      1.0000 0.56110  0.57250  0.92300  Biso   1.000  H
  C109     1.0000 0.53480  0.09870  0.44280  Biso   1.000  C
  C110     1.0000 0.46520  0.59870  0.05720  Biso   1.000  C
  C111     1.0000 0.46520  0.90130  0.55720  Biso   1.000  C
  C112     1.0000 0.53480  0.40130  0.94280  Biso   1.000  C
  H89      1.0000 0.55020  0.08940  0.49160  Biso   1.000  H
  H90      1.0000 0.44980  0.58940  0.00840  Biso   1.000  H
  H91      1.0000 0.44980  0.91060  0.50840  Biso   1.000  H
  H92      1.0000 0.55020  0.41060  0.99160  Biso   1.000  H
  C113     1.0000 0.50480  0.20950  0.41180  Biso   1.000  C
  C114     1.0000 0.49520  0.70950  0.08820  Biso   1.000  C
  C115     1.0000 0.49520  0.79050  0.58820  Biso   1.000  C
  C116     1.0000 0.50480  0.29050  0.91180  Biso   1.000  C
  C117     1.0000 0.48560  0.22320  0.33950  Biso   1.000  C
  C118     1.0000 0.51440  0.72320  0.16050  Biso   1.000  C
  C119     1.0000 0.51440  0.77680  0.66050  Biso   1.000  C
  C120     1.0000 0.48560  0.27680  0.83950  Biso   1.000  C
  H93      1.0000 0.46710  0.29780  0.31870  Biso   1.000  H
  H94      1.0000 0.53290  0.79780  0.18130  Biso   1.000  H
  H95      1.0000 0.53290  0.70220  0.68130  Biso   1.000  H
  H96      1.0000 0.46710  0.20220  0.81870  Biso   1.000  H
  C121     1.0000 0.47450  0.14410  0.21900  Biso   1.000  C
  C122     1.0000 0.52550  0.64410  0.28100  Biso   1.000  C
  C123     1.0000 0.52550  0.85590  0.78100  Biso   1.000  C
  C124     1.0000 0.47450  0.35590  0.71900  Biso   1.000  C
  C125     1.0000 0.49160  0.31240  0.45560  Biso   1.000  C
  C126     1.0000 0.50840  0.81240  0.04440  Biso   1.000  C
  C127     1.0000 0.50840  0.68760  0.54440  Biso   1.000  C
  C128     1.0000 0.49160  0.18760  0.95560  Biso   1.000  C
  O17      1.0000 0.26570  0.16290  0.68030  Biso   1.000  O
  O18      1.0000 0.73430  0.66290  0.81970  Biso   1.000  O
  O19      1.0000 0.73430  0.83710  0.31970  Biso   1.000  O
  O20      1.0000 0.26570  0.33710  0.18030  Biso   1.000  O
  O21      1.0000 0.09090  0.26160  0.64530  Biso   1.000  O
  O22      1.0000 0.90910  0.76160  0.85470  Biso   1.000  O
  O23      1.0000 0.90910  0.73840  0.35470  Biso   1.000  O
  O24      1.0000 0.09090  0.23840  0.14530  Biso   1.000  O
  O25      1.0000 0.03700  0.86530  0.45400  Biso   1.000  O
  O26      1.0000 0.96300  0.36530  0.04600  Biso   1.000  O
  O27      1.0000 0.96300  0.13470  0.54600  Biso   1.000  O
  O28      1.0000 0.03700  0.63470  0.95400  Biso   1.000  O
  O29      1.0000 0.14250  0.00780  0.57530  Biso   1.000  O
  O30      1.0000 0.85750  0.50780  0.92470  Biso   1.000  O
  O31      1.0000 0.85750  0.99220  0.42470  Biso   1.000  O
  O32      1.0000 0.14250  0.49220  0.07530  Biso   1.000  O
