data_image0
_cell_length_a       18.7762
_cell_length_b       18.7762
_cell_length_c       40.787
_cell_angle_alpha    90
_cell_angle_beta     90
_cell_angle_gamma    120

_symmetry_space_group_name_H-M    "P 1"
_symmetry_int_tables_number       1

loop_
  _symmetry_equiv_pos_as_xyz
  'x, y, z'

loop_
  _atom_site_label
  _atom_site_occupancy
  _atom_site_fract_x
  _atom_site_fract_y
  _atom_site_fract_z
  _atom_site_thermal_displace_type
  _atom_site_B_iso_or_equiv
  _atom_site_type_symbol
  Cu1      1.0000 0.28724  0.14362  0.13974  Biso   1.000  Cu
  Cu2      1.0000 0.85638  0.14362  0.13974  Biso   1.000  Cu
  Cu3      1.0000 0.85638  0.71276  0.13974  Biso   1.000  Cu
  Cu4      1.0000 0.14362  0.28724  0.86026  Biso   1.000  Cu
  Cu5      1.0000 0.14362  0.85638  0.86026  Biso   1.000  Cu
  Cu6      1.0000 0.71276  0.85638  0.86026  Biso   1.000  Cu
  Cu7      1.0000 0.95391  0.47695  0.47308  Biso   1.000  Cu
  Cu8      1.0000 0.52305  0.47695  0.47308  Biso   1.000  Cu
  Cu9      1.0000 0.52305  0.04609  0.47308  Biso   1.000  Cu
  Cu10     1.0000 0.81029  0.62057  0.19359  Biso   1.000  Cu
  Cu11     1.0000 0.81029  0.18971  0.19359  Biso   1.000  Cu
  Cu12     1.0000 0.37943  0.18971  0.19359  Biso   1.000  Cu
  Cu13     1.0000 0.62057  0.81029  0.80641  Biso   1.000  Cu
  Cu14     1.0000 0.18971  0.81029  0.80641  Biso   1.000  Cu
  Cu15     1.0000 0.18971  0.37943  0.80641  Biso   1.000  Cu
  Cu16     1.0000 0.47695  0.95391  0.52692  Biso   1.000  Cu
  Cu17     1.0000 0.47695  0.52305  0.52692  Biso   1.000  Cu
  Cu18     1.0000 0.04609  0.52305  0.52692  Biso   1.000  Cu
  O1       1.0000 0.22262  0.18390  0.16256  Biso   1.000  O
  O2       1.0000 0.81610  0.03872  0.16256  Biso   1.000  O
  O3       1.0000 0.96128  0.77738  0.16256  Biso   1.000  O
  O4       1.0000 0.18390  0.22262  0.83744  Biso   1.000  O
  O5       1.0000 0.03872  0.81610  0.83744  Biso   1.000  O
  O6       1.0000 0.77738  0.96128  0.83744  Biso   1.000  O
  O7       1.0000 0.88929  0.51723  0.49589  Biso   1.000  O
  O8       1.0000 0.48277  0.37205  0.49589  Biso   1.000  O
  O9       1.0000 0.62795  0.11071  0.49589  Biso   1.000  O
  O10      1.0000 0.85057  0.55595  0.17077  Biso   1.000  O
  O11      1.0000 0.70539  0.14943  0.17077  Biso   1.000  O
  O12      1.0000 0.44405  0.29461  0.17077  Biso   1.000  O
  O13      1.0000 0.55595  0.85057  0.82923  Biso   1.000  O
  O14      1.0000 0.14943  0.70539  0.82923  Biso   1.000  O
  O15      1.0000 0.29461  0.44405  0.82923  Biso   1.000  O
  O16      1.0000 0.51723  0.88929  0.50411  Biso   1.000  O
  O17      1.0000 0.37205  0.48277  0.50411  Biso   1.000  O
  O18      1.0000 0.11071  0.62795  0.50411  Biso   1.000  O
  O19      1.0000 0.77738  0.81610  0.83744  Biso   1.000  O
  O20      1.0000 0.18390  0.96128  0.83744  Biso   1.000  O
  O21      1.0000 0.03872  0.22262  0.83744  Biso   1.000  O
  O22      1.0000 0.81610  0.77738  0.16256  Biso   1.000  O
  O23      1.0000 0.96128  0.18390  0.16256  Biso   1.000  O
  O24      1.0000 0.22262  0.03872  0.16256  Biso   1.000  O
  O25      1.0000 0.44405  0.14943  0.17077  Biso   1.000  O
  O26      1.0000 0.85057  0.29461  0.17077  Biso   1.000  O
  O27      1.0000 0.70539  0.55595  0.17077  Biso   1.000  O
  O28      1.0000 0.48277  0.11071  0.49589  Biso   1.000  O
  O29      1.0000 0.62795  0.51723  0.49589  Biso   1.000  O
  O30      1.0000 0.88929  0.37205  0.49589  Biso   1.000  O
  O31      1.0000 0.11071  0.48277  0.50411  Biso   1.000  O
  O32      1.0000 0.51723  0.62795  0.50411  Biso   1.000  O
  O33      1.0000 0.37205  0.88929  0.50411  Biso   1.000  O
  O34      1.0000 0.14943  0.44405  0.82923  Biso   1.000  O
  O35      1.0000 0.29461  0.85057  0.82923  Biso   1.000  O
  O36      1.0000 0.55595  0.70539  0.82923  Biso   1.000  O
  O37      1.0000 0.30063  0.22330  0.20772  Biso   1.000  O
  O38      1.0000 0.77670  0.07733  0.20772  Biso   1.000  O
  O39      1.0000 0.92267  0.69937  0.20772  Biso   1.000  O
  O40      1.0000 0.22330  0.30063  0.79228  Biso   1.000  O
  O41      1.0000 0.07733  0.77670  0.79228  Biso   1.000  O
  O42      1.0000 0.69937  0.92267  0.79228  Biso   1.000  O
  O43      1.0000 0.96730  0.55663  0.54105  Biso   1.000  O
  O44      1.0000 0.44337  0.41066  0.54105  Biso   1.000  O
  O45      1.0000 0.58934  0.03270  0.54105  Biso   1.000  O
  O46      1.0000 0.88997  0.63396  0.12561  Biso   1.000  O
  O47      1.0000 0.74400  0.11003  0.12561  Biso   1.000  O
  O48      1.0000 0.36604  0.25600  0.12561  Biso   1.000  O
  O49      1.0000 0.63396  0.88997  0.87439  Biso   1.000  O
  O50      1.0000 0.11003  0.74400  0.87439  Biso   1.000  O
  O51      1.0000 0.25600  0.36604  0.87439  Biso   1.000  O
  O52      1.0000 0.55663  0.96730  0.45895  Biso   1.000  O
  O53      1.0000 0.41066  0.44337  0.45895  Biso   1.000  O
  O54      1.0000 0.03270  0.58934  0.45895  Biso   1.000  O
  O55      1.0000 0.69937  0.77670  0.79228  Biso   1.000  O
  O56      1.0000 0.22330  0.92267  0.79228  Biso   1.000  O
  O57      1.0000 0.07733  0.30063  0.79228  Biso   1.000  O
  O58      1.0000 0.77670  0.69937  0.20772  Biso   1.000  O
  O59      1.0000 0.92267  0.22330  0.20772  Biso   1.000  O
  O60      1.0000 0.30063  0.07733  0.20772  Biso   1.000  O
  O61      1.0000 0.36604  0.11003  0.12561  Biso   1.000  O
  O62      1.0000 0.88997  0.25600  0.12561  Biso   1.000  O
  O63      1.0000 0.74400  0.63396  0.12561  Biso   1.000  O
  O64      1.0000 0.44337  0.03270  0.54105  Biso   1.000  O
  O65      1.0000 0.58934  0.55663  0.54105  Biso   1.000  O
  O66      1.0000 0.96730  0.41066  0.54105  Biso   1.000  O
  O67      1.0000 0.03270  0.44337  0.45895  Biso   1.000  O
  O68      1.0000 0.55663  0.58934  0.45895  Biso   1.000  O
  O69      1.0000 0.41066  0.96730  0.45895  Biso   1.000  O
  O70      1.0000 0.11003  0.36604  0.87439  Biso   1.000  O
  O71      1.0000 0.25600  0.88997  0.87439  Biso   1.000  O
  O72      1.0000 0.63396  0.74400  0.87439  Biso   1.000  O
  O73      1.0000 0.22070  0.11037  0.09478  Biso   1.000  O
  O74      1.0000 0.88963  0.11033  0.09478  Biso   1.000  O
  O75      1.0000 0.88967  0.77930  0.09478  Biso   1.000  O
  O76      1.0000 0.11037  0.22070  0.90522  Biso   1.000  O
  O77      1.0000 0.11033  0.88963  0.90522  Biso   1.000  O
  O78      1.0000 0.77930  0.88967  0.90522  Biso   1.000  O
  O79      1.0000 0.88737  0.44370  0.42811  Biso   1.000  O
  O80      1.0000 0.55630  0.44366  0.42811  Biso   1.000  O
  O81      1.0000 0.55634  0.11263  0.42811  Biso   1.000  O
  O82      1.0000 0.77704  0.55403  0.23855  Biso   1.000  O
  O83      1.0000 0.77700  0.22296  0.23855  Biso   1.000  O
  O84      1.0000 0.44597  0.22300  0.23855  Biso   1.000  O
  O85      1.0000 0.55403  0.77704  0.76145  Biso   1.000  O
  O86      1.0000 0.22296  0.77700  0.76145  Biso   1.000  O
  O87      1.0000 0.22300  0.44597  0.76145  Biso   1.000  O
  O88      1.0000 0.44370  0.88737  0.57189  Biso   1.000  O
  O89      1.0000 0.44366  0.55630  0.57189  Biso   1.000  O
  O90      1.0000 0.11263  0.55634  0.57189  Biso   1.000  O
  C1       1.0000 0.15130  0.30260  0.28850  Biso   1.000  C
  C2       1.0000 0.69740  0.84870  0.28850  Biso   1.000  C
  C3       1.0000 0.15130  0.84870  0.28850  Biso   1.000  C
  C4       1.0000 0.30260  0.15130  0.71150  Biso   1.000  C
  C5       1.0000 0.84870  0.69740  0.71150  Biso   1.000  C
  C6       1.0000 0.84870  0.15130  0.71150  Biso   1.000  C
  C7       1.0000 0.81797  0.63593  0.62183  Biso   1.000  C
  C8       1.0000 0.36407  0.18203  0.62183  Biso   1.000  C
  C9       1.0000 0.81797  0.18203  0.62183  Biso   1.000  C
  C10      1.0000 0.96927  0.48463  0.04483  Biso   1.000  C
  C11      1.0000 0.51537  0.03073  0.04483  Biso   1.000  C
  C12      1.0000 0.51537  0.48463  0.04483  Biso   1.000  C
  C13      1.0000 0.48463  0.96927  0.95517  Biso   1.000  C
  C14      1.0000 0.03073  0.51537  0.95517  Biso   1.000  C
  C15      1.0000 0.48463  0.51537  0.95517  Biso   1.000  C
  C16      1.0000 0.63593  0.81797  0.37817  Biso   1.000  C
  C17      1.0000 0.18203  0.36407  0.37817  Biso   1.000  C
  C18      1.0000 0.18203  0.81797  0.37817  Biso   1.000  C
  C19      1.0000 0.16070  0.32140  0.31670  Biso   1.000  C
  C20      1.0000 0.67860  0.83930  0.31670  Biso   1.000  C
  C21      1.0000 0.16070  0.83930  0.31670  Biso   1.000  C
  C22      1.0000 0.32140  0.16070  0.68330  Biso   1.000  C
  C23      1.0000 0.83930  0.67860  0.68330  Biso   1.000  C
  C24      1.0000 0.83930  0.16070  0.68330  Biso   1.000  C
  C25      1.0000 0.82737  0.65473  0.65003  Biso   1.000  C
  C26      1.0000 0.34527  0.17263  0.65003  Biso   1.000  C
  C27      1.0000 0.82737  0.17263  0.65003  Biso   1.000  C
  C28      1.0000 0.98807  0.49403  0.01663  Biso   1.000  C
  C29      1.0000 0.50597  0.01193  0.01663  Biso   1.000  C
  C30      1.0000 0.50597  0.49403  0.01663  Biso   1.000  C
  C31      1.0000 0.49403  0.98807  0.98337  Biso   1.000  C
  C32      1.0000 0.01193  0.50597  0.98337  Biso   1.000  C
  C33      1.0000 0.49403  0.50597  0.98337  Biso   1.000  C
  C34      1.0000 0.65473  0.82737  0.34997  Biso   1.000  C
  C35      1.0000 0.17263  0.34527  0.34997  Biso   1.000  C
  C36      1.0000 0.17263  0.82737  0.34997  Biso   1.000  C
  C37      1.0000 0.18060  0.23240  0.20765  Biso   1.000  C
  C38      1.0000 0.76760  0.94820  0.20765  Biso   1.000  C
  C39      1.0000 0.05180  0.81940  0.20765  Biso   1.000  C
  C40      1.0000 0.23240  0.18060  0.79235  Biso   1.000  C
  C41      1.0000 0.94820  0.76760  0.79235  Biso   1.000  C
  C42      1.0000 0.81940  0.05180  0.79235  Biso   1.000  C
  C43      1.0000 0.84727  0.56573  0.54098  Biso   1.000  C
  C44      1.0000 0.43427  0.28153  0.54098  Biso   1.000  C
  C45      1.0000 0.71847  0.15273  0.54098  Biso   1.000  C
  C46      1.0000 0.89907  0.51393  0.12568  Biso   1.000  C
  C47      1.0000 0.61487  0.10093  0.12568  Biso   1.000  C
  C48      1.0000 0.48607  0.38513  0.12568  Biso   1.000  C
  C49      1.0000 0.51393  0.89907  0.87432  Biso   1.000  C
  C50      1.0000 0.10093  0.61487  0.87432  Biso   1.000  C
  C51      1.0000 0.38513  0.48607  0.87432  Biso   1.000  C
  C52      1.0000 0.56573  0.84727  0.45902  Biso   1.000  C
  C53      1.0000 0.28153  0.43427  0.45902  Biso   1.000  C
  C54      1.0000 0.15273  0.71847  0.45902  Biso   1.000  C
  C55      1.0000 0.81940  0.76760  0.79235  Biso   1.000  C
  C56      1.0000 0.23240  0.05180  0.79235  Biso   1.000  C
  C57      1.0000 0.94820  0.18060  0.79235  Biso   1.000  C
  C58      1.0000 0.76760  0.81940  0.20765  Biso   1.000  C
  C59      1.0000 0.05180  0.23240  0.20765  Biso   1.000  C
  C60      1.0000 0.18060  0.94820  0.20765  Biso   1.000  C
  C61      1.0000 0.48607  0.10093  0.12568  Biso   1.000  C
  C62      1.0000 0.89907  0.38513  0.12568  Biso   1.000  C
  C63      1.0000 0.61487  0.51393  0.12568  Biso   1.000  C
  C64      1.0000 0.43427  0.15273  0.54098  Biso   1.000  C
  C65      1.0000 0.71847  0.56573  0.54098  Biso   1.000  C
  C66      1.0000 0.84727  0.28153  0.54098  Biso   1.000  C
  C67      1.0000 0.15273  0.43427  0.45902  Biso   1.000  C
  C68      1.0000 0.56573  0.71847  0.45902  Biso   1.000  C
  C69      1.0000 0.28153  0.84727  0.45902  Biso   1.000  C
  C70      1.0000 0.10093  0.48607  0.87432  Biso   1.000  C
  C71      1.0000 0.38513  0.89907  0.87432  Biso   1.000  C
  C72      1.0000 0.51393  0.61487  0.87432  Biso   1.000  C
  C73      1.0000 0.10890  0.21790  0.19183  Biso   1.000  C
  C74      1.0000 0.78210  0.89100  0.19183  Biso   1.000  C
  C75      1.0000 0.10900  0.89110  0.19183  Biso   1.000  C
  C76      1.0000 0.21790  0.10890  0.80817  Biso   1.000  C
  C77      1.0000 0.89100  0.78210  0.80817  Biso   1.000  C
  C78      1.0000 0.89110  0.10900  0.80817  Biso   1.000  C
  C79      1.0000 0.77557  0.55123  0.52516  Biso   1.000  C
  C80      1.0000 0.44877  0.22433  0.52516  Biso   1.000  C
  C81      1.0000 0.77567  0.22443  0.52516  Biso   1.000  C
  C82      1.0000 0.88457  0.44223  0.14150  Biso   1.000  C
  C83      1.0000 0.55767  0.11543  0.14150  Biso   1.000  C
  C84      1.0000 0.55777  0.44233  0.14150  Biso   1.000  C
  C85      1.0000 0.44223  0.88457  0.85850  Biso   1.000  C
  C86      1.0000 0.11543  0.55767  0.85850  Biso   1.000  C
  C87      1.0000 0.44233  0.55777  0.85850  Biso   1.000  C
  C88      1.0000 0.55123  0.77557  0.47484  Biso   1.000  C
  C89      1.0000 0.22433  0.44877  0.47484  Biso   1.000  C
  C90      1.0000 0.22443  0.77567  0.47484  Biso   1.000  C
  H1       1.0000 0.09910  0.19820  0.17040  Biso   1.000  H
  H2       1.0000 0.80180  0.90090  0.17040  Biso   1.000  H
  H3       1.0000 0.09910  0.90090  0.17040  Biso   1.000  H
  H4       1.0000 0.19820  0.09910  0.82960  Biso   1.000  H
  H5       1.0000 0.90090  0.80180  0.82960  Biso   1.000  H
  H6       1.0000 0.90090  0.09910  0.82960  Biso   1.000  H
  H7       1.0000 0.76577  0.53153  0.50373  Biso   1.000  H
  H8       1.0000 0.46847  0.23423  0.50373  Biso   1.000  H
  H9       1.0000 0.76577  0.23423  0.50373  Biso   1.000  H
  H10      1.0000 0.86487  0.43243  0.16293  Biso   1.000  H
  H11      1.0000 0.56757  0.13513  0.16293  Biso   1.000  H
  H12      1.0000 0.56757  0.43243  0.16293  Biso   1.000  H
  H13      1.0000 0.43243  0.86487  0.83707  Biso   1.000  H
  H14      1.0000 0.13513  0.56757  0.83707  Biso   1.000  H
  H15      1.0000 0.43243  0.56757  0.83707  Biso   1.000  H
  H16      1.0000 0.53153  0.76577  0.49627  Biso   1.000  H
  H17      1.0000 0.23423  0.46847  0.49627  Biso   1.000  H
  H18      1.0000 0.23423  0.76577  0.49627  Biso   1.000  H
  C91      1.0000 0.13770  0.27550  0.25585  Biso   1.000  C
  C92      1.0000 0.72450  0.86220  0.25585  Biso   1.000  C
  C93      1.0000 0.13780  0.86230  0.25585  Biso   1.000  C
  C94      1.0000 0.27550  0.13770  0.74415  Biso   1.000  C
  C95      1.0000 0.86220  0.72450  0.74415  Biso   1.000  C
  C96      1.0000 0.86230  0.13780  0.74415  Biso   1.000  C
  C97      1.0000 0.80437  0.60883  0.58918  Biso   1.000  C
  C98      1.0000 0.39117  0.19553  0.58918  Biso   1.000  C
  C99      1.0000 0.80447  0.19563  0.58918  Biso   1.000  C
  C100     1.0000 0.94217  0.47103  0.07748  Biso   1.000  C
  C101     1.0000 0.52887  0.05783  0.07748  Biso   1.000  C
  C102     1.0000 0.52897  0.47113  0.07748  Biso   1.000  C
  C103     1.0000 0.47103  0.94217  0.92252  Biso   1.000  C
  C104     1.0000 0.05783  0.52887  0.92252  Biso   1.000  C
  C105     1.0000 0.47113  0.52897  0.92252  Biso   1.000  C
  C106     1.0000 0.60883  0.80437  0.41082  Biso   1.000  C
  C107     1.0000 0.19553  0.39117  0.41082  Biso   1.000  C
  C108     1.0000 0.19563  0.80447  0.41082  Biso   1.000  C
  C109     1.0000 0.19520  0.26130  0.23997  Biso   1.000  C
  C110     1.0000 0.73870  0.93390  0.23997  Biso   1.000  C
  C111     1.0000 0.06610  0.80480  0.23997  Biso   1.000  C
  C112     1.0000 0.26130  0.19520  0.76003  Biso   1.000  C
  C113     1.0000 0.93390  0.73870  0.76003  Biso   1.000  C
  C114     1.0000 0.80480  0.06610  0.76003  Biso   1.000  C
  C115     1.0000 0.86187  0.59463  0.57330  Biso   1.000  C
  C116     1.0000 0.40537  0.26723  0.57330  Biso   1.000  C
  C117     1.0000 0.73277  0.13813  0.57330  Biso   1.000  C
  C118     1.0000 0.92797  0.52853  0.09336  Biso   1.000  C
  C119     1.0000 0.60057  0.07203  0.09336  Biso   1.000  C
  C120     1.0000 0.47147  0.39943  0.09336  Biso   1.000  C
  C121     1.0000 0.52853  0.92797  0.90664  Biso   1.000  C
  C122     1.0000 0.07203  0.60057  0.90664  Biso   1.000  C
  C123     1.0000 0.39943  0.47147  0.90664  Biso   1.000  C
  C124     1.0000 0.59463  0.86187  0.42670  Biso   1.000  C
  C125     1.0000 0.26723  0.40537  0.42670  Biso   1.000  C
  C126     1.0000 0.13813  0.73277  0.42670  Biso   1.000  C
  C127     1.0000 0.80480  0.73870  0.76003  Biso   1.000  C
  C128     1.0000 0.26130  0.06610  0.76003  Biso   1.000  C
  C129     1.0000 0.93390  0.19520  0.76003  Biso   1.000  C
  C130     1.0000 0.73870  0.80480  0.23997  Biso   1.000  C
  C131     1.0000 0.06610  0.26130  0.23997  Biso   1.000  C
  C132     1.0000 0.19520  0.93390  0.23997  Biso   1.000  C
  C133     1.0000 0.47147  0.07203  0.09336  Biso   1.000  C
  C134     1.0000 0.92797  0.39943  0.09336  Biso   1.000  C
  C135     1.0000 0.60057  0.52853  0.09336  Biso   1.000  C
  C136     1.0000 0.40537  0.13813  0.57330  Biso   1.000  C
  C137     1.0000 0.73277  0.59463  0.57330  Biso   1.000  C
  C138     1.0000 0.86187  0.26723  0.57330  Biso   1.000  C
  C139     1.0000 0.13813  0.40537  0.42670  Biso   1.000  C
  C140     1.0000 0.59463  0.73277  0.42670  Biso   1.000  C
  C141     1.0000 0.26723  0.86187  0.42670  Biso   1.000  C
  C142     1.0000 0.07203  0.47147  0.90664  Biso   1.000  C
  C143     1.0000 0.39943  0.92797  0.90664  Biso   1.000  C
  C144     1.0000 0.52853  0.60057  0.90664  Biso   1.000  C
  H19      1.0000 0.24280  0.27100  0.25080  Biso   1.000  H
  H20      1.0000 0.72900  0.97180  0.25080  Biso   1.000  H
  H21      1.0000 0.02820  0.75720  0.25080  Biso   1.000  H
  H22      1.0000 0.27100  0.24280  0.74920  Biso   1.000  H
  H23      1.0000 0.97180  0.72900  0.74920  Biso   1.000  H
  H24      1.0000 0.75720  0.02820  0.74920  Biso   1.000  H
  H25      1.0000 0.90947  0.60433  0.58413  Biso   1.000  H
  H26      1.0000 0.39567  0.30513  0.58413  Biso   1.000  H
  H27      1.0000 0.69487  0.09053  0.58413  Biso   1.000  H
  H28      1.0000 0.93767  0.57613  0.08253  Biso   1.000  H
  H29      1.0000 0.63847  0.06233  0.08253  Biso   1.000  H
  H30      1.0000 0.42387  0.36153  0.08253  Biso   1.000  H
  H31      1.0000 0.57613  0.93767  0.91747  Biso   1.000  H
  H32      1.0000 0.06233  0.63847  0.91747  Biso   1.000  H
  H33      1.0000 0.36153  0.42387  0.91747  Biso   1.000  H
  H34      1.0000 0.60433  0.90947  0.41587  Biso   1.000  H
  H35      1.0000 0.30513  0.39567  0.41587  Biso   1.000  H
  H36      1.0000 0.09053  0.69487  0.41587  Biso   1.000  H
  H37      1.0000 0.75720  0.72900  0.74920  Biso   1.000  H
  H38      1.0000 0.27100  0.02820  0.74920  Biso   1.000  H
  H39      1.0000 0.97180  0.24280  0.74920  Biso   1.000  H
  H40      1.0000 0.72900  0.75720  0.25080  Biso   1.000  H
  H41      1.0000 0.02820  0.27100  0.25080  Biso   1.000  H
  H42      1.0000 0.24280  0.97180  0.25080  Biso   1.000  H
  H43      1.0000 0.42387  0.06233  0.08253  Biso   1.000  H
  H44      1.0000 0.93767  0.36153  0.08253  Biso   1.000  H
  H45      1.0000 0.63847  0.57613  0.08253  Biso   1.000  H
  H46      1.0000 0.39567  0.09053  0.58413  Biso   1.000  H
  H47      1.0000 0.69487  0.60433  0.58413  Biso   1.000  H
  H48      1.0000 0.90947  0.30513  0.58413  Biso   1.000  H
  H49      1.0000 0.09053  0.39567  0.41587  Biso   1.000  H
  H50      1.0000 0.60433  0.69487  0.41587  Biso   1.000  H
  H51      1.0000 0.30513  0.90947  0.41587  Biso   1.000  H
  H52      1.0000 0.06233  0.42387  0.91747  Biso   1.000  H
  H53      1.0000 0.36153  0.93767  0.91747  Biso   1.000  H
  H54      1.0000 0.57613  0.63847  0.91747  Biso   1.000  H
  C145     1.0000 0.23980  0.21220  0.19118  Biso   1.000  C
  C146     1.0000 0.78780  0.02760  0.19118  Biso   1.000  C
  C147     1.0000 0.97240  0.76020  0.19118  Biso   1.000  C
  C148     1.0000 0.21220  0.23980  0.80882  Biso   1.000  C
  C149     1.0000 0.02760  0.78780  0.80882  Biso   1.000  C
  C150     1.0000 0.76020  0.97240  0.80882  Biso   1.000  C
  C151     1.0000 0.90647  0.54553  0.52451  Biso   1.000  C
  C152     1.0000 0.45447  0.36093  0.52451  Biso   1.000  C
  C153     1.0000 0.63907  0.09353  0.52451  Biso   1.000  C
  C154     1.0000 0.87887  0.57313  0.14215  Biso   1.000  C
  C155     1.0000 0.69427  0.12113  0.14215  Biso   1.000  C
  C156     1.0000 0.42687  0.30573  0.14215  Biso   1.000  C
  C157     1.0000 0.57313  0.87887  0.85785  Biso   1.000  C
  C158     1.0000 0.12113  0.69427  0.85785  Biso   1.000  C
  C159     1.0000 0.30573  0.42687  0.85785  Biso   1.000  C
  C160     1.0000 0.54553  0.90647  0.47549  Biso   1.000  C
  C161     1.0000 0.36093  0.45447  0.47549  Biso   1.000  C
  C162     1.0000 0.09353  0.63907  0.47549  Biso   1.000  C
  C163     1.0000 0.76020  0.78780  0.80882  Biso   1.000  C
  C164     1.0000 0.21220  0.97240  0.80882  Biso   1.000  C
  C165     1.0000 0.02760  0.23980  0.80882  Biso   1.000  C
  C166     1.0000 0.78780  0.76020  0.19118  Biso   1.000  C
  C167     1.0000 0.97240  0.21220  0.19118  Biso   1.000  C
  C168     1.0000 0.23980  0.02760  0.19118  Biso   1.000  C
  C169     1.0000 0.42687  0.12113  0.14215  Biso   1.000  C
  C170     1.0000 0.87887  0.30573  0.14215  Biso   1.000  C
  C171     1.0000 0.69427  0.57313  0.14215  Biso   1.000  C
  C172     1.0000 0.45447  0.09353  0.52451  Biso   1.000  C
  C173     1.0000 0.63907  0.54553  0.52451  Biso   1.000  C
  C174     1.0000 0.90647  0.36093  0.52451  Biso   1.000  C
  C175     1.0000 0.09353  0.45447  0.47549  Biso   1.000  C
  C176     1.0000 0.54553  0.63907  0.47549  Biso   1.000  C
  C177     1.0000 0.36093  0.90647  0.47549  Biso   1.000  C
  C178     1.0000 0.12113  0.42687  0.85785  Biso   1.000  C
  C179     1.0000 0.30573  0.87887  0.85785  Biso   1.000  C
  C180     1.0000 0.57313  0.69427  0.85785  Biso   1.000  C
