data_image0
_cell_length_a       7.9719
_cell_length_b       14.0392
_cell_length_c       21.274
_cell_angle_alpha    90
_cell_angle_beta     94.585
_cell_angle_gamma    90

_symmetry_space_group_name_H-M    "P 1"
_symmetry_int_tables_number       1

loop_
  _symmetry_equiv_pos_as_xyz
  'x, y, z'

loop_
  _atom_site_label
  _atom_site_occupancy
  _atom_site_fract_x
  _atom_site_fract_y
  _atom_site_fract_z
  _atom_site_thermal_displace_type
  _atom_site_B_iso_or_equiv
  _atom_site_type_symbol
  Mo1      1.0000 0.90171  0.89031  0.59196  Biso   1.000  Mo
  Mo2      1.0000 0.09829  0.39031  0.90804  Biso   1.000  Mo
  Mo3      1.0000 0.09829  0.10969  0.40804  Biso   1.000  Mo
  Mo4      1.0000 0.90171  0.60969  0.09196  Biso   1.000  Mo
  Mo5      1.0000 0.76531  0.09749  0.51880  Biso   1.000  Mo
  Mo6      1.0000 0.23469  0.59749  0.98120  Biso   1.000  Mo
  Mo7      1.0000 0.23469  0.90251  0.48120  Biso   1.000  Mo
  Mo8      1.0000 0.76531  0.40251  0.01880  Biso   1.000  Mo
  Cu1      1.0000 0.66244  0.67852  0.53530  Biso   1.000  Cu
  Cu2      1.0000 0.33756  0.17852  0.96470  Biso   1.000  Cu
  Cu3      1.0000 0.33756  0.32148  0.46470  Biso   1.000  Cu
  Cu4      1.0000 0.66244  0.82148  0.03530  Biso   1.000  Cu
  P1       1.0000 0.63410  0.87289  0.45387  Biso   1.000  P
  P2       1.0000 0.36590  0.37289  0.04613  Biso   1.000  P
  P3       1.0000 0.36590  0.12711  0.54613  Biso   1.000  P
  P4       1.0000 0.63410  0.62711  0.95387  Biso   1.000  P
  P5       1.0000 0.50560  0.65557  0.11185  Biso   1.000  P
  P6       1.0000 0.49440  0.15557  0.38815  Biso   1.000  P
  P7       1.0000 0.49440  0.34443  0.88815  Biso   1.000  P
  P8       1.0000 0.50560  0.84443  0.61185  Biso   1.000  P
  O1       1.0000 0.63520  0.76670  0.46700  Biso   1.000  O
  O2       1.0000 0.36480  0.26670  0.03300  Biso   1.000  O
  O3       1.0000 0.36480  0.23330  0.53300  Biso   1.000  O
  O4       1.0000 0.63520  0.73330  0.96700  Biso   1.000  O
  O5       1.0000 0.73410  0.93100  0.50590  Biso   1.000  O
  O6       1.0000 0.26590  0.43100  0.99410  Biso   1.000  O
  O7       1.0000 0.26590  0.06900  0.49410  Biso   1.000  O
  O8       1.0000 0.73410  0.56900  0.00590  Biso   1.000  O
  O9       1.0000 0.45410  0.91170  0.44210  Biso   1.000  O
  O10      1.0000 0.54590  0.41170  0.05790  Biso   1.000  O
  O11      1.0000 0.54590  0.08830  0.55790  Biso   1.000  O
  O12      1.0000 0.45410  0.58830  0.94210  Biso   1.000  O
  O13      1.0000 0.86890  0.04630  0.58690  Biso   1.000  O
  O14      1.0000 0.13110  0.54630  0.91310  Biso   1.000  O
  O15      1.0000 0.13110  0.95370  0.41310  Biso   1.000  O
  O16      1.0000 0.86890  0.45370  0.08690  Biso   1.000  O
  O17      1.0000 0.79450  0.21490  0.53190  Biso   1.000  O
  O18      1.0000 0.20550  0.71490  0.96810  Biso   1.000  O
  O19      1.0000 0.20550  0.78510  0.46810  Biso   1.000  O
  O20      1.0000 0.79450  0.28510  0.03190  Biso   1.000  O
  O21      1.0000 0.07210  0.92090  0.53800  Biso   1.000  O
  O22      1.0000 0.92790  0.42090  0.96200  Biso   1.000  O
  O23      1.0000 0.92790  0.07910  0.46200  Biso   1.000  O
  O24      1.0000 0.07210  0.57910  0.03800  Biso   1.000  O
  O25      1.0000 0.39390  0.60090  0.06350  Biso   1.000  O
  O26      1.0000 0.60610  0.10090  0.43650  Biso   1.000  O
  O27      1.0000 0.60610  0.39910  0.93650  Biso   1.000  O
  O28      1.0000 0.39390  0.89910  0.56350  Biso   1.000  O
  O29      1.0000 0.67640  0.60330  0.12640  Biso   1.000  O
  O30      1.0000 0.32360  0.10330  0.37360  Biso   1.000  O
  O31      1.0000 0.32360  0.39670  0.87360  Biso   1.000  O
  O32      1.0000 0.67640  0.89670  0.62640  Biso   1.000  O
  O33      1.0000 0.52930  0.75910  0.09490  Biso   1.000  O
  O34      1.0000 0.47070  0.25910  0.40510  Biso   1.000  O
  O35      1.0000 0.47070  0.24090  0.90510  Biso   1.000  O
  O36      1.0000 0.52930  0.74090  0.59490  Biso   1.000  O
  O37      1.0000 0.01100  0.89810  0.66370  Biso   1.000  O
  O38      1.0000 0.98900  0.39810  0.83630  Biso   1.000  O
  O39      1.0000 0.98900  0.10190  0.33630  Biso   1.000  O
  O40      1.0000 0.01100  0.60190  0.16370  Biso   1.000  O
  O41      1.0000 0.89180  0.77030  0.57570  Biso   1.000  O
  O42      1.0000 0.10820  0.27030  0.92430  Biso   1.000  O
  O43      1.0000 0.10820  0.22970  0.42430  Biso   1.000  O
  O44      1.0000 0.89180  0.72970  0.07570  Biso   1.000  O
  N1       1.0000 0.70080  0.57220  0.47500  Biso   1.000  N
  N2       1.0000 0.29920  0.07220  0.02500  Biso   1.000  N
  N3       1.0000 0.29920  0.42780  0.52500  Biso   1.000  N
  N4       1.0000 0.70080  0.92780  0.97500  Biso   1.000  N
  N5       1.0000 0.73590  0.57650  0.59710  Biso   1.000  N
  N6       1.0000 0.26410  0.07650  0.90290  Biso   1.000  N
  N7       1.0000 0.26410  0.42350  0.40290  Biso   1.000  N
  N8       1.0000 0.73590  0.92350  0.09710  Biso   1.000  N
  C1       1.0000 0.67320  0.57700  0.41230  Biso   1.000  C
  C2       1.0000 0.32680  0.07700  0.08770  Biso   1.000  C
  C3       1.0000 0.32680  0.42300  0.58770  Biso   1.000  C
  C4       1.0000 0.67320  0.92300  0.91230  Biso   1.000  C
  H1       1.0000 0.63180  0.63460  0.39340  Biso   1.000  H
  H2       1.0000 0.36820  0.13460  0.10660  Biso   1.000  H
  H3       1.0000 0.36820  0.36540  0.60660  Biso   1.000  H
  H4       1.0000 0.63180  0.86540  0.89340  Biso   1.000  H
  C5       1.0000 0.70360  0.49960  0.37410  Biso   1.000  C
  C6       1.0000 0.29640  0.99960  0.12590  Biso   1.000  C
  C7       1.0000 0.29640  0.50040  0.62590  Biso   1.000  C
  C8       1.0000 0.70360  0.00040  0.87410  Biso   1.000  C
  H5       1.0000 0.67810  0.50290  0.32970  Biso   1.000  H
  H6       1.0000 0.32190  0.00290  0.17030  Biso   1.000  H
  H7       1.0000 0.32190  0.49710  0.67030  Biso   1.000  H
  H8       1.0000 0.67810  0.99710  0.82970  Biso   1.000  H
  C9       1.0000 0.77140  0.41800  0.40170  Biso   1.000  C
  C10      1.0000 0.22860  0.91800  0.09830  Biso   1.000  C
  C11      1.0000 0.22860  0.58200  0.59830  Biso   1.000  C
  C12      1.0000 0.77140  0.08200  0.90170  Biso   1.000  C
  H9       1.0000 0.79800  0.36530  0.37620  Biso   1.000  H
  H10      1.0000 0.20200  0.86530  0.12380  Biso   1.000  H
  H11      1.0000 0.20200  0.63470  0.62380  Biso   1.000  H
  H12      1.0000 0.79800  0.13470  0.87620  Biso   1.000  H
  C13      1.0000 0.80020  0.41310  0.46610  Biso   1.000  C
  C14      1.0000 0.19980  0.91310  0.03390  Biso   1.000  C
  C15      1.0000 0.19980  0.58690  0.53390  Biso   1.000  C
  C16      1.0000 0.80020  0.08690  0.96610  Biso   1.000  C
  H13      1.0000 0.84570  0.35690  0.48560  Biso   1.000  H
  H14      1.0000 0.15430  0.85690  0.01440  Biso   1.000  H
  H15      1.0000 0.15430  0.64310  0.51440  Biso   1.000  H
  H16      1.0000 0.84570  0.14310  0.98560  Biso   1.000  H
  C17      1.0000 0.76210  0.49150  0.50270  Biso   1.000  C
  C18      1.0000 0.23790  0.99150  0.99730  Biso   1.000  C
  C19      1.0000 0.23790  0.50850  0.49730  Biso   1.000  C
  C20      1.0000 0.76210  0.00850  0.00270  Biso   1.000  C
  C21      1.0000 0.78030  0.49310  0.57190  Biso   1.000  C
  C22      1.0000 0.21970  0.99310  0.92810  Biso   1.000  C
  C23      1.0000 0.21970  0.50690  0.42810  Biso   1.000  C
  C24      1.0000 0.78030  0.00690  0.07190  Biso   1.000  C
  C25      1.0000 0.83860  0.41760  0.60930  Biso   1.000  C
  C26      1.0000 0.16140  0.91760  0.89070  Biso   1.000  C
  C27      1.0000 0.16140  0.58240  0.39070  Biso   1.000  C
  C28      1.0000 0.83860  0.08240  0.10930  Biso   1.000  C
  H17      1.0000 0.86820  0.35870  0.59120  Biso   1.000  H
  H18      1.0000 0.13180  0.85870  0.90880  Biso   1.000  H
  H19      1.0000 0.13180  0.64130  0.40880  Biso   1.000  H
  H20      1.0000 0.86820  0.14130  0.09120  Biso   1.000  H
  C29      1.0000 0.85270  0.43100  0.67490  Biso   1.000  C
  C30      1.0000 0.14730  0.93100  0.82510  Biso   1.000  C
  C31      1.0000 0.14730  0.56900  0.32510  Biso   1.000  C
  C32      1.0000 0.85270  0.06900  0.17490  Biso   1.000  C
  H21      1.0000 0.89270  0.38050  0.70180  Biso   1.000  H
  H22      1.0000 0.10730  0.88050  0.79820  Biso   1.000  H
  H23      1.0000 0.10730  0.61950  0.29820  Biso   1.000  H
  H24      1.0000 0.89270  0.11950  0.20180  Biso   1.000  H
  C33      1.0000 0.80920  0.51660  0.70070  Biso   1.000  C
  C34      1.0000 0.19080  0.01660  0.79930  Biso   1.000  C
  C35      1.0000 0.19080  0.48340  0.29930  Biso   1.000  C
  C36      1.0000 0.80920  0.98340  0.20070  Biso   1.000  C
  H25      1.0000 0.81890  0.52600  0.74500  Biso   1.000  H
  H26      1.0000 0.18110  0.02600  0.75500  Biso   1.000  H
  H27      1.0000 0.18110  0.47400  0.25500  Biso   1.000  H
  H28      1.0000 0.81890  0.97400  0.24500  Biso   1.000  H
  C37      1.0000 0.75140  0.58790  0.66050  Biso   1.000  C
  C38      1.0000 0.24860  0.08790  0.83950  Biso   1.000  C
  C39      1.0000 0.24860  0.41210  0.33950  Biso   1.000  C
  C40      1.0000 0.75140  0.91210  0.16050  Biso   1.000  C
  H29      1.0000 0.72120  0.64740  0.67770  Biso   1.000  H
  H30      1.0000 0.27880  0.14740  0.82230  Biso   1.000  H
  H31      1.0000 0.27880  0.35260  0.32230  Biso   1.000  H
  H32      1.0000 0.72120  0.85260  0.17770  Biso   1.000  H
  C41      1.0000 0.40770  0.64970  0.18480  Biso   1.000  C
  C42      1.0000 0.59230  0.14970  0.31520  Biso   1.000  C
  C43      1.0000 0.59230  0.35030  0.81520  Biso   1.000  C
  C44      1.0000 0.40770  0.85030  0.68480  Biso   1.000  C
  H33      1.0000 0.41180  0.58320  0.20030  Biso   1.000  H
  H34      1.0000 0.58820  0.08320  0.29970  Biso   1.000  H
  H35      1.0000 0.58820  0.41680  0.79970  Biso   1.000  H
  H36      1.0000 0.41180  0.91680  0.70030  Biso   1.000  H
  H37      1.0000 0.28790  0.66810  0.17720  Biso   1.000  H
  H38      1.0000 0.71210  0.16810  0.32280  Biso   1.000  H
  H39      1.0000 0.71210  0.33190  0.82280  Biso   1.000  H
  H40      1.0000 0.28790  0.83190  0.67720  Biso   1.000  H
  C45      1.0000 0.49180  0.71430  0.23530  Biso   1.000  C
  C46      1.0000 0.50820  0.21430  0.26470  Biso   1.000  C
  C47      1.0000 0.50820  0.28570  0.76470  Biso   1.000  C
  C48      1.0000 0.49180  0.78570  0.73530  Biso   1.000  C
  C49      1.0000 0.40750  0.79240  0.25720  Biso   1.000  C
  C50      1.0000 0.59250  0.29240  0.24280  Biso   1.000  C
  C51      1.0000 0.59250  0.20760  0.74280  Biso   1.000  C
  C52      1.0000 0.40750  0.70760  0.75720  Biso   1.000  C
  H41      1.0000 0.29520  0.80510  0.24110  Biso   1.000  H
  H42      1.0000 0.70480  0.30510  0.25890  Biso   1.000  H
  H43      1.0000 0.70480  0.19490  0.75890  Biso   1.000  H
  H44      1.0000 0.29520  0.69490  0.74110  Biso   1.000  H
  C53      1.0000 0.65790  0.69780  0.25920  Biso   1.000  C
  C54      1.0000 0.34210  0.19780  0.24080  Biso   1.000  C
  C55      1.0000 0.34210  0.30220  0.74080  Biso   1.000  C
  C56      1.0000 0.65790  0.80220  0.75920  Biso   1.000  C
  H45      1.0000 0.71830  0.64550  0.24390  Biso   1.000  H
  H46      1.0000 0.28170  0.14550  0.25610  Biso   1.000  H
  H47      1.0000 0.28170  0.35450  0.75610  Biso   1.000  H
  H48      1.0000 0.71830  0.85450  0.74390  Biso   1.000  H
  C57      1.0000 0.73010  0.89360  0.38150  Biso   1.000  C
  C58      1.0000 0.26990  0.39360  0.11850  Biso   1.000  C
  C59      1.0000 0.26990  0.10640  0.61850  Biso   1.000  C
  C60      1.0000 0.73010  0.60640  0.88150  Biso   1.000  C
  H49      1.0000 0.71970  0.96190  0.37040  Biso   1.000  H
  H50      1.0000 0.28030  0.46190  0.12960  Biso   1.000  H
  H51      1.0000 0.28030  0.03810  0.62960  Biso   1.000  H
  H52      1.0000 0.71970  0.53810  0.87040  Biso   1.000  H
  H53      1.0000 0.85140  0.87800  0.38770  Biso   1.000  H
  H54      1.0000 0.14860  0.37800  0.11230  Biso   1.000  H
  H55      1.0000 0.14860  0.12200  0.61230  Biso   1.000  H
  H56      1.0000 0.85140  0.62200  0.88770  Biso   1.000  H
  C61      1.0000 0.64950  0.83420  0.32750  Biso   1.000  C
  C62      1.0000 0.35050  0.33420  0.17250  Biso   1.000  C
  C63      1.0000 0.35050  0.16580  0.67250  Biso   1.000  C
  C64      1.0000 0.64950  0.66580  0.82750  Biso   1.000  C
  C65      1.0000 0.48670  0.85310  0.30300  Biso   1.000  C
  C66      1.0000 0.51330  0.35310  0.19700  Biso   1.000  C
  C67      1.0000 0.51330  0.14690  0.69700  Biso   1.000  C
  C68      1.0000 0.48670  0.64690  0.80300  Biso   1.000  C
  H57      1.0000 0.42850  0.90700  0.31720  Biso   1.000  H
  H58      1.0000 0.57150  0.40700  0.18280  Biso   1.000  H
  H59      1.0000 0.57150  0.09300  0.68280  Biso   1.000  H
  H60      1.0000 0.42850  0.59300  0.81720  Biso   1.000  H
  C69      1.0000 0.73500  0.75700  0.30480  Biso   1.000  C
  C70      1.0000 0.26500  0.25700  0.19520  Biso   1.000  C
  C71      1.0000 0.26500  0.24300  0.69520  Biso   1.000  C
  C72      1.0000 0.73500  0.74300  0.80480  Biso   1.000  C
  H61      1.0000 0.84760  0.74470  0.32080  Biso   1.000  H
  H62      1.0000 0.15240  0.24470  0.17920  Biso   1.000  H
  H63      1.0000 0.15240  0.25530  0.67920  Biso   1.000  H
  H64      1.0000 0.84760  0.75530  0.82080  Biso   1.000  H
