data_image0
_cell_length_a       10.3496
_cell_length_b       11.3763
_cell_length_c       11.7155
_cell_angle_alpha    98.344
_cell_angle_beta     115.39
_cell_angle_gamma    98.852

_symmetry_space_group_name_H-M    "P 1"
_symmetry_int_tables_number       1

loop_
  _symmetry_equiv_pos_as_xyz
  'x, y, z'

loop_
  _atom_site_label
  _atom_site_occupancy
  _atom_site_fract_x
  _atom_site_fract_y
  _atom_site_fract_z
  _atom_site_thermal_displace_type
  _atom_site_B_iso_or_equiv
  _atom_site_type_symbol
  Cu1      1.0000 0.50000  0.00000  0.00000  Biso   1.000  Cu
  Cu2      1.0000 0.20140  0.91318  0.98991  Biso   1.000  Cu
  Cu3      1.0000 0.79860  0.08682  0.01009  Biso   1.000  Cu
  Cu4      1.0000 0.05463  0.62407  0.97752  Biso   1.000  Cu
  Cu5      1.0000 0.94537  0.37593  0.02248  Biso   1.000  Cu
  Cu6      1.0000 0.96968  0.69122  0.71169  Biso   1.000  Cu
  Cu7      1.0000 0.03032  0.30878  0.28831  Biso   1.000  Cu
  O1       1.0000 0.13500  0.66740  0.85810  Biso   1.000  O
  O2       1.0000 0.86500  0.33260  0.14190  Biso   1.000  O
  C1       1.0000 0.27260  0.67440  0.87720  Biso   1.000  C
  C2       1.0000 0.72740  0.32560  0.12280  Biso   1.000  C
  C3       1.0000 0.36960  0.64220  0.98700  Biso   1.000  C
  C4       1.0000 0.63040  0.35780  0.01300  Biso   1.000  C
  H1       1.0000 0.33470  0.61350  0.04140  Biso   1.000  H
  H2       1.0000 0.66530  0.38650  0.95860  Biso   1.000  H
  C5       1.0000 0.51260  0.65120  0.01680  Biso   1.000  C
  C6       1.0000 0.48740  0.34880  0.98320  Biso   1.000  C
  H3       1.0000 0.57490  0.63080  0.09210  Biso   1.000  H
  H4       1.0000 0.42510  0.36920  0.90790  Biso   1.000  H
  C7       1.0000 0.56690  0.69050  0.93620  Biso   1.000  C
  C8       1.0000 0.43310  0.30950  0.06380  Biso   1.000  C
  H5       1.0000 0.66550  0.69720  0.95690  Biso   1.000  H
  H6       1.0000 0.33450  0.30280  0.04310  Biso   1.000  H
  C9       1.0000 0.47410  0.71900  0.82640  Biso   1.000  C
  C10      1.0000 0.52590  0.28100  0.17360  Biso   1.000  C
  H7       1.0000 0.51110  0.74330  0.77160  Biso   1.000  H
  H8       1.0000 0.48890  0.25670  0.22840  Biso   1.000  H
  C11      1.0000 0.32590  0.71380  0.79150  Biso   1.000  C
  C12      1.0000 0.67410  0.28620  0.20850  Biso   1.000  C
  C13      1.0000 0.22640  0.74970  0.67090  Biso   1.000  C
  C14      1.0000 0.77360  0.25030  0.32910  Biso   1.000  C
  C15      1.0000 0.30560  0.79330  0.59200  Biso   1.000  C
  C16      1.0000 0.69440  0.20670  0.40800  Biso   1.000  C
  H9       1.0000 0.34730  0.73000  0.56850  Biso   1.000  H
  H10      1.0000 0.65270  0.27000  0.43150  Biso   1.000  H
  H11      1.0000 0.38250  0.86580  0.64420  Biso   1.000  H
  H12      1.0000 0.61750  0.13420  0.35580  Biso   1.000  H
  H13      1.0000 0.23560  0.81110  0.51470  Biso   1.000  H
  H14      1.0000 0.76440  0.18890  0.48530  Biso   1.000  H
  N1       1.0000 0.09580  0.74640  0.63580  Biso   1.000  N
  N2       1.0000 0.90420  0.25360  0.36420  Biso   1.000  N
  C17      1.0000 0.01030  0.78410  0.51550  Biso   1.000  C
  C18      1.0000 0.98970  0.21590  0.48450  Biso   1.000  C
  H15      1.0000 0.99260  0.72250  0.44050  Biso   1.000  H
  H16      1.0000 0.00740  0.27750  0.55950  Biso   1.000  H
  H17      1.0000 0.06570  0.86070  0.51460  Biso   1.000  H
  H18      1.0000 0.93430  0.13930  0.48540  Biso   1.000  H
  C19      1.0000 0.86640  0.79980  0.50870  Biso   1.000  C
  C20      1.0000 0.13360  0.20020  0.49130  Biso   1.000  C
  H19      1.0000 0.88230  0.87800  0.56450  Biso   1.000  H
  H20      1.0000 0.11770  0.12200  0.43550  Biso   1.000  H
  H21      1.0000 0.79950  0.80040  0.42030  Biso   1.000  H
  H22      1.0000 0.20050  0.19960  0.57970  Biso   1.000  H
  N3       1.0000 0.79770  0.69960  0.54970  Biso   1.000  N
  N4       1.0000 0.20230  0.30040  0.45030  Biso   1.000  N
  C21      1.0000 0.67260  0.72880  0.56170  Biso   1.000  C
  C22      1.0000 0.32740  0.27120  0.43830  Biso   1.000  C
  H23      1.0000 0.70230  0.80830  0.61870  Biso   1.000  H
  H24      1.0000 0.29770  0.19170  0.38130  Biso   1.000  H
  H25      1.0000 0.63510  0.66880  0.59670  Biso   1.000  H
  H26      1.0000 0.36490  0.33120  0.40330  Biso   1.000  H
  H27      1.0000 0.59700  0.72880  0.47750  Biso   1.000  H
  H28      1.0000 0.40300  0.27120  0.52250  Biso   1.000  H
  C23      1.0000 0.74950  0.58700  0.45390  Biso   1.000  C
  C24      1.0000 0.25050  0.41300  0.54610  Biso   1.000  C
  H29      1.0000 0.71400  0.52150  0.48390  Biso   1.000  H
  H30      1.0000 0.28600  0.47850  0.51610  Biso   1.000  H
  H31      1.0000 0.83050  0.57150  0.43960  Biso   1.000  H
  H32      1.0000 0.16950  0.42850  0.56040  Biso   1.000  H
  H33      1.0000 0.67170  0.59360  0.37400  Biso   1.000  H
  H34      1.0000 0.32830  0.40640  0.62600  Biso   1.000  H
  N5       1.0000 0.95840  0.55510  0.07370  Biso   1.000  N
  N6       1.0000 0.04160  0.44490  0.92630  Biso   1.000  N
  N7       1.0000 0.92860  0.59670  0.14980  Biso   1.000  N
  N8       1.0000 0.07140  0.40330  0.85020  Biso   1.000  N
  N9       1.0000 0.86410  0.64580  0.19840  Biso   1.000  N
  N10      1.0000 0.13590  0.35420  0.80160  Biso   1.000  N
  N11      1.0000 0.12850  0.79470  0.07310  Biso   1.000  N
  N12      1.0000 0.87150  0.20530  0.92690  Biso   1.000  N
  N13      1.0000 0.15110  0.83200  0.18610  Biso   1.000  N
  N14      1.0000 0.84890  0.16800  0.81390  Biso   1.000  N
  N15      1.0000 0.17060  0.86640  0.28800  Biso   1.000  N
  N16      1.0000 0.82940  0.13360  0.71200  Biso   1.000  N
  N17      1.0000 0.00130  0.88400  0.83920  Biso   1.000  N
  N18      1.0000 0.99870  0.11600  0.16080  Biso   1.000  N
  N19      1.0000 0.90700  0.89760  0.86800  Biso   1.000  N
  N20      1.0000 0.09300  0.10240  0.13200  Biso   1.000  N
  N21      1.0000 0.80950  0.91010  0.88850  Biso   1.000  N
  N22      1.0000 0.19050  0.08990  0.11150  Biso   1.000  N
  N23      1.0000 0.85570  0.61620  0.79180  Biso   1.000  N
  N24      1.0000 0.14430  0.38380  0.20820  Biso   1.000  N
  N25      1.0000 0.75590  0.52760  0.74770  Biso   1.000  N
  N26      1.0000 0.24410  0.47240  0.25230  Biso   1.000  N
  N27      1.0000 0.66190  0.44240  0.70930  Biso   1.000  N
  N28      1.0000 0.33810  0.55760  0.29070  Biso   1.000  N
  N29      1.0000 0.41380  0.93700  0.10710  Biso   1.000  N
  N30      1.0000 0.58620  0.06300  0.89290  Biso   1.000  N
  N31      1.0000 0.47280  0.89220  0.20020  Biso   1.000  N
  N32      1.0000 0.52720  0.10780  0.79980  Biso   1.000  N
  N33      1.0000 0.52170  0.85380  0.28760  Biso   1.000  N
  N34      1.0000 0.47830  0.14620  0.71240  Biso   1.000  N
  N35      1.0000 0.29660  0.99630  0.89630  Biso   1.000  N
  N36      1.0000 0.70340  0.00370  0.10370  Biso   1.000  N
  N37      1.0000 0.22700  0.03650  0.80350  Biso   1.000  N
  N38      1.0000 0.77300  0.96350  0.19650  Biso   1.000  N
  N39      1.0000 0.16700  0.10900  0.74900  Biso   1.000  N
  N40      1.0000 0.83300  0.89100  0.25100  Biso   1.000  N
  N41      1.0000 0.97100  0.61300  0.27800  Biso   1.000  N
  N42      1.0000 0.02900  0.38700  0.72200  Biso   1.000  N
  N43      1.0000 0.15000  0.03600  0.68100  Biso   1.000  N
  N44      1.0000 0.85000  0.96400  0.31900  Biso   1.000  N
