data_image0
_cell_length_a       16.59
_cell_length_b       9.22
_cell_length_c       19.78
_cell_angle_alpha    90
_cell_angle_beta     103.71
_cell_angle_gamma    90

_symmetry_space_group_name_H-M    "P 1"
_symmetry_int_tables_number       1

loop_
  _symmetry_equiv_pos_as_xyz
  'x, y, z'

loop_
  _atom_site_label
  _atom_site_occupancy
  _atom_site_fract_x
  _atom_site_fract_y
  _atom_site_fract_z
  _atom_site_thermal_displace_type
  _atom_site_B_iso_or_equiv
  _atom_site_type_symbol
  Cu1      1.0000 0.25000  0.25000  0.50000  Biso   1.000  Cu
  Cu2      1.0000 0.75000  0.25000  0.00000  Biso   1.000  Cu
  Cu3      1.0000 0.75000  0.75000  0.50000  Biso   1.000  Cu
  Cu4      1.0000 0.25000  0.75000  0.00000  Biso   1.000  Cu
  C1       1.0000 0.37030  0.37110  0.28990  Biso   1.000  C
  C2       1.0000 0.62970  0.37110  0.21010  Biso   1.000  C
  C3       1.0000 0.87030  0.87110  0.28990  Biso   1.000  C
  C4       1.0000 0.12970  0.87110  0.21010  Biso   1.000  C
  C5       1.0000 0.62970  0.62890  0.71010  Biso   1.000  C
  C6       1.0000 0.37030  0.62890  0.78990  Biso   1.000  C
  C7       1.0000 0.12970  0.12890  0.71010  Biso   1.000  C
  C8       1.0000 0.87030  0.12890  0.78990  Biso   1.000  C
  H1       1.0000 0.40350  0.43680  0.31980  Biso   1.000  H
  H2       1.0000 0.59650  0.43680  0.18020  Biso   1.000  H
  H3       1.0000 0.90350  0.93680  0.31980  Biso   1.000  H
  H4       1.0000 0.09650  0.93680  0.18020  Biso   1.000  H
  H5       1.0000 0.59650  0.56320  0.68020  Biso   1.000  H
  H6       1.0000 0.40350  0.56320  0.81980  Biso   1.000  H
  H7       1.0000 0.09650  0.06320  0.68020  Biso   1.000  H
  H8       1.0000 0.90350  0.06320  0.81980  Biso   1.000  H
  C9       1.0000 0.37950  0.35360  0.22250  Biso   1.000  C
  C10      1.0000 0.62050  0.35360  0.27750  Biso   1.000  C
  C11      1.0000 0.87950  0.85360  0.22250  Biso   1.000  C
  C12      1.0000 0.12050  0.85360  0.27750  Biso   1.000  C
  C13      1.0000 0.62050  0.64640  0.77750  Biso   1.000  C
  C14      1.0000 0.37950  0.64640  0.72250  Biso   1.000  C
  C15      1.0000 0.12050  0.14640  0.77750  Biso   1.000  C
  C16      1.0000 0.87950  0.14640  0.72250  Biso   1.000  C
  H9       1.0000 0.41980  0.40690  0.20780  Biso   1.000  H
  H10      1.0000 0.58020  0.40690  0.29220  Biso   1.000  H
  H11      1.0000 0.91980  0.90690  0.20780  Biso   1.000  H
  H12      1.0000 0.08020  0.90690  0.29220  Biso   1.000  H
  H13      1.0000 0.58020  0.59310  0.79220  Biso   1.000  H
  H14      1.0000 0.41980  0.59310  0.70780  Biso   1.000  H
  H15      1.0000 0.08020  0.09310  0.79220  Biso   1.000  H
  H16      1.0000 0.91980  0.09310  0.70780  Biso   1.000  H
  C17      1.0000 0.33080  0.25990  0.17750  Biso   1.000  C
  C18      1.0000 0.66920  0.25990  0.32250  Biso   1.000  C
  C19      1.0000 0.83080  0.75990  0.17750  Biso   1.000  C
  C20      1.0000 0.16920  0.75990  0.32250  Biso   1.000  C
  C21      1.0000 0.66920  0.74010  0.82250  Biso   1.000  C
  C22      1.0000 0.33080  0.74010  0.67750  Biso   1.000  C
  C23      1.0000 0.16920  0.24010  0.82250  Biso   1.000  C
  C24      1.0000 0.83080  0.24010  0.67750  Biso   1.000  C
  H17      1.0000 0.33690  0.25090  0.13210  Biso   1.000  H
  H18      1.0000 0.66310  0.25090  0.36790  Biso   1.000  H
  H19      1.0000 0.83690  0.75090  0.13210  Biso   1.000  H
  H20      1.0000 0.16310  0.75090  0.36790  Biso   1.000  H
  H21      1.0000 0.66310  0.74910  0.86790  Biso   1.000  H
  H22      1.0000 0.33690  0.74910  0.63210  Biso   1.000  H
  H23      1.0000 0.16310  0.24910  0.86790  Biso   1.000  H
  H24      1.0000 0.83690  0.24910  0.63210  Biso   1.000  H
  C25      1.0000 0.27380  0.18040  0.19930  Biso   1.000  C
  C26      1.0000 0.72620  0.18040  0.30070  Biso   1.000  C
  C27      1.0000 0.77380  0.68040  0.19930  Biso   1.000  C
  C28      1.0000 0.22620  0.68040  0.30070  Biso   1.000  C
  C29      1.0000 0.72620  0.81960  0.80070  Biso   1.000  C
  C30      1.0000 0.27380  0.81960  0.69930  Biso   1.000  C
  C31      1.0000 0.22620  0.31960  0.80070  Biso   1.000  C
  C32      1.0000 0.77380  0.31960  0.69930  Biso   1.000  C
  H25      1.0000 0.24020  0.11630  0.16880  Biso   1.000  H
  H26      1.0000 0.75980  0.11630  0.33120  Biso   1.000  H
  H27      1.0000 0.74020  0.61630  0.16880  Biso   1.000  H
  H28      1.0000 0.25980  0.61630  0.33120  Biso   1.000  H
  H29      1.0000 0.75980  0.88370  0.83120  Biso   1.000  H
  H30      1.0000 0.24020  0.88370  0.66880  Biso   1.000  H
  H31      1.0000 0.25980  0.38370  0.83120  Biso   1.000  H
  H32      1.0000 0.74020  0.38370  0.66880  Biso   1.000  H
  C33      1.0000 0.26490  0.19360  0.26649  Biso   1.000  C
  C34      1.0000 0.73510  0.19360  0.23351  Biso   1.000  C
  C35      1.0000 0.76490  0.69360  0.26649  Biso   1.000  C
  C36      1.0000 0.23510  0.69360  0.23351  Biso   1.000  C
  C37      1.0000 0.73510  0.80640  0.73351  Biso   1.000  C
  C38      1.0000 0.26490  0.80640  0.76649  Biso   1.000  C
  C39      1.0000 0.23510  0.30640  0.73351  Biso   1.000  C
  C40      1.0000 0.76490  0.30640  0.76649  Biso   1.000  C
  H33      1.0000 0.22650  0.13550  0.28120  Biso   1.000  H
  H34      1.0000 0.77350  0.13550  0.21880  Biso   1.000  H
  H35      1.0000 0.72650  0.63550  0.28120  Biso   1.000  H
  H36      1.0000 0.27350  0.63550  0.21880  Biso   1.000  H
  H37      1.0000 0.77350  0.86450  0.71880  Biso   1.000  H
  H38      1.0000 0.22650  0.86450  0.78120  Biso   1.000  H
  H39      1.0000 0.27350  0.36450  0.71880  Biso   1.000  H
  H40      1.0000 0.72650  0.36450  0.78120  Biso   1.000  H
  C41      1.0000 0.31170  0.29080  0.31251  Biso   1.000  C
  C42      1.0000 0.68830  0.29080  0.18749  Biso   1.000  C
  C43      1.0000 0.81170  0.79080  0.31251  Biso   1.000  C
  C44      1.0000 0.18830  0.79080  0.18749  Biso   1.000  C
  C45      1.0000 0.68830  0.70920  0.68749  Biso   1.000  C
  C46      1.0000 0.31170  0.70920  0.81251  Biso   1.000  C
  C47      1.0000 0.18830  0.20920  0.68749  Biso   1.000  C
  C48      1.0000 0.81170  0.20920  0.81251  Biso   1.000  C
  C49      1.0000 0.30080  0.30360  0.38630  Biso   1.000  C
  C50      1.0000 0.69920  0.30360  0.11370  Biso   1.000  C
  C51      1.0000 0.80080  0.80360  0.38630  Biso   1.000  C
  C52      1.0000 0.19920  0.80360  0.11370  Biso   1.000  C
  C53      1.0000 0.69920  0.69640  0.61370  Biso   1.000  C
  C54      1.0000 0.30080  0.69640  0.88630  Biso   1.000  C
  C55      1.0000 0.19920  0.19640  0.61370  Biso   1.000  C
  C56      1.0000 0.80080  0.19640  0.88630  Biso   1.000  C
  C57      1.0000 0.07790  0.30140  0.41648  Biso   1.000  C
  C58      1.0000 0.92210  0.30140  0.08352  Biso   1.000  C
  C59      1.0000 0.57790  0.80140  0.41648  Biso   1.000  C
  C60      1.0000 0.42210  0.80140  0.08352  Biso   1.000  C
  C61      1.0000 0.92210  0.69860  0.58352  Biso   1.000  C
  C62      1.0000 0.07790  0.69860  0.91648  Biso   1.000  C
  C63      1.0000 0.42210  0.19860  0.58352  Biso   1.000  C
  C64      1.0000 0.57790  0.19860  0.91648  Biso   1.000  C
  C65      1.0000 0.06880  0.15090  0.39170  Biso   1.000  C
  C66      1.0000 0.93120  0.15090  0.10830  Biso   1.000  C
  C67      1.0000 0.56880  0.65090  0.39170  Biso   1.000  C
  C68      1.0000 0.43120  0.65090  0.10830  Biso   1.000  C
  C69      1.0000 0.93120  0.84910  0.60830  Biso   1.000  C
  C70      1.0000 0.06880  0.84910  0.89170  Biso   1.000  C
  C71      1.0000 0.43120  0.34910  0.60830  Biso   1.000  C
  C72      1.0000 0.56880  0.34910  0.89170  Biso   1.000  C
  H41      1.0000 0.01520  0.13830  0.36080  Biso   1.000  H
  H42      1.0000 0.98480  0.13830  0.13920  Biso   1.000  H
  H43      1.0000 0.51520  0.63830  0.36080  Biso   1.000  H
  H44      1.0000 0.48480  0.63830  0.13920  Biso   1.000  H
  H45      1.0000 0.98480  0.86170  0.63920  Biso   1.000  H
  H46      1.0000 0.01520  0.86170  0.86080  Biso   1.000  H
  H47      1.0000 0.48480  0.36170  0.63920  Biso   1.000  H
  H48      1.0000 0.51520  0.36170  0.86080  Biso   1.000  H
  H49      1.0000 0.07430  0.08660  0.43070  Biso   1.000  H
  H50      1.0000 0.92570  0.08660  0.06930  Biso   1.000  H
  H51      1.0000 0.57430  0.58660  0.43070  Biso   1.000  H
  H52      1.0000 0.42570  0.58660  0.06930  Biso   1.000  H
  H53      1.0000 0.92570  0.91340  0.56930  Biso   1.000  H
  H54      1.0000 0.07430  0.91340  0.93070  Biso   1.000  H
  H55      1.0000 0.42570  0.41340  0.56930  Biso   1.000  H
  H56      1.0000 0.57430  0.41340  0.93070  Biso   1.000  H
  H57      1.0000 0.11110  0.12940  0.36750  Biso   1.000  H
  H58      1.0000 0.88890  0.12940  0.13250  Biso   1.000  H
  H59      1.0000 0.61110  0.62940  0.36750  Biso   1.000  H
  H60      1.0000 0.38890  0.62940  0.13250  Biso   1.000  H
  H61      1.0000 0.88890  0.87060  0.63250  Biso   1.000  H
  H62      1.0000 0.11110  0.87060  0.86750  Biso   1.000  H
  H63      1.0000 0.38890  0.37060  0.63250  Biso   1.000  H
  H64      1.0000 0.61110  0.37060  0.86750  Biso   1.000  H
  C73      1.0000 0.04560  0.52950  0.43074  Biso   1.000  C
  C74      1.0000 0.95440  0.52950  0.06926  Biso   1.000  C
  C75      1.0000 0.54560  0.02950  0.43074  Biso   1.000  C
  C76      1.0000 0.45440  0.02950  0.06926  Biso   1.000  C
  C77      1.0000 0.95440  0.47050  0.56926  Biso   1.000  C
  C78      1.0000 0.04560  0.47050  0.93074  Biso   1.000  C
  C79      1.0000 0.45440  0.97050  0.56926  Biso   1.000  C
  C80      1.0000 0.54560  0.97050  0.93074  Biso   1.000  C
  C81      1.0000 0.00960  0.66490  0.43140  Biso   1.000  C
  C82      1.0000 0.99040  0.66490  0.06860  Biso   1.000  C
  C83      1.0000 0.50960  0.16490  0.43140  Biso   1.000  C
  C84      1.0000 0.49040  0.16490  0.06860  Biso   1.000  C
  C85      1.0000 0.99040  0.33510  0.56860  Biso   1.000  C
  C86      1.0000 0.00960  0.33510  0.93140  Biso   1.000  C
  C87      1.0000 0.49040  0.83510  0.56860  Biso   1.000  C
  C88      1.0000 0.50960  0.83510  0.93140  Biso   1.000  C
  H65      1.0000 0.95640  0.68430  0.40500  Biso   1.000  H
  H66      1.0000 0.04360  0.68430  0.09500  Biso   1.000  H
  H67      1.0000 0.45640  0.18430  0.40500  Biso   1.000  H
  H68      1.0000 0.54360  0.18430  0.09500  Biso   1.000  H
  H69      1.0000 0.04360  0.31570  0.59500  Biso   1.000  H
  H70      1.0000 0.95640  0.31570  0.90500  Biso   1.000  H
  H71      1.0000 0.54360  0.81570  0.59500  Biso   1.000  H
  H72      1.0000 0.45640  0.81570  0.90500  Biso   1.000  H
  C89      1.0000 0.05550  0.76840  0.47260  Biso   1.000  C
  C90      1.0000 0.94450  0.76840  0.02740  Biso   1.000  C
  C91      1.0000 0.55550  0.26840  0.47260  Biso   1.000  C
  C92      1.0000 0.44450  0.26840  0.02740  Biso   1.000  C
  C93      1.0000 0.94450  0.23160  0.52740  Biso   1.000  C
  C94      1.0000 0.05550  0.23160  0.97260  Biso   1.000  C
  C95      1.0000 0.44450  0.73160  0.52740  Biso   1.000  C
  C96      1.0000 0.55550  0.73160  0.97260  Biso   1.000  C
  H73      1.0000 0.03290  0.86020  0.47450  Biso   1.000  H
  H74      1.0000 0.96710  0.86020  0.02550  Biso   1.000  H
  H75      1.0000 0.53290  0.36020  0.47450  Biso   1.000  H
  H76      1.0000 0.46710  0.36020  0.02550  Biso   1.000  H
  H77      1.0000 0.96710  0.13980  0.52550  Biso   1.000  H
  H78      1.0000 0.03290  0.13980  0.97450  Biso   1.000  H
  H79      1.0000 0.46710  0.63980  0.52550  Biso   1.000  H
  H80      1.0000 0.53290  0.63980  0.97450  Biso   1.000  H
  C97      1.0000 0.13550  0.73990  0.51180  Biso   1.000  C
  C98      1.0000 0.86450  0.73990  0.98820  Biso   1.000  C
  C99      1.0000 0.63550  0.23990  0.51180  Biso   1.000  C
  C100     1.0000 0.36450  0.23990  0.98820  Biso   1.000  C
  C101     1.0000 0.86450  0.26010  0.48820  Biso   1.000  C
  C102     1.0000 0.13550  0.26010  0.01180  Biso   1.000  C
  C103     1.0000 0.36450  0.76010  0.48820  Biso   1.000  C
  C104     1.0000 0.63550  0.76010  0.01180  Biso   1.000  C
  H81      1.0000 0.16500  0.81380  0.53880  Biso   1.000  H
  H82      1.0000 0.83500  0.81380  0.96120  Biso   1.000  H
  H83      1.0000 0.66500  0.31380  0.53880  Biso   1.000  H
  H84      1.0000 0.33500  0.31380  0.96120  Biso   1.000  H
  H85      1.0000 0.83500  0.18620  0.46120  Biso   1.000  H
  H86      1.0000 0.16500  0.18620  0.03880  Biso   1.000  H
  H87      1.0000 0.33500  0.68620  0.46120  Biso   1.000  H
  H88      1.0000 0.66500  0.68620  0.03880  Biso   1.000  H
  C105     1.0000 0.17220  0.60550  0.51175  Biso   1.000  C
  C106     1.0000 0.82780  0.60550  0.98825  Biso   1.000  C
  C107     1.0000 0.67220  0.10550  0.51175  Biso   1.000  C
  C108     1.0000 0.32780  0.10550  0.98825  Biso   1.000  C
  C109     1.0000 0.82780  0.39450  0.48825  Biso   1.000  C
  C110     1.0000 0.17220  0.39450  0.01175  Biso   1.000  C
  C111     1.0000 0.32780  0.89450  0.48825  Biso   1.000  C
  C112     1.0000 0.67220  0.89450  0.01175  Biso   1.000  C
  H89      1.0000 0.22550  0.58710  0.53810  Biso   1.000  H
  H90      1.0000 0.77450  0.58710  0.96190  Biso   1.000  H
  H91      1.0000 0.72550  0.08710  0.53810  Biso   1.000  H
  H92      1.0000 0.27450  0.08710  0.96190  Biso   1.000  H
  H93      1.0000 0.77450  0.41290  0.46190  Biso   1.000  H
  H94      1.0000 0.22550  0.41290  0.03810  Biso   1.000  H
  H95      1.0000 0.27450  0.91290  0.46190  Biso   1.000  H
  H96      1.0000 0.72550  0.91290  0.03810  Biso   1.000  H
  C113     1.0000 0.12570  0.50010  0.47074  Biso   1.000  C
  C114     1.0000 0.87430  0.50010  0.02926  Biso   1.000  C
  C115     1.0000 0.62570  0.00010  0.47074  Biso   1.000  C
  C116     1.0000 0.37430  0.00010  0.02926  Biso   1.000  C
  C117     1.0000 0.87430  0.49990  0.52926  Biso   1.000  C
  C118     1.0000 0.12570  0.49990  0.97074  Biso   1.000  C
  C119     1.0000 0.37430  0.99990  0.52926  Biso   1.000  C
  C120     1.0000 0.62570  0.99990  0.97074  Biso   1.000  C
  C121     1.0000 0.93720  0.38350  0.34631  Biso   1.000  C
  C122     1.0000 0.06280  0.38350  0.15369  Biso   1.000  C
  C123     1.0000 0.43720  0.88350  0.34631  Biso   1.000  C
  C124     1.0000 0.56280  0.88350  0.15369  Biso   1.000  C
  C125     1.0000 0.06280  0.61650  0.65369  Biso   1.000  C
  C126     1.0000 0.93720  0.61650  0.84631  Biso   1.000  C
  C127     1.0000 0.56280  0.11650  0.65369  Biso   1.000  C
  C128     1.0000 0.43720  0.11650  0.84631  Biso   1.000  C
  H97      1.0000 0.89440  0.43580  0.36220  Biso   1.000  H
  H98      1.0000 0.10560  0.43580  0.13780  Biso   1.000  H
  H99      1.0000 0.39440  0.93580  0.36220  Biso   1.000  H
  H100     1.0000 0.60560  0.93580  0.13780  Biso   1.000  H
  H101     1.0000 0.10560  0.56420  0.63780  Biso   1.000  H
  H102     1.0000 0.89440  0.56420  0.86220  Biso   1.000  H
  H103     1.0000 0.60560  0.06420  0.63780  Biso   1.000  H
  H104     1.0000 0.39440  0.06420  0.86220  Biso   1.000  H
  H105     1.0000 0.92230  0.28150  0.34310  Biso   1.000  H
  H106     1.0000 0.07770  0.28150  0.15690  Biso   1.000  H
  H107     1.0000 0.42230  0.78150  0.34310  Biso   1.000  H
  H108     1.0000 0.57770  0.78150  0.15690  Biso   1.000  H
  H109     1.0000 0.07770  0.71850  0.65690  Biso   1.000  H
  H110     1.0000 0.92230  0.71850  0.84310  Biso   1.000  H
  H111     1.0000 0.57770  0.21850  0.65690  Biso   1.000  H
  H112     1.0000 0.42230  0.21850  0.84310  Biso   1.000  H
  C129     1.0000 0.94110  0.43790  0.27600  Biso   1.000  C
  C130     1.0000 0.05890  0.43790  0.22400  Biso   1.000  C
  C131     1.0000 0.44110  0.93790  0.27600  Biso   1.000  C
  C132     1.0000 0.55890  0.93790  0.22400  Biso   1.000  C
  C133     1.0000 0.05890  0.56210  0.72400  Biso   1.000  C
  C134     1.0000 0.94110  0.56210  0.77600  Biso   1.000  C
  C135     1.0000 0.55890  0.06210  0.72400  Biso   1.000  C
  C136     1.0000 0.44110  0.06210  0.77600  Biso   1.000  C
  H113     1.0000 0.88700  0.42850  0.24430  Biso   1.000  H
  H114     1.0000 0.11300  0.42850  0.25570  Biso   1.000  H
  H115     1.0000 0.38700  0.92850  0.24430  Biso   1.000  H
  H116     1.0000 0.61300  0.92850  0.25570  Biso   1.000  H
  H117     1.0000 0.11300  0.57150  0.75570  Biso   1.000  H
  H118     1.0000 0.88700  0.57150  0.74430  Biso   1.000  H
  H119     1.0000 0.61300  0.07150  0.75570  Biso   1.000  H
  H120     1.0000 0.38700  0.07150  0.74430  Biso   1.000  H
  H121     1.0000 0.95600  0.53980  0.27910  Biso   1.000  H
  H122     1.0000 0.04400  0.53980  0.22090  Biso   1.000  H
  H123     1.0000 0.45600  0.03980  0.27910  Biso   1.000  H
  H124     1.0000 0.54400  0.03980  0.22090  Biso   1.000  H
  H125     1.0000 0.04400  0.46020  0.72090  Biso   1.000  H
  H126     1.0000 0.95600  0.46020  0.77910  Biso   1.000  H
  H127     1.0000 0.54400  0.96020  0.72090  Biso   1.000  H
  H128     1.0000 0.45600  0.96020  0.77910  Biso   1.000  H
  N1       1.0000 0.14423  0.35450  0.46045  Biso   1.000  N
  N2       1.0000 0.85577  0.35450  0.03955  Biso   1.000  N
  N3       1.0000 0.64423  0.85450  0.46045  Biso   1.000  N
  N4       1.0000 0.35577  0.85450  0.03955  Biso   1.000  N
  N5       1.0000 0.85577  0.64550  0.53955  Biso   1.000  N
  N6       1.0000 0.14423  0.64550  0.96045  Biso   1.000  N
  N7       1.0000 0.35577  0.14550  0.53955  Biso   1.000  N
  N8       1.0000 0.64423  0.14550  0.96045  Biso   1.000  N
  N9       1.0000 0.01684  0.40180  0.39700  Biso   1.000  N
  N10      1.0000 0.98316  0.40180  0.10300  Biso   1.000  N
  N11      1.0000 0.51684  0.90180  0.39700  Biso   1.000  N
  N12      1.0000 0.48316  0.90180  0.10300  Biso   1.000  N
  N13      1.0000 0.98316  0.59820  0.60300  Biso   1.000  N
  N14      1.0000 0.01684  0.59820  0.89700  Biso   1.000  N
  N15      1.0000 0.48316  0.09820  0.60300  Biso   1.000  N
  N16      1.0000 0.51684  0.09820  0.89700  Biso   1.000  N
  O1       1.0000 0.33166  0.40670  0.42305  Biso   1.000  O
  O2       1.0000 0.66834  0.40670  0.07695  Biso   1.000  O
  O3       1.0000 0.83166  0.90670  0.42305  Biso   1.000  O
  O4       1.0000 0.16834  0.90670  0.07695  Biso   1.000  O
  O5       1.0000 0.66834  0.59330  0.57695  Biso   1.000  O
  O6       1.0000 0.33166  0.59330  0.92305  Biso   1.000  O
  O7       1.0000 0.16834  0.09330  0.57695  Biso   1.000  O
  O8       1.0000 0.83166  0.09330  0.92305  Biso   1.000  O
  O9       1.0000 0.25959  0.20380  0.40586  Biso   1.000  O
  O10      1.0000 0.74041  0.20380  0.09414  Biso   1.000  O
  O11      1.0000 0.75959  0.70380  0.40586  Biso   1.000  O
  O12      1.0000 0.24041  0.70380  0.09414  Biso   1.000  O
  O13      1.0000 0.74041  0.79620  0.59414  Biso   1.000  O
  O14      1.0000 0.25959  0.79620  0.90586  Biso   1.000  O
  O15      1.0000 0.24041  0.29620  0.59414  Biso   1.000  O
  O16      1.0000 0.75959  0.29620  0.90586  Biso   1.000  O
  O17      1.0000 0.00000  0.35900  0.25000  Biso   1.000  O
  O18      1.0000 0.50000  0.85900  0.25000  Biso   1.000  O
  O19      1.0000 0.00000  0.64100  0.75000  Biso   1.000  O
  O20      1.0000 0.50000  0.14100  0.75000  Biso   1.000  O
