data_image0
_cell_length_a       16.004
_cell_length_b       10.356
_cell_length_c       19.881
_cell_angle_alpha    90
_cell_angle_beta     105.62
_cell_angle_gamma    90

_symmetry_space_group_name_H-M    "P 1"
_symmetry_int_tables_number       1

loop_
  _symmetry_equiv_pos_as_xyz
  'x, y, z'

loop_
  _atom_site_label
  _atom_site_occupancy
  _atom_site_fract_x
  _atom_site_fract_y
  _atom_site_fract_z
  _atom_site_thermal_displace_type
  _atom_site_B_iso_or_equiv
  _atom_site_type_symbol
  Cu1      1.0000 0.25000  0.25000  0.50000  Biso   1.000  Cu
  Cu2      1.0000 0.75000  0.25000  0.00000  Biso   1.000  Cu
  Cu3      1.0000 0.75000  0.75000  0.50000  Biso   1.000  Cu
  Cu4      1.0000 0.25000  0.75000  0.00000  Biso   1.000  Cu
  O1       1.0000 0.32340  0.39110  0.41460  Biso   1.000  O
  O2       1.0000 0.67660  0.39110  0.08540  Biso   1.000  O
  O3       1.0000 0.82340  0.89110  0.41460  Biso   1.000  O
  O4       1.0000 0.17660  0.89110  0.08540  Biso   1.000  O
  O5       1.0000 0.67660  0.60890  0.58540  Biso   1.000  O
  O6       1.0000 0.32340  0.60890  0.91460  Biso   1.000  O
  O7       1.0000 0.17660  0.10890  0.58540  Biso   1.000  O
  O8       1.0000 0.82340  0.10890  0.91460  Biso   1.000  O
  O9       1.0000 0.26170  0.20110  0.40782  Biso   1.000  O
  O10      1.0000 0.73830  0.20110  0.09218  Biso   1.000  O
  O11      1.0000 0.76170  0.70110  0.40782  Biso   1.000  O
  O12      1.0000 0.23830  0.70110  0.09218  Biso   1.000  O
  O13      1.0000 0.73830  0.79890  0.59218  Biso   1.000  O
  O14      1.0000 0.26170  0.79890  0.90782  Biso   1.000  O
  O15      1.0000 0.23830  0.29890  0.59218  Biso   1.000  O
  O16      1.0000 0.76170  0.29890  0.90782  Biso   1.000  O
  O17      1.0000 0.00000  0.35750  0.25000  Biso   1.000  O
  O18      1.0000 0.50000  0.85750  0.25000  Biso   1.000  O
  O19      1.0000 0.00000  0.64250  0.75000  Biso   1.000  O
  O20      1.0000 0.50000  0.14250  0.75000  Biso   1.000  O
  N1       1.0000 0.00820  0.38650  0.39040  Biso   1.000  N
  N2       1.0000 0.99180  0.38650  0.10960  Biso   1.000  N
  N3       1.0000 0.50820  0.88650  0.39040  Biso   1.000  N
  N4       1.0000 0.49180  0.88650  0.10960  Biso   1.000  N
  N5       1.0000 0.99180  0.61350  0.60960  Biso   1.000  N
  N6       1.0000 0.00820  0.61350  0.89040  Biso   1.000  N
  N7       1.0000 0.49180  0.11350  0.60960  Biso   1.000  N
  N8       1.0000 0.50820  0.11350  0.89040  Biso   1.000  N
  N9       1.0000 0.14010  0.33990  0.45540  Biso   1.000  N
  N10      1.0000 0.85990  0.33990  0.04460  Biso   1.000  N
  N11      1.0000 0.64010  0.83990  0.45540  Biso   1.000  N
  N12      1.0000 0.35990  0.83990  0.04460  Biso   1.000  N
  N13      1.0000 0.85990  0.66010  0.54460  Biso   1.000  N
  N14      1.0000 0.14010  0.66010  0.95540  Biso   1.000  N
  N15      1.0000 0.35990  0.16010  0.54460  Biso   1.000  N
  N16      1.0000 0.64010  0.16010  0.95540  Biso   1.000  N
  C1       1.0000 0.35730  0.35110  0.28400  Biso   1.000  C
  C2       1.0000 0.64270  0.35110  0.21600  Biso   1.000  C
  C3       1.0000 0.85730  0.85110  0.28400  Biso   1.000  C
  C4       1.0000 0.14270  0.85110  0.21600  Biso   1.000  C
  C5       1.0000 0.64270  0.64890  0.71600  Biso   1.000  C
  C6       1.0000 0.35730  0.64890  0.78400  Biso   1.000  C
  C7       1.0000 0.14270  0.14890  0.71600  Biso   1.000  C
  C8       1.0000 0.85730  0.14890  0.78400  Biso   1.000  C
  H1       1.0000 0.38680  0.41830  0.31130  Biso   1.000  H
  H2       1.0000 0.61320  0.41830  0.18870  Biso   1.000  H
  H3       1.0000 0.88680  0.91830  0.31130  Biso   1.000  H
  H4       1.0000 0.11320  0.91830  0.18870  Biso   1.000  H
  H5       1.0000 0.61320  0.58170  0.68870  Biso   1.000  H
  H6       1.0000 0.38680  0.58170  0.81130  Biso   1.000  H
  H7       1.0000 0.11320  0.08170  0.68870  Biso   1.000  H
  H8       1.0000 0.88680  0.08170  0.81130  Biso   1.000  H
  C9       1.0000 0.36700  0.33230  0.21680  Biso   1.000  C
  C10      1.0000 0.63300  0.33230  0.28320  Biso   1.000  C
  C11      1.0000 0.86700  0.83230  0.21680  Biso   1.000  C
  C12      1.0000 0.13300  0.83230  0.28320  Biso   1.000  C
  C13      1.0000 0.63300  0.66770  0.78320  Biso   1.000  C
  C14      1.0000 0.36700  0.66770  0.71680  Biso   1.000  C
  C15      1.0000 0.13300  0.16770  0.78320  Biso   1.000  C
  C16      1.0000 0.86700  0.16770  0.71680  Biso   1.000  C
  H9       1.0000 0.40290  0.38570  0.19940  Biso   1.000  H
  H10      1.0000 0.59710  0.38570  0.30060  Biso   1.000  H
  H11      1.0000 0.90290  0.88570  0.19940  Biso   1.000  H
  H12      1.0000 0.09710  0.88570  0.30060  Biso   1.000  H
  H13      1.0000 0.59710  0.61430  0.80060  Biso   1.000  H
  H14      1.0000 0.40290  0.61430  0.69940  Biso   1.000  H
  H15      1.0000 0.09710  0.11430  0.80060  Biso   1.000  H
  H16      1.0000 0.90290  0.11430  0.69940  Biso   1.000  H
  C17      1.0000 0.32340  0.23600  0.17840  Biso   1.000  C
  C18      1.0000 0.67660  0.23600  0.32160  Biso   1.000  C
  C19      1.0000 0.82340  0.73600  0.17840  Biso   1.000  C
  C20      1.0000 0.17660  0.73600  0.32160  Biso   1.000  C
  C21      1.0000 0.67660  0.76400  0.82160  Biso   1.000  C
  C22      1.0000 0.32340  0.76400  0.67840  Biso   1.000  C
  C23      1.0000 0.17660  0.26400  0.82160  Biso   1.000  C
  C24      1.0000 0.82340  0.26400  0.67840  Biso   1.000  C
  H17      1.0000 0.33050  0.22310  0.13390  Biso   1.000  H
  H18      1.0000 0.66950  0.22310  0.36610  Biso   1.000  H
  H19      1.0000 0.83050  0.72310  0.13390  Biso   1.000  H
  H20      1.0000 0.16950  0.72310  0.36610  Biso   1.000  H
  H21      1.0000 0.66950  0.77690  0.86610  Biso   1.000  H
  H22      1.0000 0.33050  0.77690  0.63390  Biso   1.000  H
  H23      1.0000 0.16950  0.27690  0.86610  Biso   1.000  H
  H24      1.0000 0.83050  0.27690  0.63390  Biso   1.000  H
  C25      1.0000 0.26950  0.15610  0.20060  Biso   1.000  C
  C26      1.0000 0.73050  0.15610  0.29940  Biso   1.000  C
  C27      1.0000 0.76950  0.65610  0.20060  Biso   1.000  C
  C28      1.0000 0.23050  0.65610  0.29940  Biso   1.000  C
  C29      1.0000 0.73050  0.84390  0.79940  Biso   1.000  C
  C30      1.0000 0.26950  0.84390  0.70060  Biso   1.000  C
  C31      1.0000 0.23050  0.34390  0.79940  Biso   1.000  C
  C32      1.0000 0.76950  0.34390  0.70060  Biso   1.000  C
  H25      1.0000 0.23840  0.09180  0.17190  Biso   1.000  H
  H26      1.0000 0.76160  0.09180  0.32810  Biso   1.000  H
  H27      1.0000 0.73840  0.59180  0.17190  Biso   1.000  H
  H28      1.0000 0.26160  0.59180  0.32810  Biso   1.000  H
  H29      1.0000 0.76160  0.90820  0.82810  Biso   1.000  H
  H30      1.0000 0.23840  0.90820  0.67190  Biso   1.000  H
  H31      1.0000 0.26160  0.40820  0.82810  Biso   1.000  H
  H32      1.0000 0.73840  0.40820  0.67190  Biso   1.000  H
  C33      1.0000 0.26250  0.17450  0.26880  Biso   1.000  C
  C34      1.0000 0.73750  0.17450  0.23120  Biso   1.000  C
  C35      1.0000 0.76250  0.67450  0.26880  Biso   1.000  C
  C36      1.0000 0.23750  0.67450  0.23120  Biso   1.000  C
  C37      1.0000 0.73750  0.82550  0.73120  Biso   1.000  C
  C38      1.0000 0.26250  0.82550  0.76880  Biso   1.000  C
  C39      1.0000 0.23750  0.32550  0.73120  Biso   1.000  C
  C40      1.0000 0.76250  0.32550  0.76880  Biso   1.000  C
  H33      1.0000 0.22810  0.11880  0.28650  Biso   1.000  H
  H34      1.0000 0.77190  0.11880  0.21350  Biso   1.000  H
  H35      1.0000 0.72810  0.61880  0.28650  Biso   1.000  H
  H36      1.0000 0.27190  0.61880  0.21350  Biso   1.000  H
  H37      1.0000 0.77190  0.88120  0.71350  Biso   1.000  H
  H38      1.0000 0.22810  0.88120  0.78650  Biso   1.000  H
  H39      1.0000 0.27190  0.38120  0.71350  Biso   1.000  H
  H40      1.0000 0.72810  0.38120  0.78650  Biso   1.000  H
  C41      1.0000 0.30550  0.27260  0.30970  Biso   1.000  C
  C42      1.0000 0.69450  0.27260  0.19030  Biso   1.000  C
  C43      1.0000 0.80550  0.77260  0.30970  Biso   1.000  C
  C44      1.0000 0.19450  0.77260  0.19030  Biso   1.000  C
  C45      1.0000 0.69450  0.72740  0.69030  Biso   1.000  C
  C46      1.0000 0.30550  0.72740  0.80970  Biso   1.000  C
  C47      1.0000 0.19450  0.22740  0.69030  Biso   1.000  C
  C48      1.0000 0.80550  0.22740  0.80970  Biso   1.000  C
  C49      1.0000 0.29700  0.29220  0.38270  Biso   1.000  C
  C50      1.0000 0.70300  0.29220  0.11730  Biso   1.000  C
  C51      1.0000 0.79700  0.79220  0.38270  Biso   1.000  C
  C52      1.0000 0.20300  0.79220  0.11730  Biso   1.000  C
  C53      1.0000 0.70300  0.70780  0.61730  Biso   1.000  C
  C54      1.0000 0.29700  0.70780  0.88270  Biso   1.000  C
  C55      1.0000 0.20300  0.20780  0.61730  Biso   1.000  C
  C56      1.0000 0.79700  0.20780  0.88270  Biso   1.000  C
  C57      1.0000 0.05370  0.71010  0.46470  Biso   1.000  C
  C58      1.0000 0.94630  0.71010  0.03530  Biso   1.000  C
  C59      1.0000 0.55370  0.21010  0.46470  Biso   1.000  C
  C60      1.0000 0.44630  0.21010  0.03530  Biso   1.000  C
  C61      1.0000 0.94630  0.28990  0.53530  Biso   1.000  C
  C62      1.0000 0.05370  0.28990  0.96470  Biso   1.000  C
  C63      1.0000 0.44630  0.78990  0.53530  Biso   1.000  C
  C64      1.0000 0.55370  0.78990  0.96470  Biso   1.000  C
  H41      1.0000 0.03120  0.79270  0.46570  Biso   1.000  H
  H42      1.0000 0.96880  0.79270  0.03430  Biso   1.000  H
  H43      1.0000 0.53120  0.29270  0.46570  Biso   1.000  H
  H44      1.0000 0.46880  0.29270  0.03430  Biso   1.000  H
  H45      1.0000 0.96880  0.20730  0.53430  Biso   1.000  H
  H46      1.0000 0.03120  0.20730  0.96570  Biso   1.000  H
  H47      1.0000 0.46880  0.70730  0.53430  Biso   1.000  H
  H48      1.0000 0.53120  0.70730  0.96570  Biso   1.000  H
  C65      1.0000 0.13720  0.68330  0.50590  Biso   1.000  C
  C66      1.0000 0.86280  0.68330  0.99410  Biso   1.000  C
  C67      1.0000 0.63720  0.18330  0.50590  Biso   1.000  C
  C68      1.0000 0.36280  0.18330  0.99410  Biso   1.000  C
  C69      1.0000 0.86280  0.31670  0.49410  Biso   1.000  C
  C70      1.0000 0.13720  0.31670  0.00590  Biso   1.000  C
  C71      1.0000 0.36280  0.81670  0.49410  Biso   1.000  C
  C72      1.0000 0.63720  0.81670  0.00590  Biso   1.000  C
  H49      1.0000 0.16900  0.74870  0.53340  Biso   1.000  H
  H50      1.0000 0.83100  0.74870  0.96660  Biso   1.000  H
  H51      1.0000 0.66900  0.24870  0.53340  Biso   1.000  H
  H52      1.0000 0.33100  0.24870  0.96660  Biso   1.000  H
  H53      1.0000 0.83100  0.25130  0.46660  Biso   1.000  H
  H54      1.0000 0.16900  0.25130  0.03340  Biso   1.000  H
  H55      1.0000 0.33100  0.75130  0.46660  Biso   1.000  H
  H56      1.0000 0.66900  0.75130  0.03340  Biso   1.000  H
  C73      1.0000 0.17360  0.56380  0.50710  Biso   1.000  C
  C74      1.0000 0.82640  0.56380  0.99290  Biso   1.000  C
  C75      1.0000 0.67360  0.06380  0.50710  Biso   1.000  C
  C76      1.0000 0.32640  0.06380  0.99290  Biso   1.000  C
  C77      1.0000 0.82640  0.43620  0.49290  Biso   1.000  C
  C78      1.0000 0.17360  0.43620  0.00710  Biso   1.000  C
  C79      1.0000 0.32640  0.93620  0.49290  Biso   1.000  C
  C80      1.0000 0.67360  0.93620  0.00710  Biso   1.000  C
  H57      1.0000 0.22950  0.54680  0.53440  Biso   1.000  H
  H58      1.0000 0.77050  0.54680  0.96560  Biso   1.000  H
  H59      1.0000 0.72950  0.04680  0.53440  Biso   1.000  H
  H60      1.0000 0.27050  0.04680  0.96560  Biso   1.000  H
  H61      1.0000 0.77050  0.45320  0.46560  Biso   1.000  H
  H62      1.0000 0.22950  0.45320  0.03440  Biso   1.000  H
  H63      1.0000 0.27050  0.95320  0.46560  Biso   1.000  H
  H64      1.0000 0.72950  0.95320  0.03440  Biso   1.000  H
  C81      1.0000 0.12370  0.46890  0.46600  Biso   1.000  C
  C82      1.0000 0.87630  0.46890  0.03400  Biso   1.000  C
  C83      1.0000 0.62370  0.96890  0.46600  Biso   1.000  C
  C84      1.0000 0.37630  0.96890  0.03400  Biso   1.000  C
  C85      1.0000 0.87630  0.53110  0.53400  Biso   1.000  C
  C86      1.0000 0.12370  0.53110  0.96600  Biso   1.000  C
  C87      1.0000 0.37630  0.03110  0.53400  Biso   1.000  C
  C88      1.0000 0.62370  0.03110  0.96600  Biso   1.000  C
  C89      1.0000 0.07140  0.29410  0.40990  Biso   1.000  C
  C90      1.0000 0.92860  0.29410  0.09010  Biso   1.000  C
  C91      1.0000 0.57140  0.79410  0.40990  Biso   1.000  C
  C92      1.0000 0.42860  0.79410  0.09010  Biso   1.000  C
  C93      1.0000 0.92860  0.70590  0.59010  Biso   1.000  C
  C94      1.0000 0.07140  0.70590  0.90990  Biso   1.000  C
  C95      1.0000 0.42860  0.20590  0.59010  Biso   1.000  C
  C96      1.0000 0.57140  0.20590  0.90990  Biso   1.000  C
  C97      1.0000 0.06210  0.15840  0.37920  Biso   1.000  C
  C98      1.0000 0.93790  0.15840  0.12080  Biso   1.000  C
  C99      1.0000 0.56210  0.65840  0.37920  Biso   1.000  C
  C100     1.0000 0.43790  0.65840  0.12080  Biso   1.000  C
  C101     1.0000 0.93790  0.84160  0.62080  Biso   1.000  C
  C102     1.0000 0.06210  0.84160  0.87920  Biso   1.000  C
  C103     1.0000 0.43790  0.34160  0.62080  Biso   1.000  C
  C104     1.0000 0.56210  0.34160  0.87920  Biso   1.000  C
  H65      1.0000 0.02220  0.16040  0.33290  Biso   1.000  H
  H66      1.0000 0.97780  0.16040  0.16710  Biso   1.000  H
  H67      1.0000 0.52220  0.66040  0.33290  Biso   1.000  H
  H68      1.0000 0.47780  0.66040  0.16710  Biso   1.000  H
  H69      1.0000 0.97780  0.83960  0.66710  Biso   1.000  H
  H70      1.0000 0.02220  0.83960  0.83290  Biso   1.000  H
  H71      1.0000 0.47780  0.33960  0.66710  Biso   1.000  H
  H72      1.0000 0.52220  0.33960  0.83290  Biso   1.000  H
  H73      1.0000 0.11800  0.12950  0.37470  Biso   1.000  H
  H74      1.0000 0.88200  0.12950  0.12530  Biso   1.000  H
  H75      1.0000 0.61800  0.62950  0.37470  Biso   1.000  H
  H76      1.0000 0.38200  0.62950  0.12530  Biso   1.000  H
  H77      1.0000 0.88200  0.87050  0.62530  Biso   1.000  H
  H78      1.0000 0.11800  0.87050  0.87470  Biso   1.000  H
  H79      1.0000 0.38200  0.37050  0.62530  Biso   1.000  H
  H80      1.0000 0.61800  0.37050  0.87470  Biso   1.000  H
  C105     1.0000 0.03170  0.07040  0.42080  Biso   1.000  C
  C106     1.0000 0.96830  0.07040  0.07920  Biso   1.000  C
  C107     1.0000 0.53170  0.57040  0.42080  Biso   1.000  C
  C108     1.0000 0.46830  0.57040  0.07920  Biso   1.000  C
  C109     1.0000 0.96830  0.92960  0.57920  Biso   1.000  C
  C110     1.0000 0.03170  0.92960  0.92080  Biso   1.000  C
  C111     1.0000 0.46830  0.42960  0.57920  Biso   1.000  C
  C112     1.0000 0.53170  0.42960  0.92080  Biso   1.000  C
  H81      1.0000 0.02920  0.98560  0.40080  Biso   1.000  H
  H82      1.0000 0.97080  0.98560  0.09920  Biso   1.000  H
  H83      1.0000 0.52920  0.48560  0.40080  Biso   1.000  H
  H84      1.0000 0.47080  0.48560  0.09920  Biso   1.000  H
  H85      1.0000 0.97080  0.01440  0.59920  Biso   1.000  H
  H86      1.0000 0.02920  0.01440  0.90080  Biso   1.000  H
  H87      1.0000 0.47080  0.51440  0.59920  Biso   1.000  H
  H88      1.0000 0.52920  0.51440  0.90080  Biso   1.000  H
  H89      1.0000 0.97480  0.09570  0.42290  Biso   1.000  H
  H90      1.0000 0.02520  0.09570  0.07710  Biso   1.000  H
  H91      1.0000 0.47480  0.59570  0.42290  Biso   1.000  H
  H92      1.0000 0.52520  0.59570  0.07710  Biso   1.000  H
  H93      1.0000 0.02520  0.90430  0.57710  Biso   1.000  H
  H94      1.0000 0.97480  0.90430  0.92290  Biso   1.000  H
  H95      1.0000 0.52520  0.40430  0.57710  Biso   1.000  H
  H96      1.0000 0.47480  0.40430  0.92290  Biso   1.000  H
  H97      1.0000 0.07030  0.06970  0.46710  Biso   1.000  H
  H98      1.0000 0.92970  0.06970  0.03290  Biso   1.000  H
  H99      1.0000 0.57030  0.56970  0.46710  Biso   1.000  H
  H100     1.0000 0.42970  0.56970  0.03290  Biso   1.000  H
  H101     1.0000 0.92970  0.93030  0.53290  Biso   1.000  H
  H102     1.0000 0.07030  0.93030  0.96710  Biso   1.000  H
  H103     1.0000 0.42970  0.43030  0.53290  Biso   1.000  H
  H104     1.0000 0.57030  0.43030  0.96710  Biso   1.000  H
  C113     1.0000 0.92550  0.37760  0.33620  Biso   1.000  C
  C114     1.0000 0.07450  0.37760  0.16380  Biso   1.000  C
  C115     1.0000 0.42550  0.87760  0.33620  Biso   1.000  C
  C116     1.0000 0.57450  0.87760  0.16380  Biso   1.000  C
  C117     1.0000 0.07450  0.62240  0.66380  Biso   1.000  C
  C118     1.0000 0.92550  0.62240  0.83620  Biso   1.000  C
  C119     1.0000 0.57450  0.12240  0.66380  Biso   1.000  C
  C120     1.0000 0.42550  0.12240  0.83620  Biso   1.000  C
  H105     1.0000 0.88170  0.42770  0.35000  Biso   1.000  H
  H106     1.0000 0.11830  0.42770  0.15000  Biso   1.000  H
  H107     1.0000 0.38170  0.92770  0.35000  Biso   1.000  H
  H108     1.0000 0.61830  0.92770  0.15000  Biso   1.000  H
  H109     1.0000 0.11830  0.57230  0.65000  Biso   1.000  H
  H110     1.0000 0.88170  0.57230  0.85000  Biso   1.000  H
  H111     1.0000 0.61830  0.07230  0.65000  Biso   1.000  H
  H112     1.0000 0.38170  0.07230  0.85000  Biso   1.000  H
  H113     1.0000 0.90640  0.28840  0.33070  Biso   1.000  H
  H114     1.0000 0.09360  0.28840  0.16930  Biso   1.000  H
  H115     1.0000 0.40640  0.78840  0.33070  Biso   1.000  H
  H116     1.0000 0.59360  0.78840  0.16930  Biso   1.000  H
  H117     1.0000 0.09360  0.71160  0.66930  Biso   1.000  H
  H118     1.0000 0.90640  0.71160  0.83070  Biso   1.000  H
  H119     1.0000 0.59360  0.21160  0.66930  Biso   1.000  H
  H120     1.0000 0.40640  0.21160  0.83070  Biso   1.000  H
  C121     1.0000 0.93610  0.42740  0.26850  Biso   1.000  C
  C122     1.0000 0.06390  0.42740  0.23150  Biso   1.000  C
  C123     1.0000 0.43610  0.92740  0.26850  Biso   1.000  C
  C124     1.0000 0.56390  0.92740  0.23150  Biso   1.000  C
  C125     1.0000 0.06390  0.57260  0.73150  Biso   1.000  C
  C126     1.0000 0.93610  0.57260  0.76850  Biso   1.000  C
  C127     1.0000 0.56390  0.07260  0.73150  Biso   1.000  C
  C128     1.0000 0.43610  0.07260  0.76850  Biso   1.000  C
  H121     1.0000 0.88180  0.41940  0.23250  Biso   1.000  H
  H122     1.0000 0.11820  0.41940  0.26750  Biso   1.000  H
  H123     1.0000 0.38180  0.91940  0.23250  Biso   1.000  H
  H124     1.0000 0.61820  0.91940  0.26750  Biso   1.000  H
  H125     1.0000 0.11820  0.58060  0.76750  Biso   1.000  H
  H126     1.0000 0.88180  0.58060  0.73250  Biso   1.000  H
  H127     1.0000 0.61820  0.08060  0.76750  Biso   1.000  H
  H128     1.0000 0.38180  0.08060  0.73250  Biso   1.000  H
  H129     1.0000 0.95200  0.51810  0.27320  Biso   1.000  H
  H130     1.0000 0.04800  0.51810  0.22680  Biso   1.000  H
  H131     1.0000 0.45200  0.01810  0.27320  Biso   1.000  H
  H132     1.0000 0.54800  0.01810  0.22680  Biso   1.000  H
  H133     1.0000 0.04800  0.48190  0.72680  Biso   1.000  H
  H134     1.0000 0.95200  0.48190  0.77320  Biso   1.000  H
  H135     1.0000 0.54800  0.98190  0.72680  Biso   1.000  H
  H136     1.0000 0.45200  0.98190  0.77320  Biso   1.000  H
  C129     1.0000 0.00370  0.61780  0.42260  Biso   1.000  C
  C130     1.0000 0.99630  0.61780  0.07740  Biso   1.000  C
  C131     1.0000 0.50370  0.11780  0.42260  Biso   1.000  C
  C132     1.0000 0.49630  0.11780  0.07740  Biso   1.000  C
  C133     1.0000 0.99630  0.38220  0.57740  Biso   1.000  C
  C134     1.0000 0.00370  0.38220  0.92260  Biso   1.000  C
  C135     1.0000 0.49630  0.88220  0.57740  Biso   1.000  C
  C136     1.0000 0.50370  0.88220  0.92260  Biso   1.000  C
  H137     1.0000 0.94820  0.63580  0.39470  Biso   1.000  H
  H138     1.0000 0.05180  0.63580  0.10530  Biso   1.000  H
  H139     1.0000 0.44820  0.13580  0.39470  Biso   1.000  H
  H140     1.0000 0.55180  0.13580  0.10530  Biso   1.000  H
  H141     1.0000 0.05180  0.36420  0.60530  Biso   1.000  H
  H142     1.0000 0.94820  0.36420  0.89470  Biso   1.000  H
  H143     1.0000 0.55180  0.86420  0.60530  Biso   1.000  H
  H144     1.0000 0.44820  0.86420  0.89470  Biso   1.000  H
  C137     1.0000 0.04000  0.49870  0.42400  Biso   1.000  C
  C138     1.0000 0.96000  0.49870  0.07600  Biso   1.000  C
  C139     1.0000 0.54000  0.99870  0.42400  Biso   1.000  C
  C140     1.0000 0.46000  0.99870  0.07600  Biso   1.000  C
  C141     1.0000 0.96000  0.50130  0.57600  Biso   1.000  C
  C142     1.0000 0.04000  0.50130  0.92400  Biso   1.000  C
  C143     1.0000 0.46000  0.00130  0.57600  Biso   1.000  C
  C144     1.0000 0.54000  0.00130  0.92400  Biso   1.000  C
