data_image0
_cell_length_a       12.2706
_cell_length_b       15.3391
_cell_length_c       17.3953
_cell_angle_alpha    90
_cell_angle_beta     90
_cell_angle_gamma    90

_symmetry_space_group_name_H-M    "P 1"
_symmetry_int_tables_number       1

loop_
  _symmetry_equiv_pos_as_xyz
  'x, y, z'

loop_
  _atom_site_label
  _atom_site_occupancy
  _atom_site_fract_x
  _atom_site_fract_y
  _atom_site_fract_z
  _atom_site_thermal_displace_type
  _atom_site_B_iso_or_equiv
  _atom_site_type_symbol
  Cu1      1.0000 0.14605  0.18092  0.26389  Biso   1.000  Cu
  Cu2      1.0000 0.35395  0.81908  0.76389  Biso   1.000  Cu
  Cu3      1.0000 0.64605  0.31908  0.73611  Biso   1.000  Cu
  Cu4      1.0000 0.85395  0.68092  0.23611  Biso   1.000  Cu
  Cu5      1.0000 0.85395  0.81908  0.73611  Biso   1.000  Cu
  Cu6      1.0000 0.64605  0.18092  0.23611  Biso   1.000  Cu
  Cu7      1.0000 0.35395  0.68092  0.26389  Biso   1.000  Cu
  Cu8      1.0000 0.14605  0.31908  0.76389  Biso   1.000  Cu
  O1       1.0000 0.32160  0.28950  0.30300  Biso   1.000  O
  O2       1.0000 0.17840  0.71050  0.80300  Biso   1.000  O
  O3       1.0000 0.82160  0.21050  0.69700  Biso   1.000  O
  O4       1.0000 0.67840  0.78950  0.19700  Biso   1.000  O
  O5       1.0000 0.67840  0.71050  0.69700  Biso   1.000  O
  O6       1.0000 0.82160  0.28950  0.19700  Biso   1.000  O
  O7       1.0000 0.17840  0.78950  0.30300  Biso   1.000  O
  O8       1.0000 0.32160  0.21050  0.80300  Biso   1.000  O
  O9       1.0000 0.38180  0.41490  0.26930  Biso   1.000  O
  O10      1.0000 0.11820  0.58510  0.76930  Biso   1.000  O
  O11      1.0000 0.88180  0.08510  0.73070  Biso   1.000  O
  O12      1.0000 0.61820  0.91490  0.23070  Biso   1.000  O
  O13      1.0000 0.61820  0.58510  0.73070  Biso   1.000  O
  O14      1.0000 0.88180  0.41490  0.23070  Biso   1.000  O
  O15      1.0000 0.11820  0.91490  0.26930  Biso   1.000  O
  O16      1.0000 0.38180  0.08510  0.76930  Biso   1.000  O
  O17      1.0000 0.21620  0.40130  0.30300  Biso   1.000  O
  O18      1.0000 0.28380  0.59870  0.80300  Biso   1.000  O
  O19      1.0000 0.71620  0.09870  0.69700  Biso   1.000  O
  O20      1.0000 0.78380  0.90130  0.19700  Biso   1.000  O
  O21      1.0000 0.78380  0.59870  0.69700  Biso   1.000  O
  O22      1.0000 0.71620  0.40130  0.19700  Biso   1.000  O
  O23      1.0000 0.28380  0.90130  0.30300  Biso   1.000  O
  O24      1.0000 0.21620  0.09870  0.80300  Biso   1.000  O
  O25      1.0000 0.99510  0.10290  0.21020  Biso   1.000  O
  O26      1.0000 0.50490  0.89710  0.71020  Biso   1.000  O
  O27      1.0000 0.49510  0.39710  0.78980  Biso   1.000  O
  O28      1.0000 0.00490  0.60290  0.28980  Biso   1.000  O
  O29      1.0000 0.00490  0.89710  0.78980  Biso   1.000  O
  O30      1.0000 0.49510  0.10290  0.28980  Biso   1.000  O
  O31      1.0000 0.50490  0.60290  0.21020  Biso   1.000  O
  O32      1.0000 0.99510  0.39710  0.71020  Biso   1.000  O
  O33      1.0000 0.05220  0.08450  0.09400  Biso   1.000  O
  O34      1.0000 0.44780  0.91550  0.59400  Biso   1.000  O
  O35      1.0000 0.55220  0.41550  0.90600  Biso   1.000  O
  O36      1.0000 0.94780  0.58450  0.40600  Biso   1.000  O
  O37      1.0000 0.94780  0.91550  0.90600  Biso   1.000  O
  O38      1.0000 0.55220  0.08450  0.40600  Biso   1.000  O
  O39      1.0000 0.44780  0.58450  0.09400  Biso   1.000  O
  O40      1.0000 0.05220  0.41550  0.59400  Biso   1.000  O
  O41      1.0000 0.88710  0.09790  0.11530  Biso   1.000  O
  O42      1.0000 0.61290  0.90210  0.61530  Biso   1.000  O
  O43      1.0000 0.38710  0.40210  0.88470  Biso   1.000  O
  O44      1.0000 0.11290  0.59790  0.38470  Biso   1.000  O
  O45      1.0000 0.11290  0.90210  0.88470  Biso   1.000  O
  O46      1.0000 0.38710  0.09790  0.38470  Biso   1.000  O
  O47      1.0000 0.61290  0.59790  0.11530  Biso   1.000  O
  O48      1.0000 0.88710  0.40210  0.61530  Biso   1.000  O
  N1       1.0000 0.26830  0.18000  0.05405  Biso   1.000  N
  N2       1.0000 0.23170  0.82000  0.55405  Biso   1.000  N
  N3       1.0000 0.76830  0.32000  0.94595  Biso   1.000  N
  N4       1.0000 0.73170  0.68000  0.44595  Biso   1.000  N
  N5       1.0000 0.73170  0.82000  0.94595  Biso   1.000  N
  N6       1.0000 0.76830  0.18000  0.44595  Biso   1.000  N
  N7       1.0000 0.23170  0.68000  0.05405  Biso   1.000  N
  N8       1.0000 0.26830  0.32000  0.55405  Biso   1.000  N
  N9       1.0000 0.21100  0.25630  0.04400  Biso   1.000  N
  N10      1.0000 0.28900  0.74370  0.54400  Biso   1.000  N
  N11      1.0000 0.71100  0.24370  0.95600  Biso   1.000  N
  N12      1.0000 0.78900  0.75630  0.45600  Biso   1.000  N
  N13      1.0000 0.78900  0.74370  0.95600  Biso   1.000  N
  N14      1.0000 0.71100  0.25630  0.45600  Biso   1.000  N
  N15      1.0000 0.28900  0.75630  0.04400  Biso   1.000  N
  N16      1.0000 0.21100  0.24370  0.54400  Biso   1.000  N
  N17      1.0000 0.16770  0.27630  0.10900  Biso   1.000  N
  N18      1.0000 0.33230  0.72370  0.60900  Biso   1.000  N
  N19      1.0000 0.66770  0.22370  0.89100  Biso   1.000  N
  N20      1.0000 0.83230  0.77630  0.39100  Biso   1.000  N
  N21      1.0000 0.83230  0.72370  0.89100  Biso   1.000  N
  N22      1.0000 0.66770  0.27630  0.39100  Biso   1.000  N
  N23      1.0000 0.33230  0.77630  0.10900  Biso   1.000  N
  N24      1.0000 0.16770  0.22370  0.60900  Biso   1.000  N
  N25      1.0000 0.19570  0.21700  0.16244  Biso   1.000  N
  N26      1.0000 0.30430  0.78300  0.66244  Biso   1.000  N
  N27      1.0000 0.69570  0.28300  0.83756  Biso   1.000  N
  N28      1.0000 0.80430  0.71700  0.33756  Biso   1.000  N
  N29      1.0000 0.80430  0.78300  0.83756  Biso   1.000  N
  N30      1.0000 0.69570  0.21700  0.33756  Biso   1.000  N
  N31      1.0000 0.30430  0.71700  0.16244  Biso   1.000  N
  N32      1.0000 0.19570  0.28300  0.66244  Biso   1.000  N
  N33      1.0000 0.29680  0.08940  0.16680  Biso   1.000  N
  N34      1.0000 0.20320  0.91060  0.66680  Biso   1.000  N
  N35      1.0000 0.79680  0.41060  0.83320  Biso   1.000  N
  N36      1.0000 0.70320  0.58940  0.33320  Biso   1.000  N
  N37      1.0000 0.70320  0.91060  0.83320  Biso   1.000  N
  N38      1.0000 0.79680  0.08940  0.33320  Biso   1.000  N
  N39      1.0000 0.20320  0.58940  0.16680  Biso   1.000  N
  N40      1.0000 0.29680  0.41060  0.66680  Biso   1.000  N
  N41      1.0000 0.25230  0.08580  0.24430  Biso   1.000  N
  N42      1.0000 0.24770  0.91420  0.74430  Biso   1.000  N
  N43      1.0000 0.75230  0.41420  0.75570  Biso   1.000  N
  N44      1.0000 0.74770  0.58580  0.25570  Biso   1.000  N
  N45      1.0000 0.74770  0.91420  0.75570  Biso   1.000  N
  N46      1.0000 0.75230  0.08580  0.25570  Biso   1.000  N
  N47      1.0000 0.24770  0.58580  0.24430  Biso   1.000  N
  N48      1.0000 0.25230  0.41420  0.74430  Biso   1.000  N
  N49      1.0000 0.60660  0.14660  0.13200  Biso   1.000  N
  N50      1.0000 0.89340  0.85340  0.63200  Biso   1.000  N
  N51      1.0000 0.10660  0.35340  0.86800  Biso   1.000  N
  N52      1.0000 0.39340  0.64660  0.36800  Biso   1.000  N
  N53      1.0000 0.39340  0.85340  0.86800  Biso   1.000  N
  N54      1.0000 0.10660  0.14660  0.36800  Biso   1.000  N
  N55      1.0000 0.89340  0.64660  0.13200  Biso   1.000  N
  N56      1.0000 0.60660  0.35340  0.63200  Biso   1.000  N
  N57      1.0000 0.62650  0.07840  0.08400  Biso   1.000  N
  N58      1.0000 0.87350  0.92160  0.58400  Biso   1.000  N
  N59      1.0000 0.12650  0.42160  0.91600  Biso   1.000  N
  N60      1.0000 0.37350  0.57840  0.41600  Biso   1.000  N
  N61      1.0000 0.37350  0.92160  0.91600  Biso   1.000  N
  N62      1.0000 0.12650  0.07840  0.41600  Biso   1.000  N
  N63      1.0000 0.87350  0.57840  0.08400  Biso   1.000  N
  N64      1.0000 0.62650  0.42160  0.58400  Biso   1.000  N
  N65      1.0000 0.56820  0.08740  0.02277  Biso   1.000  N
  N66      1.0000 0.93180  0.91260  0.52277  Biso   1.000  N
  N67      1.0000 0.06820  0.41260  0.97723  Biso   1.000  N
  N68      1.0000 0.43180  0.58740  0.47723  Biso   1.000  N
  N69      1.0000 0.43180  0.91260  0.97723  Biso   1.000  N
  N70      1.0000 0.06820  0.08740  0.47723  Biso   1.000  N
  N71      1.0000 0.93180  0.58740  0.02277  Biso   1.000  N
  N72      1.0000 0.56820  0.41260  0.52277  Biso   1.000  N
  N73      1.0000 0.51010  0.16380  0.02994  Biso   1.000  N
  N74      1.0000 0.98990  0.83620  0.52994  Biso   1.000  N
  N75      1.0000 0.01010  0.33620  0.97006  Biso   1.000  N
  N76      1.0000 0.48990  0.66380  0.47006  Biso   1.000  N
  N77      1.0000 0.48990  0.83620  0.97006  Biso   1.000  N
  N78      1.0000 0.01010  0.16380  0.47006  Biso   1.000  N
  N79      1.0000 0.98990  0.66380  0.02994  Biso   1.000  N
  N80      1.0000 0.51010  0.33620  0.52994  Biso   1.000  N
  N81      1.0000 0.49440  0.26930  0.13380  Biso   1.000  N
  N82      1.0000 0.00560  0.73070  0.63380  Biso   1.000  N
  N83      1.0000 0.99440  0.23070  0.86620  Biso   1.000  N
  N84      1.0000 0.50560  0.76930  0.36620  Biso   1.000  N
  N85      1.0000 0.50560  0.73070  0.86620  Biso   1.000  N
  N86      1.0000 0.99440  0.26930  0.36620  Biso   1.000  N
  N87      1.0000 0.00560  0.76930  0.13380  Biso   1.000  N
  N88      1.0000 0.49440  0.23070  0.63380  Biso   1.000  N
  N89      1.0000 0.54480  0.28010  0.20920  Biso   1.000  N
  N90      1.0000 0.95520  0.71990  0.70920  Biso   1.000  N
  N91      1.0000 0.04480  0.21990  0.79080  Biso   1.000  N
  N92      1.0000 0.45520  0.78010  0.29080  Biso   1.000  N
  N93      1.0000 0.45520  0.71990  0.79080  Biso   1.000  N
  N94      1.0000 0.04480  0.28010  0.29080  Biso   1.000  N
  N95      1.0000 0.95520  0.78010  0.20920  Biso   1.000  N
  N96      1.0000 0.54480  0.21990  0.70920  Biso   1.000  N
  N97      1.0000 0.30780  0.36770  0.29130  Biso   1.000  N
  N98      1.0000 0.19220  0.63230  0.79130  Biso   1.000  N
  N99      1.0000 0.80780  0.13230  0.70870  Biso   1.000  N
  N100     1.0000 0.69220  0.86770  0.20870  Biso   1.000  N
  N101     1.0000 0.69220  0.63230  0.70870  Biso   1.000  N
  N102     1.0000 0.80780  0.36770  0.20870  Biso   1.000  N
  N103     1.0000 0.19220  0.86770  0.29130  Biso   1.000  N
  N104     1.0000 0.30780  0.13230  0.79130  Biso   1.000  N
  N105     1.0000 0.97760  0.09420  0.14040  Biso   1.000  N
  N106     1.0000 0.52240  0.90580  0.64040  Biso   1.000  N
  N107     1.0000 0.47760  0.40580  0.85960  Biso   1.000  N
  N108     1.0000 0.02240  0.59420  0.35960  Biso   1.000  N
  N109     1.0000 0.02240  0.90580  0.85960  Biso   1.000  N
  N110     1.0000 0.47760  0.09420  0.35960  Biso   1.000  N
  N111     1.0000 0.52240  0.59420  0.14040  Biso   1.000  N
  N112     1.0000 0.97760  0.40580  0.64040  Biso   1.000  N
  C1       1.0000 0.25600  0.15600  0.12840  Biso   1.000  C
  C2       1.0000 0.24400  0.84400  0.62840  Biso   1.000  C
  C3       1.0000 0.75600  0.34400  0.87160  Biso   1.000  C
  C4       1.0000 0.74400  0.65600  0.37160  Biso   1.000  C
  C5       1.0000 0.74400  0.84400  0.87160  Biso   1.000  C
  C6       1.0000 0.75600  0.15600  0.37160  Biso   1.000  C
  C7       1.0000 0.24400  0.65600  0.12840  Biso   1.000  C
  C8       1.0000 0.25600  0.34400  0.62840  Biso   1.000  C
  C9       1.0000 0.32090  0.14240  0.98610  Biso   1.000  C
  C10      1.0000 0.17910  0.85760  0.48610  Biso   1.000  C
  C11      1.0000 0.82090  0.35760  0.01390  Biso   1.000  C
  C12      1.0000 0.67910  0.64240  0.51390  Biso   1.000  C
  C13      1.0000 0.67910  0.85760  0.01390  Biso   1.000  C
  C14      1.0000 0.82090  0.14240  0.51390  Biso   1.000  C
  C15      1.0000 0.17910  0.64240  0.98610  Biso   1.000  C
  C16      1.0000 0.32090  0.35760  0.48610  Biso   1.000  C
  C17      1.0000 0.43060  0.18330  0.97020  Biso   1.000  C
  C18      1.0000 0.06940  0.81670  0.47020  Biso   1.000  C
  C19      1.0000 0.93060  0.31670  0.02980  Biso   1.000  C
  C20      1.0000 0.56940  0.68330  0.52980  Biso   1.000  C
  C21      1.0000 0.56940  0.81670  0.02980  Biso   1.000  C
  C22      1.0000 0.93060  0.18330  0.52980  Biso   1.000  C
  C23      1.0000 0.06940  0.68330  0.97020  Biso   1.000  C
  C24      1.0000 0.43060  0.31670  0.47020  Biso   1.000  C
  C25      1.0000 0.35050  0.01160  0.13980  Biso   1.000  C
  C26      1.0000 0.14950  0.98840  0.63980  Biso   1.000  C
  C27      1.0000 0.85050  0.48840  0.86020  Biso   1.000  C
  C28      1.0000 0.64950  0.51160  0.36020  Biso   1.000  C
  C29      1.0000 0.64950  0.98840  0.86020  Biso   1.000  C
  C30      1.0000 0.85050  0.01160  0.36020  Biso   1.000  C
  C31      1.0000 0.14950  0.51160  0.13980  Biso   1.000  C
  C32      1.0000 0.35050  0.48840  0.63980  Biso   1.000  C
  C33      1.0000 0.53540  0.19820  0.09810  Biso   1.000  C
  C34      1.0000 0.96460  0.80180  0.59810  Biso   1.000  C
  C35      1.0000 0.03540  0.30180  0.90190  Biso   1.000  C
  C36      1.0000 0.46460  0.69820  0.40190  Biso   1.000  C
  C37      1.0000 0.46460  0.80180  0.90190  Biso   1.000  C
  C38      1.0000 0.03540  0.19820  0.40190  Biso   1.000  C
  C39      1.0000 0.96460  0.69820  0.09810  Biso   1.000  C
  C40      1.0000 0.53540  0.30180  0.59810  Biso   1.000  C
  C41      1.0000 0.46710  0.35110  0.09460  Biso   1.000  C
  C42      1.0000 0.03290  0.64890  0.59460  Biso   1.000  C
  C43      1.0000 0.96710  0.14890  0.90540  Biso   1.000  C
  C44      1.0000 0.53290  0.85110  0.40540  Biso   1.000  C
  C45      1.0000 0.53290  0.64890  0.90540  Biso   1.000  C
  C46      1.0000 0.96710  0.35110  0.40540  Biso   1.000  C
  C47      1.0000 0.03290  0.85110  0.09460  Biso   1.000  C
  C48      1.0000 0.46710  0.14890  0.59460  Biso   1.000  C
  H1       1.0000 0.31000  0.08600  0.27900  Biso   1.000  H
  H2       1.0000 0.19000  0.91400  0.77900  Biso   1.000  H
  H3       1.0000 0.81000  0.41400  0.72100  Biso   1.000  H
  H4       1.0000 0.69000  0.58600  0.22100  Biso   1.000  H
  H5       1.0000 0.69000  0.91400  0.72100  Biso   1.000  H
  H6       1.0000 0.81000  0.08600  0.22100  Biso   1.000  H
  H7       1.0000 0.19000  0.58600  0.27900  Biso   1.000  H
  H8       1.0000 0.31000  0.41400  0.77900  Biso   1.000  H
  H9       1.0000 0.22100  0.04400  0.24600  Biso   1.000  H
  H10      1.0000 0.27900  0.95600  0.74600  Biso   1.000  H
  H11      1.0000 0.72100  0.45600  0.75400  Biso   1.000  H
  H12      1.0000 0.77900  0.54400  0.25400  Biso   1.000  H
  H13      1.0000 0.77900  0.95600  0.75400  Biso   1.000  H
  H14      1.0000 0.72100  0.04400  0.25400  Biso   1.000  H
  H15      1.0000 0.27900  0.54400  0.24600  Biso   1.000  H
  H16      1.0000 0.22100  0.45600  0.74600  Biso   1.000  H
  H17      1.0000 0.33000  0.08100  0.98900  Biso   1.000  H
  H18      1.0000 0.17000  0.91900  0.48900  Biso   1.000  H
  H19      1.0000 0.83000  0.41900  0.01100  Biso   1.000  H
  H20      1.0000 0.67000  0.58100  0.51100  Biso   1.000  H
  H21      1.0000 0.67000  0.91900  0.01100  Biso   1.000  H
  H22      1.0000 0.83000  0.08100  0.51100  Biso   1.000  H
  H23      1.0000 0.17000  0.58100  0.98900  Biso   1.000  H
  H24      1.0000 0.33000  0.41900  0.48900  Biso   1.000  H
  H25      1.0000 0.27500  0.15700  0.94700  Biso   1.000  H
  H26      1.0000 0.22500  0.84300  0.44700  Biso   1.000  H
  H27      1.0000 0.77500  0.34300  0.05300  Biso   1.000  H
  H28      1.0000 0.72500  0.65700  0.55300  Biso   1.000  H
  H29      1.0000 0.72500  0.84300  0.05300  Biso   1.000  H
  H30      1.0000 0.77500  0.15700  0.55300  Biso   1.000  H
  H31      1.0000 0.22500  0.65700  0.94700  Biso   1.000  H
  H32      1.0000 0.27500  0.34300  0.44700  Biso   1.000  H
  H33      1.0000 0.46300  0.15700  0.92700  Biso   1.000  H
  H34      1.0000 0.03700  0.84300  0.42700  Biso   1.000  H
  H35      1.0000 0.96300  0.34300  0.07300  Biso   1.000  H
  H36      1.0000 0.53700  0.65700  0.57300  Biso   1.000  H
  H37      1.0000 0.53700  0.84300  0.07300  Biso   1.000  H
  H38      1.0000 0.96300  0.15700  0.57300  Biso   1.000  H
  H39      1.0000 0.03700  0.65700  0.92700  Biso   1.000  H
  H40      1.0000 0.46300  0.34300  0.42700  Biso   1.000  H
  H41      1.0000 0.42100  0.24600  0.96300  Biso   1.000  H
  H42      1.0000 0.07900  0.75400  0.46300  Biso   1.000  H
  H43      1.0000 0.92100  0.25400  0.03700  Biso   1.000  H
  H44      1.0000 0.57900  0.74600  0.53700  Biso   1.000  H
  H45      1.0000 0.57900  0.75400  0.03700  Biso   1.000  H
  H46      1.0000 0.92100  0.24600  0.53700  Biso   1.000  H
  H47      1.0000 0.07900  0.74600  0.96300  Biso   1.000  H
  H48      1.0000 0.42100  0.25400  0.46300  Biso   1.000  H
  H49      1.0000 0.37089  0.97525  0.18381  Biso   1.000  H
  H50      1.0000 0.12911  0.02475  0.68381  Biso   1.000  H
  H51      1.0000 0.87089  0.52475  0.81619  Biso   1.000  H
  H52      1.0000 0.62911  0.47525  0.31619  Biso   1.000  H
  H53      1.0000 0.62911  0.02475  0.81619  Biso   1.000  H
  H54      1.0000 0.87089  0.97525  0.31619  Biso   1.000  H
  H55      1.0000 0.12911  0.47525  0.18381  Biso   1.000  H
  H56      1.0000 0.37089  0.52475  0.68381  Biso   1.000  H
  H57      1.0000 0.30095  0.97897  0.10623  Biso   1.000  H
  H58      1.0000 0.19905  0.02103  0.60623  Biso   1.000  H
  H59      1.0000 0.80095  0.52103  0.89377  Biso   1.000  H
  H60      1.0000 0.69905  0.47897  0.39377  Biso   1.000  H
  H61      1.0000 0.69905  0.02103  0.89377  Biso   1.000  H
  H62      1.0000 0.80095  0.97897  0.39377  Biso   1.000  H
  H63      1.0000 0.19905  0.47897  0.10623  Biso   1.000  H
  H64      1.0000 0.30095  0.52103  0.60623  Biso   1.000  H
  H65      1.0000 0.41607  0.02771  0.11096  Biso   1.000  H
  H66      1.0000 0.08393  0.97229  0.61096  Biso   1.000  H
  H67      1.0000 0.91607  0.47229  0.88904  Biso   1.000  H
  H68      1.0000 0.58393  0.52771  0.38904  Biso   1.000  H
  H69      1.0000 0.58393  0.97229  0.88904  Biso   1.000  H
  H70      1.0000 0.91607  0.02771  0.38904  Biso   1.000  H
  H71      1.0000 0.08393  0.52771  0.11096  Biso   1.000  H
  H72      1.0000 0.41607  0.47229  0.61096  Biso   1.000  H
  H73      1.0000 0.51687  0.39712  0.11171  Biso   1.000  H
  H74      1.0000 0.98313  0.60288  0.61171  Biso   1.000  H
  H75      1.0000 0.01687  0.10288  0.88829  Biso   1.000  H
  H76      1.0000 0.48313  0.89712  0.38829  Biso   1.000  H
  H77      1.0000 0.48313  0.60288  0.88829  Biso   1.000  H
  H78      1.0000 0.01687  0.39712  0.38829  Biso   1.000  H
  H79      1.0000 0.98313  0.89712  0.11171  Biso   1.000  H
  H80      1.0000 0.51687  0.10288  0.61171  Biso   1.000  H
  H81      1.0000 0.39199  0.36752  0.10699  Biso   1.000  H
  H82      1.0000 0.10801  0.63248  0.60699  Biso   1.000  H
  H83      1.0000 0.89199  0.13248  0.89301  Biso   1.000  H
  H84      1.0000 0.60801  0.86752  0.39301  Biso   1.000  H
  H85      1.0000 0.60801  0.63248  0.89301  Biso   1.000  H
  H86      1.0000 0.89199  0.36752  0.39301  Biso   1.000  H
  H87      1.0000 0.10801  0.86752  0.10699  Biso   1.000  H
  H88      1.0000 0.39199  0.13248  0.60699  Biso   1.000  H
  H89      1.0000 0.47429  0.34316  0.03893  Biso   1.000  H
  H90      1.0000 0.02571  0.65684  0.53893  Biso   1.000  H
  H91      1.0000 0.97429  0.15684  0.96107  Biso   1.000  H
  H92      1.0000 0.52571  0.84316  0.46107  Biso   1.000  H
  H93      1.0000 0.52571  0.65684  0.96107  Biso   1.000  H
  H94      1.0000 0.97429  0.34316  0.46107  Biso   1.000  H
  H95      1.0000 0.02571  0.84316  0.03893  Biso   1.000  H
  H96      1.0000 0.47429  0.15684  0.53893  Biso   1.000  H
  H97      1.0000 0.49300  0.28500  0.23600  Biso   1.000  H
  H98      1.0000 0.00700  0.71500  0.73600  Biso   1.000  H
  H99      1.0000 0.99300  0.21500  0.76400  Biso   1.000  H
  H100     1.0000 0.50700  0.78500  0.26400  Biso   1.000  H
  H101     1.0000 0.50700  0.71500  0.76400  Biso   1.000  H
  H102     1.0000 0.99300  0.28500  0.26400  Biso   1.000  H
  H103     1.0000 0.00700  0.78500  0.23600  Biso   1.000  H
  H104     1.0000 0.49300  0.21500  0.73600  Biso   1.000  H
  H105     1.0000 0.60900  0.33800  0.21100  Biso   1.000  H
  H106     1.0000 0.89100  0.66200  0.71100  Biso   1.000  H
  H107     1.0000 0.10900  0.16200  0.78900  Biso   1.000  H
  H108     1.0000 0.39100  0.83800  0.28900  Biso   1.000  H
  H109     1.0000 0.39100  0.66200  0.78900  Biso   1.000  H
  H110     1.0000 0.10900  0.33800  0.28900  Biso   1.000  H
  H111     1.0000 0.89100  0.83800  0.21100  Biso   1.000  H
  H112     1.0000 0.60900  0.16200  0.71100  Biso   1.000  H
  O49      1.0000 0.33580  0.49760  0.01420  Biso   1.000  O
  O50      1.0000 0.16420  0.50240  0.51420  Biso   1.000  O
  O51      1.0000 0.83580  0.00240  0.98580  Biso   1.000  O
  O52      1.0000 0.66420  0.99760  0.48580  Biso   1.000  O
  O53      1.0000 0.66420  0.50240  0.98580  Biso   1.000  O
  O54      1.0000 0.83580  0.49760  0.48580  Biso   1.000  O
  O55      1.0000 0.16420  0.99760  0.01420  Biso   1.000  O
  O56      1.0000 0.33580  0.00240  0.51420  Biso   1.000  O
