data_image0
_cell_length_a       3.75
_cell_length_b       11.638
_cell_length_c       12.144
_cell_angle_alpha    63.55
_cell_angle_beta     81.28
_cell_angle_gamma    82.34

_symmetry_space_group_name_H-M    "P 1"
_symmetry_int_tables_number       1

loop_
  _symmetry_equiv_pos_as_xyz
  'x, y, z'

loop_
  _atom_site_label
  _atom_site_occupancy
  _atom_site_fract_x
  _atom_site_fract_y
  _atom_site_fract_z
  _atom_site_thermal_displace_type
  _atom_site_B_iso_or_equiv
  _atom_site_type_symbol
  Cu1      1.0000 0.61113  0.70486  0.02774  Biso   1.000  Cu
  Cu2      1.0000 0.38887  0.29514  0.97226  Biso   1.000  Cu
  Cl1      1.0000 0.17400  0.85054  0.92318  Biso   1.000  Cl
  Cl2      1.0000 0.82600  0.14946  0.07682  Biso   1.000  Cl
  N1       1.0000 0.53670  0.74320  0.17330  Biso   1.000  N
  N2       1.0000 0.46330  0.25680  0.82670  Biso   1.000  N
  O1       1.0000 0.87660  0.54870  0.14130  Biso   1.000  O
  O2       1.0000 0.12340  0.45130  0.85870  Biso   1.000  O
  O3       1.0000 0.00250  0.44480  0.33750  Biso   1.000  O
  O4       1.0000 0.99750  0.55520  0.66250  Biso   1.000  O
  O5       1.0000 0.67130  0.63710  0.90520  Biso   1.000  O
  O6       1.0000 0.32870  0.36290  0.09480  Biso   1.000  O
  H1       1.0000 0.76650  0.58210  0.87910  Biso   1.000  H
  H2       1.0000 0.23350  0.41790  0.12090  Biso   1.000  H
  H3       1.0000 0.48620  0.67440  0.86710  Biso   1.000  H
  H4       1.0000 0.51380  0.32560  0.13290  Biso   1.000  H
  O7       1.0000 0.23000  0.21220  0.34240  Biso   1.000  O
  O8       1.0000 0.77000  0.78780  0.65760  Biso   1.000  O
  H5       1.0000 0.15840  0.28510  0.34110  Biso   1.000  H
  H6       1.0000 0.84160  0.71490  0.65890  Biso   1.000  H
  H7       1.0000 0.26140  0.25910  0.26500  Biso   1.000  H
  H8       1.0000 0.73860  0.74090  0.73500  Biso   1.000  H
  C1       1.0000 0.38030  0.85120  0.17900  Biso   1.000  C
  C2       1.0000 0.61970  0.14880  0.82100  Biso   1.000  C
  H9       1.0000 0.28890  0.91760  0.10940  Biso   1.000  H
  H10      1.0000 0.71110  0.08240  0.89060  Biso   1.000  H
  C3       1.0000 0.35330  0.86510  0.28940  Biso   1.000  C
  C4       1.0000 0.64670  0.13490  0.71060  Biso   1.000  C
  H11      1.0000 0.24760  0.94030  0.29330  Biso   1.000  H
  H12      1.0000 0.75240  0.05970  0.70670  Biso   1.000  H
  C5       1.0000 0.48620  0.76540  0.39070  Biso   1.000  C
  C6       1.0000 0.51380  0.23460  0.60930  Biso   1.000  C
  H13      1.0000 0.46040  0.77140  0.46540  Biso   1.000  H
  H14      1.0000 0.53960  0.22860  0.53460  Biso   1.000  H
  C7       1.0000 0.65270  0.65940  0.38410  Biso   1.000  C
  C8       1.0000 0.34730  0.34060  0.61590  Biso   1.000  C
  H15      1.0000 0.75140  0.59390  0.45270  Biso   1.000  H
  H16      1.0000 0.24860  0.40610  0.54730  Biso   1.000  H
  C9       1.0000 0.67770  0.64760  0.27390  Biso   1.000  C
  C10      1.0000 0.32230  0.35240  0.72610  Biso   1.000  C
  C11      1.0000 0.86490  0.53530  0.25380  Biso   1.000  C
  C12      1.0000 0.13510  0.46470  0.74620  Biso   1.000  C
