data_image0
_cell_length_a       7.154
_cell_length_b       13.9081
_cell_length_c       11.2511
_cell_angle_alpha    90
_cell_angle_beta     92.685
_cell_angle_gamma    90

_symmetry_space_group_name_H-M    "P 1"
_symmetry_int_tables_number       1

loop_
  _symmetry_equiv_pos_as_xyz
  'x, y, z'

loop_
  _atom_site_label
  _atom_site_occupancy
  _atom_site_fract_x
  _atom_site_fract_y
  _atom_site_fract_z
  _atom_site_thermal_displace_type
  _atom_site_B_iso_or_equiv
  _atom_site_type_symbol
  O1       1.0000 0.31780  0.84380  0.36980  Biso   1.000  O
  O2       1.0000 0.68220  0.34380  0.63020  Biso   1.000  O
  O3       1.0000 0.68220  0.15620  0.63020  Biso   1.000  O
  O4       1.0000 0.31780  0.65620  0.36980  Biso   1.000  O
  N1       1.0000 0.43090  0.75000  0.22560  Biso   1.000  N
  N2       1.0000 0.56910  0.25000  0.77440  Biso   1.000  N
  C1       1.0000 0.38220  0.83602  0.27610  Biso   1.000  C
  C2       1.0000 0.61780  0.33602  0.72390  Biso   1.000  C
  C3       1.0000 0.61780  0.16398  0.72390  Biso   1.000  C
  C4       1.0000 0.38220  0.66398  0.27610  Biso   1.000  C
  C5       1.0000 0.51950  0.75000  0.11290  Biso   1.000  C
  C6       1.0000 0.48050  0.25000  0.88710  Biso   1.000  C
  H1       1.0000 0.44900  0.88600  0.24900  Biso   1.000  H
  H2       1.0000 0.55100  0.38600  0.75100  Biso   1.000  H
  H3       1.0000 0.55100  0.11400  0.75100  Biso   1.000  H
  H4       1.0000 0.44900  0.61400  0.24900  Biso   1.000  H
  H5       1.0000 0.27900  0.84000  0.23000  Biso   1.000  H
  H6       1.0000 0.72100  0.34000  0.77000  Biso   1.000  H
  H7       1.0000 0.72100  0.16000  0.77000  Biso   1.000  H
  H8       1.0000 0.27900  0.66000  0.23000  Biso   1.000  H
  H9       1.0000 0.58900  0.79400  0.09700  Biso   1.000  H
  H10      1.0000 0.41100  0.29400  0.90300  Biso   1.000  H
  H11      1.0000 0.41100  0.20600  0.90300  Biso   1.000  H
  H12      1.0000 0.58900  0.70600  0.09700  Biso   1.000  H
  H13      1.0000 0.41800  0.75000  0.04700  Biso   1.000  H
  H14      1.0000 0.58200  0.25000  0.95300  Biso   1.000  H
  O5       1.0000 0.01060  0.75000  0.05000  Biso   1.000  O
  O6       1.0000 0.98940  0.25000  0.95000  Biso   1.000  O
  H15      1.0000 0.99700  0.79860  0.00300  Biso   1.000  H
  H16      1.0000 0.00300  0.29860  0.99700  Biso   1.000  H
  H17      1.0000 0.00300  0.20140  0.99700  Biso   1.000  H
  H18      1.0000 0.99700  0.70140  0.00300  Biso   1.000  H
  O7       1.0000 0.05800  0.75000  0.71420  Biso   1.000  O
  O8       1.0000 0.94200  0.25000  0.28580  Biso   1.000  O
  H19      1.0000 0.03700  0.80340  0.74400  Biso   1.000  H
  H20      1.0000 0.96300  0.30340  0.25600  Biso   1.000  H
  H21      1.0000 0.96300  0.19660  0.25600  Biso   1.000  H
  H22      1.0000 0.03700  0.69660  0.74400  Biso   1.000  H
  Cu1      1.0000 0.67805  0.75000  0.63978  Biso   1.000  Cu
  Cu2      1.0000 0.32195  0.25000  0.36022  Biso   1.000  Cu
  O9       1.0000 0.62040  0.84962  0.75245  Biso   1.000  O
  O10      1.0000 0.37960  0.34962  0.24755  Biso   1.000  O
  O11      1.0000 0.37960  0.15038  0.24755  Biso   1.000  O
  O12      1.0000 0.62040  0.65038  0.75245  Biso   1.000  O
  O13      1.0000 0.88920  0.88692  0.85110  Biso   1.000  O
  O14      1.0000 0.11080  0.38692  0.14890  Biso   1.000  O
  O15      1.0000 0.11080  0.11308  0.14890  Biso   1.000  O
  O16      1.0000 0.88920  0.61308  0.85110  Biso   1.000  O
  O17      1.0000 0.36660  0.75000  0.57469  Biso   1.000  O
  O18      1.0000 0.63340  0.25000  0.42531  Biso   1.000  O
  N3       1.0000 0.74984  0.65663  0.51348  Biso   1.000  N
  N4       1.0000 0.25016  0.15663  0.48652  Biso   1.000  N
  N5       1.0000 0.25016  0.34337  0.48652  Biso   1.000  N
  N6       1.0000 0.74984  0.84337  0.51348  Biso   1.000  N
  C7       1.0000 0.73090  0.56106  0.51679  Biso   1.000  C
  C8       1.0000 0.26910  0.06106  0.48321  Biso   1.000  C
  C9       1.0000 0.26910  0.43894  0.48321  Biso   1.000  C
  C10      1.0000 0.73090  0.93894  0.51679  Biso   1.000  C
  C11      1.0000 0.78620  0.50251  0.42600  Biso   1.000  C
  C12      1.0000 0.21380  0.00251  0.57400  Biso   1.000  C
  C13      1.0000 0.21380  0.49749  0.57400  Biso   1.000  C
  C14      1.0000 0.78620  0.99749  0.42600  Biso   1.000  C
  C15      1.0000 0.86390  0.54269  0.33020  Biso   1.000  C
  C16      1.0000 0.13610  0.04269  0.66980  Biso   1.000  C
  C17      1.0000 0.13610  0.45731  0.66980  Biso   1.000  C
  C18      1.0000 0.86390  0.95731  0.33020  Biso   1.000  C
  C19      1.0000 0.88200  0.64146  0.32390  Biso   1.000  C
  C20      1.0000 0.11800  0.14146  0.67610  Biso   1.000  C
  C21      1.0000 0.11800  0.35854  0.67610  Biso   1.000  C
  C22      1.0000 0.88200  0.85854  0.32390  Biso   1.000  C
  C23      1.0000 0.82180  0.69711  0.41675  Biso   1.000  C
  C24      1.0000 0.17820  0.19711  0.58325  Biso   1.000  C
  C25      1.0000 0.17820  0.30289  0.58325  Biso   1.000  C
  C26      1.0000 0.82180  0.80289  0.41675  Biso   1.000  C
  C27      1.0000 0.71700  0.89022  0.83553  Biso   1.000  C
  C28      1.0000 0.28300  0.39022  0.16447  Biso   1.000  C
  C29      1.0000 0.28300  0.10978  0.16447  Biso   1.000  C
  C30      1.0000 0.71700  0.60978  0.83553  Biso   1.000  C
  C31      1.0000 0.60420  0.94795  0.92038  Biso   1.000  C
  C32      1.0000 0.39580  0.44795  0.07962  Biso   1.000  C
  C33      1.0000 0.39580  0.05205  0.07962  Biso   1.000  C
  C34      1.0000 0.60420  0.55205  0.92038  Biso   1.000  C
  C35      1.0000 0.69370  0.00504  0.00707  Biso   1.000  C
  C36      1.0000 0.30630  0.50504  0.99293  Biso   1.000  C
  C37      1.0000 0.30630  0.99496  0.99293  Biso   1.000  C
  C38      1.0000 0.69370  0.49496  0.00707  Biso   1.000  C
  C39      1.0000 0.41040  0.94317  0.91408  Biso   1.000  C
  C40      1.0000 0.58960  0.44317  0.08592  Biso   1.000  C
  C41      1.0000 0.58960  0.05683  0.08592  Biso   1.000  C
  C42      1.0000 0.41040  0.55683  0.91408  Biso   1.000  C
  H23      1.0000 0.67500  0.53760  0.57900  Biso   1.000  H
  H24      1.0000 0.32500  0.03760  0.42100  Biso   1.000  H
  H25      1.0000 0.32500  0.46240  0.42100  Biso   1.000  H
  H26      1.0000 0.67500  0.96240  0.57900  Biso   1.000  H
  H27      1.0000 0.77200  0.43900  0.42800  Biso   1.000  H
  H28      1.0000 0.22800  0.93900  0.57200  Biso   1.000  H
  H29      1.0000 0.22800  0.56100  0.57200  Biso   1.000  H
  H30      1.0000 0.77200  0.06100  0.42800  Biso   1.000  H
  H31      1.0000 0.88900  0.50100  0.27200  Biso   1.000  H
  H32      1.0000 0.11100  0.00100  0.72800  Biso   1.000  H
  H33      1.0000 0.11100  0.49900  0.72800  Biso   1.000  H
  H34      1.0000 0.88900  0.99900  0.27200  Biso   1.000  H
  H35      1.0000 0.93900  0.67320  0.26260  Biso   1.000  H
  H36      1.0000 0.06100  0.17320  0.73740  Biso   1.000  H
  H37      1.0000 0.06100  0.32680  0.73740  Biso   1.000  H
  H38      1.0000 0.93900  0.82680  0.26260  Biso   1.000  H
  H39      1.0000 0.82000  0.00960  0.01340  Biso   1.000  H
  H40      1.0000 0.18000  0.50960  0.98660  Biso   1.000  H
  H41      1.0000 0.18000  0.99040  0.98660  Biso   1.000  H
  H42      1.0000 0.82000  0.49040  0.01340  Biso   1.000  H
  H43      1.0000 0.34800  0.90450  0.85800  Biso   1.000  H
  H44      1.0000 0.65200  0.40450  0.14200  Biso   1.000  H
  H45      1.0000 0.65200  0.09550  0.14200  Biso   1.000  H
  H46      1.0000 0.34800  0.59550  0.85800  Biso   1.000  H
  H47      1.0000 0.31100  0.75000  0.50400  Biso   1.000  H
  H48      1.0000 0.68900  0.25000  0.49600  Biso   1.000  H
  H49      1.0000 0.27100  0.75000  0.61300  Biso   1.000  H
  H50      1.0000 0.72900  0.25000  0.38700  Biso   1.000  H
