data_image0
_cell_length_a       15.4247
_cell_length_b       6.2317
_cell_length_c       16.9672
_cell_angle_alpha    90
_cell_angle_beta     110.126
_cell_angle_gamma    90

_symmetry_space_group_name_H-M    "P 1"
_symmetry_int_tables_number       1

loop_
  _symmetry_equiv_pos_as_xyz
  'x, y, z'

loop_
  _atom_site_label
  _atom_site_occupancy
  _atom_site_fract_x
  _atom_site_fract_y
  _atom_site_fract_z
  _atom_site_thermal_displace_type
  _atom_site_B_iso_or_equiv
  _atom_site_type_symbol
  Cu1      1.0000 0.12711  0.36151  0.72161  Biso   1.000  Cu
  Cu2      1.0000 0.87289  0.86151  0.77839  Biso   1.000  Cu
  Cu3      1.0000 0.87289  0.63849  0.27839  Biso   1.000  Cu
  Cu4      1.0000 0.12711  0.13849  0.22161  Biso   1.000  Cu
  N1       1.0000 0.02028  0.46420  0.63445  Biso   1.000  N
  N2       1.0000 0.97972  0.96420  0.86555  Biso   1.000  N
  N3       1.0000 0.97972  0.53580  0.36555  Biso   1.000  N
  N4       1.0000 0.02028  0.03580  0.13445  Biso   1.000  N
  C1       1.0000 0.02650  0.64610  0.59608  Biso   1.000  C
  C2       1.0000 0.97350  0.14610  0.90392  Biso   1.000  C
  C3       1.0000 0.97350  0.35390  0.40392  Biso   1.000  C
  C4       1.0000 0.02650  0.85390  0.09608  Biso   1.000  C
  C5       1.0000 0.94770  0.73940  0.53980  Biso   1.000  C
  C6       1.0000 0.05230  0.23940  0.96020  Biso   1.000  C
  C7       1.0000 0.05230  0.26060  0.46020  Biso   1.000  C
  C8       1.0000 0.94770  0.76060  0.03980  Biso   1.000  C
  H1       1.0000 0.95080  0.86800  0.51300  Biso   1.000  H
  H2       1.0000 0.04920  0.36800  0.98700  Biso   1.000  H
  H3       1.0000 0.04920  0.13200  0.48700  Biso   1.000  H
  H4       1.0000 0.95080  0.63200  0.01300  Biso   1.000  H
  C9       1.0000 0.86380  0.63350  0.52470  Biso   1.000  C
  C10      1.0000 0.13620  0.13350  0.97530  Biso   1.000  C
  C11      1.0000 0.13620  0.36650  0.47530  Biso   1.000  C
  C12      1.0000 0.86380  0.86650  0.02470  Biso   1.000  C
  H5       1.0000 0.81000  0.69170  0.48680  Biso   1.000  H
  H6       1.0000 0.19000  0.19170  0.01320  Biso   1.000  H
  H7       1.0000 0.19000  0.30830  0.51320  Biso   1.000  H
  H8       1.0000 0.81000  0.80830  0.98680  Biso   1.000  H
  C13      1.0000 0.85960  0.44290  0.56530  Biso   1.000  C
  C14      1.0000 0.14040  0.94290  0.93470  Biso   1.000  C
  C15      1.0000 0.14040  0.55710  0.43470  Biso   1.000  C
  C16      1.0000 0.85960  0.05710  0.06530  Biso   1.000  C
  H9       1.0000 0.80380  0.37130  0.55480  Biso   1.000  H
  H10      1.0000 0.19620  0.87130  0.94520  Biso   1.000  H
  H11      1.0000 0.19620  0.62870  0.44520  Biso   1.000  H
  H12      1.0000 0.80380  0.12870  0.05480  Biso   1.000  H
  C17      1.0000 0.94110  0.36220  0.62198  Biso   1.000  C
  C18      1.0000 0.05890  0.86220  0.87802  Biso   1.000  C
  C19      1.0000 0.05890  0.63780  0.37802  Biso   1.000  C
  C20      1.0000 0.94110  0.13780  0.12198  Biso   1.000  C
  C21      1.0000 0.12570  0.72540  0.62258  Biso   1.000  C
  C22      1.0000 0.87430  0.22540  0.87742  Biso   1.000  C
  C23      1.0000 0.87430  0.27460  0.37742  Biso   1.000  C
  C24      1.0000 0.12570  0.77460  0.12258  Biso   1.000  C
  O1       1.0000 0.14343  0.89280  0.59209  Biso   1.000  O
  O2       1.0000 0.85657  0.39280  0.90791  Biso   1.000  O
  O3       1.0000 0.85657  0.10720  0.40791  Biso   1.000  O
  O4       1.0000 0.14343  0.60720  0.09209  Biso   1.000  O
  O5       1.0000 0.18452  0.60460  0.67581  Biso   1.000  O
  O6       1.0000 0.81548  0.10460  0.82419  Biso   1.000  O
  O7       1.0000 0.81548  0.39540  0.32419  Biso   1.000  O
  O8       1.0000 0.18452  0.89540  0.17581  Biso   1.000  O
  C25      1.0000 0.95460  0.16660  0.67770  Biso   1.000  C
  C26      1.0000 0.04540  0.66660  0.82230  Biso   1.000  C
  C27      1.0000 0.04540  0.83340  0.32230  Biso   1.000  C
  C28      1.0000 0.95460  0.33340  0.17770  Biso   1.000  C
  O9       1.0000 0.88499  0.06510  0.67652  Biso   1.000  O
  O10      1.0000 0.11501  0.56510  0.82348  Biso   1.000  O
  O11      1.0000 0.11501  0.93490  0.32348  Biso   1.000  O
  O12      1.0000 0.88499  0.43490  0.17652  Biso   1.000  O
  O13      1.0000 0.03786  0.12490  0.72225  Biso   1.000  O
  O14      1.0000 0.96214  0.62490  0.77775  Biso   1.000  O
  O15      1.0000 0.96214  0.87510  0.27775  Biso   1.000  O
  O16      1.0000 0.03786  0.37510  0.22225  Biso   1.000  O
  N5       1.0000 0.24097  0.23400  0.79982  Biso   1.000  N
  N6       1.0000 0.75903  0.73400  0.70018  Biso   1.000  N
  N7       1.0000 0.75903  0.76600  0.20018  Biso   1.000  N
  N8       1.0000 0.24097  0.26600  0.29982  Biso   1.000  N
  C29      1.0000 0.26940  0.04160  0.78830  Biso   1.000  C
  C30      1.0000 0.73060  0.54160  0.71170  Biso   1.000  C
  C31      1.0000 0.73060  0.95840  0.21170  Biso   1.000  C
  C32      1.0000 0.26940  0.45840  0.28830  Biso   1.000  C
  H13      1.0000 0.23510  0.96580  0.74060  Biso   1.000  H
  H14      1.0000 0.76490  0.46580  0.75940  Biso   1.000  H
  H15      1.0000 0.76490  0.03420  0.25940  Biso   1.000  H
  H16      1.0000 0.23510  0.53420  0.24060  Biso   1.000  H
  C33      1.0000 0.34760  0.94590  0.84360  Biso   1.000  C
  C34      1.0000 0.65240  0.44590  0.65640  Biso   1.000  C
  C35      1.0000 0.65240  0.05410  0.15640  Biso   1.000  C
  C36      1.0000 0.34760  0.55410  0.34360  Biso   1.000  C
  H17      1.0000 0.36530  0.80960  0.83270  Biso   1.000  H
  H18      1.0000 0.63470  0.30960  0.66730  Biso   1.000  H
  H19      1.0000 0.63470  0.19040  0.16730  Biso   1.000  H
  H20      1.0000 0.36530  0.69040  0.33270  Biso   1.000  H
  C37      1.0000 0.39820  0.05300  0.91380  Biso   1.000  C
  C38      1.0000 0.60180  0.55300  0.58620  Biso   1.000  C
  C39      1.0000 0.60180  0.94700  0.08620  Biso   1.000  C
  C40      1.0000 0.39820  0.44700  0.41380  Biso   1.000  C
  C41      1.0000 0.36760  0.25270  0.92920  Biso   1.000  C
  C42      1.0000 0.63240  0.75270  0.57080  Biso   1.000  C
  C43      1.0000 0.63240  0.74730  0.07080  Biso   1.000  C
  C44      1.0000 0.36760  0.24730  0.42920  Biso   1.000  C
  H21      1.0000 0.39910  0.32760  0.97810  Biso   1.000  H
  H22      1.0000 0.60090  0.82760  0.52190  Biso   1.000  H
  H23      1.0000 0.60090  0.67240  0.02190  Biso   1.000  H
  H24      1.0000 0.39910  0.17240  0.47810  Biso   1.000  H
  C45      1.0000 0.28950  0.33750  0.87050  Biso   1.000  C
  C46      1.0000 0.71050  0.83750  0.62950  Biso   1.000  C
  C47      1.0000 0.71050  0.66250  0.12950  Biso   1.000  C
  C48      1.0000 0.28950  0.16250  0.37050  Biso   1.000  C
  H25      1.0000 0.26950  0.47250  0.88040  Biso   1.000  H
  H26      1.0000 0.73050  0.97250  0.61960  Biso   1.000  H
  H27      1.0000 0.73050  0.52750  0.11960  Biso   1.000  H
  H28      1.0000 0.26950  0.02750  0.38040  Biso   1.000  H
  N9       1.0000 0.47840  0.94530  0.96960  Biso   1.000  N
  N10      1.0000 0.52160  0.44530  0.53040  Biso   1.000  N
  N11      1.0000 0.52160  0.05470  0.03040  Biso   1.000  N
  N12      1.0000 0.47840  0.55470  0.46960  Biso   1.000  N
  O17      1.0000 0.30560  0.92400  0.55490  Biso   1.000  O
  O18      1.0000 0.69440  0.42400  0.94510  Biso   1.000  O
  O19      1.0000 0.69440  0.07600  0.44510  Biso   1.000  O
  O20      1.0000 0.30560  0.57600  0.05490  Biso   1.000  O
  C49      1.0000 0.37570  0.81700  0.61100  Biso   1.000  C
  C50      1.0000 0.62430  0.31700  0.88900  Biso   1.000  C
  C51      1.0000 0.62430  0.18300  0.38900  Biso   1.000  C
  C52      1.0000 0.37570  0.68300  0.11100  Biso   1.000  C
  O21      1.0000 0.39840  0.40500  0.68190  Biso   1.000  O
  O22      1.0000 0.60160  0.90500  0.81810  Biso   1.000  O
  O23      1.0000 0.60160  0.59500  0.31810  Biso   1.000  O
  O24      1.0000 0.39840  0.09500  0.18190  Biso   1.000  O
  C53      1.0000 0.36600  0.61300  0.67700  Biso   1.000  C
  C54      1.0000 0.63400  0.11300  0.82300  Biso   1.000  C
  C55      1.0000 0.63400  0.38700  0.32300  Biso   1.000  C
  C56      1.0000 0.36600  0.88700  0.17700  Biso   1.000  C
  C57      1.0000 0.37650  0.55300  0.73240  Biso   1.000  C
  C58      1.0000 0.62350  0.05300  0.76760  Biso   1.000  C
  C59      1.0000 0.62350  0.44700  0.26760  Biso   1.000  C
  C60      1.0000 0.37650  0.94700  0.23240  Biso   1.000  C
  O25      1.0000 0.34600  0.56900  0.64520  Biso   1.000  O
  O26      1.0000 0.65400  0.06900  0.85480  Biso   1.000  O
  O27      1.0000 0.65400  0.43100  0.35480  Biso   1.000  O
  O28      1.0000 0.34600  0.93100  0.14520  Biso   1.000  O
