data_image0
_cell_length_a       5.841
_cell_length_b       7.843
_cell_length_c       8.142
_cell_angle_alpha    80.4
_cell_angle_beta     74.59
_cell_angle_gamma    71.8

_symmetry_space_group_name_H-M    "P 1"
_symmetry_int_tables_number       1

loop_
  _symmetry_equiv_pos_as_xyz
  'x, y, z'

loop_
  _atom_site_label
  _atom_site_occupancy
  _atom_site_fract_x
  _atom_site_fract_y
  _atom_site_fract_z
  _atom_site_thermal_displace_type
  _atom_site_B_iso_or_equiv
  _atom_site_type_symbol
  C1       1.0000 0.70550  0.77160  0.69390  Biso   1.000  C
  C2       1.0000 0.29450  0.22840  0.30610  Biso   1.000  C
  C3       1.0000 0.49320  0.91200  0.78600  Biso   1.000  C
  C4       1.0000 0.50680  0.08800  0.21400  Biso   1.000  C
  C5       1.0000 0.49060  0.09510  0.76530  Biso   1.000  C
  C6       1.0000 0.50940  0.90490  0.23470  Biso   1.000  C
  C7       1.0000 0.30070  0.23860  0.84220  Biso   1.000  C
  C8       1.0000 0.69930  0.76140  0.15780  Biso   1.000  C
  C9       1.0000 0.32680  0.42600  0.82100  Biso   1.000  C
  C10      1.0000 0.67320  0.57400  0.17900  Biso   1.000  C
  N1       1.0000 0.71140  0.14120  0.65780  Biso   1.000  N
  N2       1.0000 0.28860  0.85880  0.34220  Biso   1.000  N
  O1       1.0000 0.91170  0.06610  0.69450  Biso   1.000  O
  O2       1.0000 0.08830  0.93390  0.30550  Biso   1.000  O
  O3       1.0000 0.68920  0.25310  0.53720  Biso   1.000  O
  O4       1.0000 0.31080  0.74690  0.46280  Biso   1.000  O
  Cu1      1.0000 0.00000  0.00000  0.00000  Biso   1.000  Cu
  O5       1.0000 0.31550  0.85770  0.88200  Biso   1.000  O
  O6       1.0000 0.68450  0.14230  0.11800  Biso   1.000  O
  O7       1.0000 0.10190  0.21630  0.94010  Biso   1.000  O
  O8       1.0000 0.89810  0.78370  0.05990  Biso   1.000  O
  H1       1.0000 0.76790  0.82170  0.58110  Biso   1.000  H
  H2       1.0000 0.23210  0.17830  0.41890  Biso   1.000  H
  H3       1.0000 0.83450  0.73230  0.75580  Biso   1.000  H
  H4       1.0000 0.16550  0.26770  0.24420  Biso   1.000  H
  H5       1.0000 0.65040  0.67080  0.68560  Biso   1.000  H
  H6       1.0000 0.34960  0.32920  0.31440  Biso   1.000  H
  H7       1.0000 0.49070  0.42020  0.82780  Biso   1.000  H
  H8       1.0000 0.50930  0.57980  0.17220  Biso   1.000  H
  H9       1.0000 0.29890  0.48360  0.71150  Biso   1.000  H
  H10      1.0000 0.70110  0.51640  0.28850  Biso   1.000  H
  H11      1.0000 0.20770  0.49380  0.90990  Biso   1.000  H
  H12      1.0000 0.79230  0.50620  0.09010  Biso   1.000  H
