data_image0
_cell_length_a       16.294
_cell_length_b       5.669
_cell_length_c       18.452
_cell_angle_alpha    90
_cell_angle_beta     113.542
_cell_angle_gamma    90

_symmetry_space_group_name_H-M    "P 1"
_symmetry_int_tables_number       1

loop_
  _symmetry_equiv_pos_as_xyz
  'x, y, z'

loop_
  _atom_site_label
  _atom_site_occupancy
  _atom_site_fract_x
  _atom_site_fract_y
  _atom_site_fract_z
  _atom_site_thermal_displace_type
  _atom_site_B_iso_or_equiv
  _atom_site_type_symbol
  Cu1      1.0000 0.12456  0.17470  0.22151  Biso   1.000  Cu
  Cu2      1.0000 0.87544  0.67470  0.27849  Biso   1.000  Cu
  Cu3      1.0000 0.87544  0.82530  0.77849  Biso   1.000  Cu
  Cu4      1.0000 0.12456  0.32530  0.72151  Biso   1.000  Cu
  O1       1.0000 0.13580  0.56740  0.10950  Biso   1.000  O
  O2       1.0000 0.86420  0.06740  0.39050  Biso   1.000  O
  O3       1.0000 0.86420  0.43260  0.89050  Biso   1.000  O
  O4       1.0000 0.13580  0.93260  0.60950  Biso   1.000  O
  O5       1.0000 0.17820  0.89330  0.18690  Biso   1.000  O
  O6       1.0000 0.82180  0.39330  0.31310  Biso   1.000  O
  O7       1.0000 0.82180  0.10670  0.81310  Biso   1.000  O
  O8       1.0000 0.17820  0.60670  0.68690  Biso   1.000  O
  O9       1.0000 0.03600  0.43460  0.22200  Biso   1.000  O
  O10      1.0000 0.96400  0.93460  0.27800  Biso   1.000  O
  O11      1.0000 0.96400  0.56540  0.77800  Biso   1.000  O
  O12      1.0000 0.03600  0.06540  0.72200  Biso   1.000  O
  O13      1.0000 0.88490  0.48900  0.17280  Biso   1.000  O
  O14      1.0000 0.11510  0.98900  0.32720  Biso   1.000  O
  O15      1.0000 0.11510  0.51100  0.82720  Biso   1.000  O
  O16      1.0000 0.88490  0.01100  0.67280  Biso   1.000  O
  N1       1.0000 0.01870  0.05820  0.13660  Biso   1.000  N
  N2       1.0000 0.98130  0.55820  0.36340  Biso   1.000  N
  N3       1.0000 0.98130  0.94180  0.86340  Biso   1.000  N
  N4       1.0000 0.01870  0.44180  0.63660  Biso   1.000  N
  C1       1.0000 0.94350  0.18330  0.11770  Biso   1.000  C
  C2       1.0000 0.05650  0.68330  0.38230  Biso   1.000  C
  C3       1.0000 0.05650  0.81670  0.88230  Biso   1.000  C
  C4       1.0000 0.94350  0.31670  0.61770  Biso   1.000  C
  C5       1.0000 0.86560  0.11050  0.05370  Biso   1.000  C
  C6       1.0000 0.13440  0.61050  0.44630  Biso   1.000  C
  C7       1.0000 0.13440  0.88950  0.94630  Biso   1.000  C
  C8       1.0000 0.86560  0.38950  0.55370  Biso   1.000  C
  H1       1.0000 0.81290  0.19670  0.03860  Biso   1.000  H
  H2       1.0000 0.18710  0.69670  0.46140  Biso   1.000  H
  H3       1.0000 0.18710  0.80330  0.96140  Biso   1.000  H
  H4       1.0000 0.81290  0.30330  0.53860  Biso   1.000  H
  C9       1.0000 0.86960  0.90680  0.01350  Biso   1.000  C
  C10      1.0000 0.13040  0.40680  0.48650  Biso   1.000  C
  C11      1.0000 0.13040  0.09320  0.98650  Biso   1.000  C
  C12      1.0000 0.86960  0.59320  0.51350  Biso   1.000  C
  H5       1.0000 0.81910  0.85640  0.97060  Biso   1.000  H
  H6       1.0000 0.18090  0.35640  0.52940  Biso   1.000  H
  H7       1.0000 0.18090  0.14360  0.02940  Biso   1.000  H
  H8       1.0000 0.81910  0.64360  0.47060  Biso   1.000  H
  C13      1.0000 0.94930  0.77610  0.03710  Biso   1.000  C
  C14      1.0000 0.05070  0.27610  0.46290  Biso   1.000  C
  C15      1.0000 0.05070  0.22390  0.96290  Biso   1.000  C
  C16      1.0000 0.94930  0.72390  0.53710  Biso   1.000  C
  H9       1.0000 0.95150  0.63680  0.01130  Biso   1.000  H
  H10      1.0000 0.04850  0.13680  0.48870  Biso   1.000  H
  H11      1.0000 0.04850  0.36320  0.98870  Biso   1.000  H
  H12      1.0000 0.95150  0.86320  0.51130  Biso   1.000  H
  C17      1.0000 0.02550  0.85990  0.10030  Biso   1.000  C
  C18      1.0000 0.97450  0.35990  0.39970  Biso   1.000  C
  C19      1.0000 0.97450  0.14010  0.89970  Biso   1.000  C
  C20      1.0000 0.02550  0.64010  0.60030  Biso   1.000  C
  C21      1.0000 0.12070  0.75680  0.13350  Biso   1.000  C
  C22      1.0000 0.87930  0.25680  0.36650  Biso   1.000  C
  C23      1.0000 0.87930  0.24320  0.86650  Biso   1.000  C
  C24      1.0000 0.12070  0.74320  0.63350  Biso   1.000  C
  C25      1.0000 0.95400  0.38820  0.17510  Biso   1.000  C
  C26      1.0000 0.04600  0.88820  0.32490  Biso   1.000  C
  C27      1.0000 0.04600  0.61180  0.82490  Biso   1.000  C
  C28      1.0000 0.95400  0.11180  0.67510  Biso   1.000  C
  N5       1.0000 0.24100  0.31100  0.29500  Biso   1.000  N
  N6       1.0000 0.75900  0.81100  0.20500  Biso   1.000  N
  N7       1.0000 0.75900  0.68900  0.70500  Biso   1.000  N
  N8       1.0000 0.24100  0.18900  0.79500  Biso   1.000  N
  C29      1.0000 0.31610  0.17400  0.31910  Biso   1.000  C
  C30      1.0000 0.68390  0.67400  0.18090  Biso   1.000  C
  C31      1.0000 0.68390  0.82600  0.68090  Biso   1.000  C
  C32      1.0000 0.31610  0.32600  0.81910  Biso   1.000  C
  H13      1.0000 0.31410  0.03130  0.29360  Biso   1.000  H
  H14      1.0000 0.68590  0.53130  0.20640  Biso   1.000  H
  H15      1.0000 0.68590  0.96870  0.70640  Biso   1.000  H
  H16      1.0000 0.31410  0.46870  0.79360  Biso   1.000  H
  C33      1.0000 0.39570  0.24200  0.38100  Biso   1.000  C
  C34      1.0000 0.60430  0.74200  0.11900  Biso   1.000  C
  C35      1.0000 0.60430  0.75800  0.61900  Biso   1.000  C
  C36      1.0000 0.39570  0.25800  0.88100  Biso   1.000  C
  H17      1.0000 0.44590  0.14500  0.39760  Biso   1.000  H
  H18      1.0000 0.55410  0.64500  0.10240  Biso   1.000  H
  H19      1.0000 0.55410  0.85500  0.60240  Biso   1.000  H
  H20      1.0000 0.44590  0.35500  0.89760  Biso   1.000  H
  C37      1.0000 0.39760  0.46300  0.41780  Biso   1.000  C
  C38      1.0000 0.60240  0.96300  0.08220  Biso   1.000  C
  C39      1.0000 0.60240  0.53700  0.58220  Biso   1.000  C
  C40      1.0000 0.39760  0.03700  0.91780  Biso   1.000  C
  N9       1.0000 0.47710  0.57500  0.48510  Biso   1.000  N
  N10      1.0000 0.52290  0.07500  0.01490  Biso   1.000  N
  N11      1.0000 0.52290  0.42500  0.51490  Biso   1.000  N
  N12      1.0000 0.47710  0.92500  0.98510  Biso   1.000  N
  C41      1.0000 0.32360  0.60000  0.39220  Biso   1.000  C
  C42      1.0000 0.67640  0.10000  0.10780  Biso   1.000  C
  C43      1.0000 0.67640  0.40000  0.60780  Biso   1.000  C
  C44      1.0000 0.32360  0.90000  0.89220  Biso   1.000  C
  H21      1.0000 0.32470  0.74720  0.41470  Biso   1.000  H
  H22      1.0000 0.67530  0.24720  0.08530  Biso   1.000  H
  H23      1.0000 0.67530  0.25280  0.58530  Biso   1.000  H
  H24      1.0000 0.32470  0.75280  0.91470  Biso   1.000  H
  C45      1.0000 0.24480  0.51700  0.33130  Biso   1.000  C
  C46      1.0000 0.75520  0.01700  0.16870  Biso   1.000  C
  C47      1.0000 0.75520  0.48300  0.66870  Biso   1.000  C
  C48      1.0000 0.24480  0.98300  0.83130  Biso   1.000  C
  H25      1.0000 0.19340  0.60950  0.31570  Biso   1.000  H
  H26      1.0000 0.80660  0.10950  0.18430  Biso   1.000  H
  H27      1.0000 0.80660  0.39050  0.68430  Biso   1.000  H
  H28      1.0000 0.19340  0.89050  0.81570  Biso   1.000  H
  C49      1.0000 0.34310  0.96700  0.65750  Biso   1.000  C
  C50      1.0000 0.65690  0.46700  0.84250  Biso   1.000  C
  C51      1.0000 0.65690  0.03300  0.34250  Biso   1.000  C
  C52      1.0000 0.34310  0.53300  0.15750  Biso   1.000  C
  Cl1      1.0000 0.36090  0.05420  0.57280  Biso   1.000  Cl
  Cl2      1.0000 0.63910  0.55420  0.92720  Biso   1.000  Cl
  Cl3      1.0000 0.63910  0.94580  0.42720  Biso   1.000  Cl
  Cl4      1.0000 0.36090  0.44580  0.07280  Biso   1.000  Cl
  Cl5      1.0000 0.42450  0.77400  0.71940  Biso   1.000  Cl
  Cl6      1.0000 0.57550  0.27400  0.78060  Biso   1.000  Cl
  Cl7      1.0000 0.57550  0.22600  0.28060  Biso   1.000  Cl
  Cl8      1.0000 0.42450  0.72600  0.21940  Biso   1.000  Cl
  Cl9      1.0000 0.40800  0.71100  0.69800  Biso   1.000  Cl
  Cl10     1.0000 0.59200  0.21100  0.80200  Biso   1.000  Cl
  Cl11     1.0000 0.59200  0.28900  0.30200  Biso   1.000  Cl
  Cl12     1.0000 0.40800  0.78900  0.19800  Biso   1.000  Cl
  Cl13     1.0000 0.36490  0.68900  0.62550  Biso   1.000  Cl
  Cl14     1.0000 0.63510  0.18900  0.87450  Biso   1.000  Cl
  Cl15     1.0000 0.63510  0.31100  0.37450  Biso   1.000  Cl
  Cl16     1.0000 0.36490  0.81100  0.12550  Biso   1.000  Cl
  Cl17     1.0000 0.39900  0.19800  0.63200  Biso   1.000  Cl
  Cl18     1.0000 0.60100  0.69800  0.86800  Biso   1.000  Cl
  Cl19     1.0000 0.60100  0.80200  0.36800  Biso   1.000  Cl
  Cl20     1.0000 0.39900  0.30200  0.13200  Biso   1.000  Cl
