data_image0
_cell_length_a       15.9467
_cell_length_b       5.6327
_cell_length_c       16.6869
_cell_angle_alpha    90
_cell_angle_beta     111.075
_cell_angle_gamma    90

_symmetry_space_group_name_H-M    "P 1"
_symmetry_int_tables_number       1

loop_
  _symmetry_equiv_pos_as_xyz
  'x, y, z'

loop_
  _atom_site_label
  _atom_site_occupancy
  _atom_site_fract_x
  _atom_site_fract_y
  _atom_site_fract_z
  _atom_site_thermal_displace_type
  _atom_site_B_iso_or_equiv
  _atom_site_type_symbol
  Cu1      1.0000 0.64496  0.87256  0.01394  Biso   1.000  Cu
  Cu2      1.0000 0.35504  0.37256  0.98606  Biso   1.000  Cu
  N1       1.0000 0.62550  0.98430  0.11330  Biso   1.000  N
  N2       1.0000 0.37450  0.48430  0.88670  Biso   1.000  N
  C1       1.0000 0.57280  0.86150  0.14240  Biso   1.000  C
  C2       1.0000 0.42720  0.36150  0.85760  Biso   1.000  C
  C3       1.0000 0.56100  0.92500  0.21740  Biso   1.000  C
  C4       1.0000 0.43900  0.42500  0.78260  Biso   1.000  C
  H1       1.0000 0.52380  0.83420  0.23930  Biso   1.000  H
  H2       1.0000 0.47620  0.33420  0.76070  Biso   1.000  H
  C5       1.0000 0.60550  0.12680  0.26000  Biso   1.000  C
  C6       1.0000 0.39450  0.62680  0.74000  Biso   1.000  C
  H3       1.0000 0.59970  0.17430  0.31240  Biso   1.000  H
  H4       1.0000 0.40030  0.67430  0.68760  Biso   1.000  H
  C7       1.0000 0.65820  0.25870  0.22600  Biso   1.000  C
  C8       1.0000 0.34180  0.75870  0.77400  Biso   1.000  C
  H5       1.0000 0.68680  0.40040  0.25320  Biso   1.000  H
  H6       1.0000 0.31320  0.90040  0.74680  Biso   1.000  H
  C9       1.0000 0.66810  0.17870  0.15160  Biso   1.000  C
  C10      1.0000 0.33190  0.67870  0.84840  Biso   1.000  C
  C11      1.0000 0.72400  0.28580  0.10480  Biso   1.000  C
  C12      1.0000 0.27600  0.78580  0.89520  Biso   1.000  C
  O1       1.0000 0.76270  0.47520  0.12750  Biso   1.000  O
  O2       1.0000 0.23730  0.97520  0.87250  Biso   1.000  O
  O3       1.0000 0.72790  0.15550  0.04240  Biso   1.000  O
  O4       1.0000 0.27210  0.65550  0.95760  Biso   1.000  O
  C13      1.0000 0.52840  0.65370  0.08200  Biso   1.000  C
  C14      1.0000 0.47160  0.15370  0.91800  Biso   1.000  C
  O5       1.0000 0.56070  0.61420  0.02410  Biso   1.000  O
  O6       1.0000 0.43930  0.11420  0.97590  Biso   1.000  O
  O7       1.0000 0.46480  0.54940  0.09340  Biso   1.000  O
  O8       1.0000 0.53520  0.04940  0.90660  Biso   1.000  O
  Cu3      1.0000 0.85748  0.20745  0.49770  Biso   1.000  Cu
  Cu4      1.0000 0.14252  0.70745  0.50230  Biso   1.000  Cu
  N3       1.0000 0.86900  0.09970  0.39360  Biso   1.000  N
  N4       1.0000 0.13100  0.59970  0.60640  Biso   1.000  N
  C15      1.0000 0.91950  0.22220  0.36160  Biso   1.000  C
  C16      1.0000 0.08050  0.72220  0.63840  Biso   1.000  C
  C17      1.0000 0.92580  0.15220  0.28460  Biso   1.000  C
  C18      1.0000 0.07420  0.65220  0.71540  Biso   1.000  C
  H7       1.0000 0.96100  0.23950  0.25950  Biso   1.000  H
  H8       1.0000 0.03900  0.73950  0.74050  Biso   1.000  H
  C19      1.0000 0.87960  0.95260  0.24530  Biso   1.000  C
  C20      1.0000 0.12040  0.45260  0.75470  Biso   1.000  C
  H9       1.0000 0.88160  0.90500  0.19150  Biso   1.000  H
  H10      1.0000 0.11840  0.40500  0.80850  Biso   1.000  H
  C21      1.0000 0.83070  0.82080  0.28180  Biso   1.000  C
  C22      1.0000 0.16930  0.32080  0.71820  Biso   1.000  C
  H11      1.0000 0.80160  0.67850  0.25570  Biso   1.000  H
  H12      1.0000 0.19840  0.17850  0.74430  Biso   1.000  H
  C23      1.0000 0.82510  0.90060  0.35710  Biso   1.000  C
  C24      1.0000 0.17490  0.40060  0.64290  Biso   1.000  C
  C25      1.0000 0.77120  0.79970  0.40890  Biso   1.000  C
  C26      1.0000 0.22880  0.29970  0.59110  Biso   1.000  C
  O9       1.0000 0.73070  0.61120  0.38600  Biso   1.000  O
  O10      1.0000 0.26930  0.11120  0.61400  Biso   1.000  O
  O11      1.0000 0.77220  0.92520  0.47300  Biso   1.000  O
  O12      1.0000 0.22780  0.42520  0.52700  Biso   1.000  O
  C27      1.0000 0.96620  0.42470  0.41960  Biso   1.000  C
  C28      1.0000 0.03380  0.92470  0.58040  Biso   1.000  C
  O13      1.0000 0.93940  0.47030  0.48110  Biso   1.000  O
  O14      1.0000 0.06060  0.97030  0.51890  Biso   1.000  O
  O15      1.0000 0.02840  0.52480  0.40500  Biso   1.000  O
  O16      1.0000 0.97160  0.02480  0.59500  Biso   1.000  O
  N5       1.0000 0.69340  0.73710  0.93030  Biso   1.000  N
  N6       1.0000 0.30660  0.23710  0.06970  Biso   1.000  N
  C29      1.0000 0.75430  0.84900  0.91030  Biso   1.000  C
  C30      1.0000 0.24570  0.34900  0.08970  Biso   1.000  C
  H13      1.0000 0.78060  0.98730  0.94210  Biso   1.000  H
  H14      1.0000 0.21940  0.48730  0.05790  Biso   1.000  H
  C31      1.0000 0.78310  0.77680  0.84480  Biso   1.000  C
  C32      1.0000 0.21690  0.27680  0.15520  Biso   1.000  C
  H15      1.0000 0.82660  0.86650  0.83110  Biso   1.000  H
  H16      1.0000 0.17340  0.36650  0.16890  Biso   1.000  H
  C33      1.0000 0.74690  0.56970  0.79960  Biso   1.000  C
  C34      1.0000 0.25310  0.06970  0.20040  Biso   1.000  C
  C35      1.0000 0.68950  0.43990  0.82660  Biso   1.000  C
  C36      1.0000 0.31050  0.93990  0.17340  Biso   1.000  C
  H17      1.0000 0.66780  0.29020  0.80140  Biso   1.000  H
  H18      1.0000 0.33220  0.79020  0.19860  Biso   1.000  H
  C37      1.0000 0.66320  0.53060  0.89160  Biso   1.000  C
  C38      1.0000 0.33680  0.03060  0.10840  Biso   1.000  C
  H19      1.0000 0.62220  0.44170  0.90910  Biso   1.000  H
  H20      1.0000 0.37780  0.94170  0.09090  Biso   1.000  H
  N7       1.0000 0.82010  0.34010  0.58820  Biso   1.000  N
  N8       1.0000 0.17990  0.84010  0.41180  Biso   1.000  N
  C39      1.0000 0.76790  0.21290  0.61900  Biso   1.000  C
  C40      1.0000 0.23210  0.71290  0.38100  Biso   1.000  C
  H21      1.0000 0.74480  0.06670  0.59150  Biso   1.000  H
  H22      1.0000 0.25520  0.56670  0.40850  Biso   1.000  H
  C41      1.0000 0.74540  0.27850  0.68740  Biso   1.000  C
  C42      1.0000 0.25460  0.77850  0.31260  Biso   1.000  C
  H23      1.0000 0.70880  0.17730  0.70660  Biso   1.000  H
  H24      1.0000 0.29120  0.67730  0.29340  Biso   1.000  H
  C43      1.0000 0.77470  0.48530  0.72790  Biso   1.000  C
  C44      1.0000 0.22530  0.98530  0.27210  Biso   1.000  C
  C45      1.0000 0.83110  0.61400  0.69950  Biso   1.000  C
  C46      1.0000 0.16890  0.11400  0.30050  Biso   1.000  C
  H25      1.0000 0.85770  0.75560  0.72850  Biso   1.000  H
  H26      1.0000 0.14230  0.25560  0.27150  Biso   1.000  H
  C47      1.0000 0.84990  0.53850  0.62780  Biso   1.000  C
  C48      1.0000 0.15010  0.03850  0.37220  Biso   1.000  C
  H27      1.0000 0.88620  0.63690  0.60720  Biso   1.000  H
  H28      1.0000 0.11380  0.13690  0.39280  Biso   1.000  H
  C49      1.0000 0.92870  0.48660  0.07290  Biso   1.000  C
  C50      1.0000 0.07130  0.98660  0.92710  Biso   1.000  C
  Cl1      1.0000 0.01690  0.63290  0.15220  Biso   1.000  Cl
  Cl2      1.0000 0.98310  0.13290  0.84780  Biso   1.000  Cl
  Cl3      1.0000 0.95880  0.18660  0.06970  Biso   1.000  Cl
  Cl4      1.0000 0.04120  0.68660  0.93030  Biso   1.000  Cl
  O17      1.0000 0.57340  0.54220  0.42290  Biso   1.000  O
  O18      1.0000 0.42660  0.04220  0.57710  Biso   1.000  O
  O19      1.0000 0.47110  0.46630  0.34910  Biso   1.000  O
  O20      1.0000 0.52890  0.96630  0.65090  Biso   1.000  O
  O21      1.0000 0.52970  0.87970  0.42140  Biso   1.000  O
  O22      1.0000 0.47030  0.37970  0.57860  Biso   1.000  O
  O23      1.0000 0.43010  0.46850  0.26900  Biso   1.000  O
  O24      1.0000 0.56990  0.96850  0.73100  Biso   1.000  O
  O25      1.0000 0.56660  0.71340  0.46530  Biso   1.000  O
  O26      1.0000 0.43340  0.21340  0.53470  Biso   1.000  O
