data_image0
_cell_length_a       8.5357
_cell_length_b       16.1058
_cell_length_c       14.1685
_cell_angle_alpha    90
_cell_angle_beta     99.407
_cell_angle_gamma    90

_symmetry_space_group_name_H-M    "P 1"
_symmetry_int_tables_number       1

loop_
  _symmetry_equiv_pos_as_xyz
  'x, y, z'

loop_
  _atom_site_label
  _atom_site_occupancy
  _atom_site_fract_x
  _atom_site_fract_y
  _atom_site_fract_z
  _atom_site_thermal_displace_type
  _atom_site_B_iso_or_equiv
  _atom_site_type_symbol
  Cu1      1.0000 0.44658  0.00525  0.18240  Biso   1.000  Cu
  Cu2      1.0000 0.05342  0.50525  0.31760  Biso   1.000  Cu
  Cu3      1.0000 0.55342  0.99475  0.81760  Biso   1.000  Cu
  Cu4      1.0000 0.94658  0.49475  0.68240  Biso   1.000  Cu
  N1       1.0000 0.52946  0.07580  0.29644  Biso   1.000  N
  N2       1.0000 0.97054  0.57580  0.20356  Biso   1.000  N
  N3       1.0000 0.47054  0.92420  0.70356  Biso   1.000  N
  N4       1.0000 0.02946  0.42420  0.79644  Biso   1.000  N
  O1       1.0000 0.29140  0.80736  0.03370  Biso   1.000  O
  O2       1.0000 0.20860  0.30736  0.46630  Biso   1.000  O
  O3       1.0000 0.70860  0.19264  0.96630  Biso   1.000  O
  O4       1.0000 0.79140  0.69264  0.53370  Biso   1.000  O
  C1       1.0000 0.43290  0.12609  0.33527  Biso   1.000  C
  C2       1.0000 0.06710  0.62609  0.16473  Biso   1.000  C
  C3       1.0000 0.56710  0.87391  0.66473  Biso   1.000  C
  C4       1.0000 0.93290  0.37391  0.83527  Biso   1.000  C
  H1       1.0000 0.32390  0.12000  0.31670  Biso   1.000  H
  H2       1.0000 0.17610  0.62000  0.18330  Biso   1.000  H
  H3       1.0000 0.67610  0.88000  0.68330  Biso   1.000  H
  H4       1.0000 0.82390  0.38000  0.81670  Biso   1.000  H
  Cl1      1.0000 0.06205  0.93948  0.27290  Biso   1.000  Cl
  Cl2      1.0000 0.43795  0.43948  0.22710  Biso   1.000  Cl
  Cl3      1.0000 0.93795  0.06052  0.72710  Biso   1.000  Cl
  Cl4      1.0000 0.56205  0.56052  0.77290  Biso   1.000  Cl
  O5       1.0000 0.67810  0.02426  0.11769  Biso   1.000  O
  O6       1.0000 0.82190  0.52426  0.38231  Biso   1.000  O
  O7       1.0000 0.32190  0.97574  0.88231  Biso   1.000  O
  O8       1.0000 0.17810  0.47574  0.61769  Biso   1.000  O
  H5       1.0000 0.66940  0.99470  0.05820  Biso   1.000  H
  H6       1.0000 0.83060  0.49470  0.44180  Biso   1.000  H
  H7       1.0000 0.33060  0.00530  0.94180  Biso   1.000  H
  H8       1.0000 0.16940  0.50530  0.55820  Biso   1.000  H
  H9       1.0000 0.76710  0.00340  0.16150  Biso   1.000  H
  H10      1.0000 0.73290  0.50340  0.33850  Biso   1.000  H
  H11      1.0000 0.23290  0.99660  0.83850  Biso   1.000  H
  H12      1.0000 0.26710  0.49660  0.66150  Biso   1.000  H
  N5       1.0000 0.84420  0.39470  0.61183  Biso   1.000  N
  N6       1.0000 0.65580  0.89470  0.88817  Biso   1.000  N
  N7       1.0000 0.15580  0.60530  0.38817  Biso   1.000  N
  N8       1.0000 0.34420  0.10530  0.11183  Biso   1.000  N
  O9       1.0000 0.34629  0.93668  0.07659  Biso   1.000  O
  O10      1.0000 0.15371  0.43668  0.42341  Biso   1.000  O
  O11      1.0000 0.65371  0.06332  0.92341  Biso   1.000  O
  O12      1.0000 0.84629  0.56332  0.57659  Biso   1.000  O
  C5       1.0000 0.48630  0.18570  0.40064  Biso   1.000  C
  C6       1.0000 0.01370  0.68570  0.09936  Biso   1.000  C
  C7       1.0000 0.51370  0.81430  0.59936  Biso   1.000  C
  C8       1.0000 0.98630  0.31430  0.90064  Biso   1.000  C
  H13      1.0000 0.41440  0.22020  0.42440  Biso   1.000  H
  H14      1.0000 0.08560  0.72020  0.07560  Biso   1.000  H
  H15      1.0000 0.58560  0.77980  0.57560  Biso   1.000  H
  H16      1.0000 0.91440  0.27980  0.92440  Biso   1.000  H
  N9       1.0000 0.50920  0.89450  0.24167  Biso   1.000  N
  N10      1.0000 0.99080  0.39450  0.25833  Biso   1.000  N
  N11      1.0000 0.49080  0.10550  0.75833  Biso   1.000  N
  N12      1.0000 0.00920  0.60550  0.74167  Biso   1.000  N
  C9       1.0000 0.64790  0.19509  0.43195  Biso   1.000  C
  C10      1.0000 0.85210  0.69509  0.06805  Biso   1.000  C
  C11      1.0000 0.35210  0.80491  0.56805  Biso   1.000  C
  C12      1.0000 0.14790  0.30491  0.93195  Biso   1.000  C
  O13      1.0000 0.98550  0.93170  0.35220  Biso   1.000  O
  O14      1.0000 0.51450  0.43170  0.14780  Biso   1.000  O
  O15      1.0000 0.01450  0.06830  0.64780  Biso   1.000  O
  O16      1.0000 0.48550  0.56830  0.85220  Biso   1.000  O
  C13      1.0000 0.74750  0.13953  0.39638  Biso   1.000  C
  C14      1.0000 0.75250  0.63953  0.10362  Biso   1.000  C
  C15      1.0000 0.25250  0.86047  0.60362  Biso   1.000  C
  C16      1.0000 0.24750  0.36047  0.89638  Biso   1.000  C
  H17      1.0000 0.85640  0.14130  0.41780  Biso   1.000  H
  H18      1.0000 0.64360  0.64130  0.08220  Biso   1.000  H
  H19      1.0000 0.14360  0.85870  0.58220  Biso   1.000  H
  H20      1.0000 0.35640  0.35870  0.91780  Biso   1.000  H
  O17      1.0000 0.18530  0.98180  0.27480  Biso   1.000  O
  O18      1.0000 0.31470  0.48180  0.22520  Biso   1.000  O
  O19      1.0000 0.81470  0.01820  0.72520  Biso   1.000  O
  O20      1.0000 0.68530  0.51820  0.77480  Biso   1.000  O
  C17      1.0000 0.68480  0.08161  0.32921  Biso   1.000  C
  C18      1.0000 0.81520  0.58161  0.17079  Biso   1.000  C
  C19      1.0000 0.31520  0.91839  0.67079  Biso   1.000  C
  C20      1.0000 0.18480  0.41839  0.82921  Biso   1.000  C
  H21      1.0000 0.75340  0.04500  0.30570  Biso   1.000  H
  H22      1.0000 0.74660  0.54500  0.19430  Biso   1.000  H
  H23      1.0000 0.24660  0.95500  0.69430  Biso   1.000  H
  H24      1.0000 0.25340  0.45500  0.80570  Biso   1.000  H
  O21      1.0000 0.13310  0.86350  0.25710  Biso   1.000  O
  O22      1.0000 0.36690  0.36350  0.24290  Biso   1.000  O
  O23      1.0000 0.86690  0.13650  0.74290  Biso   1.000  O
  O24      1.0000 0.63310  0.63650  0.75710  Biso   1.000  O
  C21      1.0000 0.71430  0.26315  0.49784  Biso   1.000  C
  C22      1.0000 0.78570  0.76315  0.00216  Biso   1.000  C
  C23      1.0000 0.28570  0.73685  0.50216  Biso   1.000  C
  C24      1.0000 0.21430  0.23685  0.99784  Biso   1.000  C
  O25      1.0000 0.98450  0.98140  0.18430  Biso   1.000  O
  O26      1.0000 0.51550  0.48140  0.31570  Biso   1.000  O
  O27      1.0000 0.01550  0.01860  0.81570  Biso   1.000  O
  O28      1.0000 0.48450  0.51860  0.68430  Biso   1.000  O
  C25      1.0000 0.62740  0.33428  0.50819  Biso   1.000  C
  C26      1.0000 0.87260  0.83428  0.99181  Biso   1.000  C
  C27      1.0000 0.37260  0.66572  0.49181  Biso   1.000  C
  C28      1.0000 0.12740  0.16572  0.00819  Biso   1.000  C
  H25      1.0000 0.52300  0.33870  0.47720  Biso   1.000  H
  H26      1.0000 0.97700  0.83870  0.02280  Biso   1.000  H
  H27      1.0000 0.47700  0.66130  0.52280  Biso   1.000  H
  H28      1.0000 0.02300  0.16130  0.97720  Biso   1.000  H
  C29      1.0000 0.69620  0.39836  0.56451  Biso   1.000  C
  C30      1.0000 0.80380  0.89836  0.93549  Biso   1.000  C
  C31      1.0000 0.30380  0.60164  0.43549  Biso   1.000  C
  C32      1.0000 0.19620  0.10164  0.06451  Biso   1.000  C
  H29      1.0000 0.63690  0.44610  0.56970  Biso   1.000  H
  H30      1.0000 0.86310  0.94610  0.93030  Biso   1.000  H
  H31      1.0000 0.36310  0.55390  0.43030  Biso   1.000  H
  H32      1.0000 0.13690  0.05390  0.06970  Biso   1.000  H
  C33      1.0000 0.92710  0.32540  0.60329  Biso   1.000  C
  C34      1.0000 0.57290  0.82540  0.89671  Biso   1.000  C
  C35      1.0000 0.07290  0.67460  0.39671  Biso   1.000  C
  C36      1.0000 0.42710  0.17460  0.10329  Biso   1.000  C
  H33      1.0000 0.03040  0.32200  0.63640  Biso   1.000  H
  H34      1.0000 0.46960  0.82200  0.86360  Biso   1.000  H
  H35      1.0000 0.96960  0.67800  0.36360  Biso   1.000  H
  H36      1.0000 0.53040  0.17800  0.13640  Biso   1.000  H
  C37      1.0000 0.86770  0.25944  0.54839  Biso   1.000  C
  C38      1.0000 0.63230  0.75944  0.95161  Biso   1.000  C
  C39      1.0000 0.13230  0.74056  0.45161  Biso   1.000  C
  C40      1.0000 0.36770  0.24056  0.04839  Biso   1.000  C
  H37      1.0000 0.92950  0.21240  0.54490  Biso   1.000  H
  H38      1.0000 0.57050  0.71240  0.95510  Biso   1.000  H
  H39      1.0000 0.07050  0.78760  0.45510  Biso   1.000  H
  H40      1.0000 0.42950  0.28760  0.04490  Biso   1.000  H
  C41      1.0000 0.59510  0.87616  0.32672  Biso   1.000  C
  C42      1.0000 0.90490  0.37616  0.17328  Biso   1.000  C
  C43      1.0000 0.40490  0.12384  0.67328  Biso   1.000  C
  C44      1.0000 0.09510  0.62384  0.82672  Biso   1.000  C
  H41      1.0000 0.63380  0.91920  0.36770  Biso   1.000  H
  H42      1.0000 0.86620  0.41920  0.13230  Biso   1.000  H
  H43      1.0000 0.36620  0.08080  0.63230  Biso   1.000  H
  H44      1.0000 0.13380  0.58080  0.86770  Biso   1.000  H
  C45      1.0000 0.62750  0.79645  0.35502  Biso   1.000  C
  C46      1.0000 0.87250  0.29645  0.14498  Biso   1.000  C
  C47      1.0000 0.37250  0.20355  0.64498  Biso   1.000  C
  C48      1.0000 0.12750  0.70355  0.85502  Biso   1.000  C
  H45      1.0000 0.69060  0.78530  0.41360  Biso   1.000  H
  H46      1.0000 0.80940  0.28530  0.08640  Biso   1.000  H
  H47      1.0000 0.30940  0.21470  0.58640  Biso   1.000  H
  H48      1.0000 0.19060  0.71470  0.91360  Biso   1.000  H
  C49      1.0000 0.56540  0.73197  0.29550  Biso   1.000  C
  C50      1.0000 0.93460  0.23197  0.20450  Biso   1.000  C
  C51      1.0000 0.43460  0.26803  0.70450  Biso   1.000  C
  C52      1.0000 0.06540  0.76803  0.79550  Biso   1.000  C
  H49      1.0000 0.58550  0.67700  0.31370  Biso   1.000  H
  H50      1.0000 0.91450  0.17700  0.18630  Biso   1.000  H
  H51      1.0000 0.41450  0.32300  0.68630  Biso   1.000  H
  H52      1.0000 0.08550  0.82300  0.81370  Biso   1.000  H
  C53      1.0000 0.47480  0.75073  0.21030  Biso   1.000  C
  C54      1.0000 0.02520  0.25073  0.28970  Biso   1.000  C
  C55      1.0000 0.52520  0.24927  0.78970  Biso   1.000  C
  C56      1.0000 0.97480  0.74927  0.71030  Biso   1.000  C
  H53      1.0000 0.43020  0.70870  0.16960  Biso   1.000  H
  H54      1.0000 0.06980  0.20870  0.33040  Biso   1.000  H
  H55      1.0000 0.56980  0.29130  0.83040  Biso   1.000  H
  H56      1.0000 0.93020  0.79130  0.66960  Biso   1.000  H
  C57      1.0000 0.44970  0.83246  0.18492  Biso   1.000  C
  C58      1.0000 0.05030  0.33246  0.31508  Biso   1.000  C
  C59      1.0000 0.55030  0.16754  0.81508  Biso   1.000  C
  C60      1.0000 0.94970  0.66754  0.68492  Biso   1.000  C
  C61      1.0000 0.35330  0.85848  0.09056  Biso   1.000  C
  C62      1.0000 0.14670  0.35848  0.40944  Biso   1.000  C
  C63      1.0000 0.64670  0.14152  0.90944  Biso   1.000  C
  C64      1.0000 0.85330  0.64152  0.59056  Biso   1.000  C
  O29      1.0000 0.86370  0.92330  0.52260  Biso   1.000  O
  O30      1.0000 0.63630  0.42330  0.97740  Biso   1.000  O
  O31      1.0000 0.13630  0.07670  0.47740  Biso   1.000  O
  O32      1.0000 0.36370  0.57670  0.02260  Biso   1.000  O
  H57      1.0000 0.94630  0.94350  0.55650  Biso   1.000  H
  H58      1.0000 0.55370  0.44350  0.94350  Biso   1.000  H
  H59      1.0000 0.05370  0.05650  0.44350  Biso   1.000  H
  H60      1.0000 0.44630  0.55650  0.05650  Biso   1.000  H
  H61      1.0000 0.86590  0.93320  0.46380  Biso   1.000  H
  H62      1.0000 0.63410  0.43320  0.03620  Biso   1.000  H
  H63      1.0000 0.13410  0.06680  0.53620  Biso   1.000  H
  H64      1.0000 0.36590  0.56680  0.96380  Biso   1.000  H
  O33      1.0000 0.91410  0.91940  0.22320  Biso   1.000  O
  O34      1.0000 0.58590  0.41940  0.27680  Biso   1.000  O
  O35      1.0000 0.08590  0.08060  0.77680  Biso   1.000  O
  O36      1.0000 0.41410  0.58060  0.72320  Biso   1.000  O
