data_image0
_cell_length_a       10.789
_cell_length_b       11.15
_cell_length_c       19.619
_cell_angle_alpha    90
_cell_angle_beta     121.591
_cell_angle_gamma    90

_symmetry_space_group_name_H-M    "P 1"
_symmetry_int_tables_number       1

loop_
  _symmetry_equiv_pos_as_xyz
  'x, y, z'

loop_
  _atom_site_label
  _atom_site_occupancy
  _atom_site_fract_x
  _atom_site_fract_y
  _atom_site_fract_z
  _atom_site_thermal_displace_type
  _atom_site_B_iso_or_equiv
  _atom_site_type_symbol
  O1       1.0000 0.81460  0.69280  0.17010  Biso   1.000  O
  O2       1.0000 0.18540  0.19280  0.32990  Biso   1.000  O
  O3       1.0000 0.18540  0.30720  0.82990  Biso   1.000  O
  O4       1.0000 0.81460  0.80720  0.67010  Biso   1.000  O
  Cu1      1.0000 0.27643  0.08133  0.28930  Biso   1.000  Cu
  Cu2      1.0000 0.72357  0.58133  0.21070  Biso   1.000  Cu
  Cu3      1.0000 0.72357  0.91867  0.71070  Biso   1.000  Cu
  Cu4      1.0000 0.27643  0.41867  0.78930  Biso   1.000  Cu
  O5       1.0000 0.69480  0.62330  0.04430  Biso   1.000  O
  O6       1.0000 0.30520  0.12330  0.45570  Biso   1.000  O
  O7       1.0000 0.30520  0.37670  0.95570  Biso   1.000  O
  O8       1.0000 0.69480  0.87670  0.54430  Biso   1.000  O
  O9       1.0000 0.36560  0.94670  0.38670  Biso   1.000  O
  O10      1.0000 0.63440  0.44670  0.11330  Biso   1.000  O
  O11      1.0000 0.63440  0.05330  0.61330  Biso   1.000  O
  O12      1.0000 0.36560  0.55330  0.88670  Biso   1.000  O
  H1       1.0000 0.45670  0.93870  0.40620  Biso   1.000  H
  H2       1.0000 0.54330  0.43870  0.09380  Biso   1.000  H
  H3       1.0000 0.54330  0.06130  0.59380  Biso   1.000  H
  H4       1.0000 0.45670  0.56130  0.90620  Biso   1.000  H
  H5       1.0000 0.32340  0.87960  0.36800  Biso   1.000  H
  H6       1.0000 0.67660  0.37960  0.13200  Biso   1.000  H
  H7       1.0000 0.67660  0.12040  0.63200  Biso   1.000  H
  H8       1.0000 0.32340  0.62040  0.86800  Biso   1.000  H
  N1       1.0000 0.08250  0.01500  0.21260  Biso   1.000  N
  N2       1.0000 0.91750  0.51500  0.28740  Biso   1.000  N
  N3       1.0000 0.91750  0.98500  0.78740  Biso   1.000  N
  N4       1.0000 0.08250  0.48500  0.71260  Biso   1.000  N
  N5       1.0000 0.53000  0.17060  0.02810  Biso   1.000  N
  N6       1.0000 0.47000  0.67060  0.47190  Biso   1.000  N
  N7       1.0000 0.47000  0.82940  0.97190  Biso   1.000  N
  N8       1.0000 0.53000  0.32940  0.52810  Biso   1.000  N
  H9       1.0000 0.46560  0.12030  0.99560  Biso   1.000  H
  H10      1.0000 0.53440  0.62030  0.50440  Biso   1.000  H
  H11      1.0000 0.53440  0.87970  0.00440  Biso   1.000  H
  H12      1.0000 0.46560  0.37970  0.49560  Biso   1.000  H
  H13      1.0000 0.50550  0.24350  0.02980  Biso   1.000  H
  H14      1.0000 0.49450  0.74350  0.47020  Biso   1.000  H
  H15      1.0000 0.49450  0.75650  0.97020  Biso   1.000  H
  H16      1.0000 0.50550  0.25650  0.52980  Biso   1.000  H
  C1       1.0000 0.77930  0.69320  0.09780  Biso   1.000  C
  C2       1.0000 0.22070  0.19320  0.40220  Biso   1.000  C
  C3       1.0000 0.22070  0.30680  0.90220  Biso   1.000  C
  C4       1.0000 0.77930  0.80680  0.59780  Biso   1.000  C
  C5       1.0000 0.67580  0.07950  0.44260  Biso   1.000  C
  C6       1.0000 0.32420  0.57950  0.05740  Biso   1.000  C
  C7       1.0000 0.32420  0.92050  0.55740  Biso   1.000  C
  C8       1.0000 0.67580  0.42050  0.94260  Biso   1.000  C
  H17      1.0000 0.63470  0.00390  0.43660  Biso   1.000  H
  H18      1.0000 0.36530  0.50390  0.06340  Biso   1.000  H
  H19      1.0000 0.36530  0.99610  0.56340  Biso   1.000  H
  H20      1.0000 0.63470  0.49610  0.93660  Biso   1.000  H
  N9       1.0000 0.56320  0.36620  0.36330  Biso   1.000  N
  N10      1.0000 0.43680  0.86620  0.13670  Biso   1.000  N
  N11      1.0000 0.43680  0.63380  0.63670  Biso   1.000  N
  N12      1.0000 0.56320  0.13380  0.86330  Biso   1.000  N
  C9       1.0000 0.58060  0.49710  0.36520  Biso   1.000  C
  C10      1.0000 0.41940  0.99710  0.13480  Biso   1.000  C
  C11      1.0000 0.41940  0.50290  0.63480  Biso   1.000  C
  C12      1.0000 0.58060  0.00290  0.86520  Biso   1.000  C
  H21      1.0000 0.63510  0.52300  0.42060  Biso   1.000  H
  H22      1.0000 0.36490  0.02300  0.07940  Biso   1.000  H
  H23      1.0000 0.36490  0.47700  0.57940  Biso   1.000  H
  H24      1.0000 0.63510  0.97700  0.92060  Biso   1.000  H
  H25      1.0000 0.48510  0.53380  0.34020  Biso   1.000  H
  H26      1.0000 0.51490  0.03380  0.15980  Biso   1.000  H
  H27      1.0000 0.51490  0.46620  0.65980  Biso   1.000  H
  H28      1.0000 0.48510  0.96620  0.84020  Biso   1.000  H
  C13      1.0000 0.94740  0.07340  0.17410  Biso   1.000  C
  C14      1.0000 0.05260  0.57340  0.32590  Biso   1.000  C
  C15      1.0000 0.05260  0.92660  0.82590  Biso   1.000  C
  C16      1.0000 0.94740  0.42660  0.67410  Biso   1.000  C
  C17      1.0000 0.84140  0.99590  0.11970  Biso   1.000  C
  C18      1.0000 0.15860  0.49590  0.38030  Biso   1.000  C
  C19      1.0000 0.15860  0.00410  0.88030  Biso   1.000  C
  C20      1.0000 0.84140  0.50410  0.61970  Biso   1.000  C
  C21      1.0000 0.84910  0.78700  0.07210  Biso   1.000  C
  C22      1.0000 0.15090  0.28700  0.42790  Biso   1.000  C
  C23      1.0000 0.15090  0.21300  0.92790  Biso   1.000  C
  C24      1.0000 0.84910  0.71300  0.57210  Biso   1.000  C
  H29      1.0000 0.92520  0.74840  0.06770  Biso   1.000  H
  H30      1.0000 0.07480  0.24840  0.43230  Biso   1.000  H
  H31      1.0000 0.07480  0.25160  0.93230  Biso   1.000  H
  H32      1.0000 0.92520  0.75160  0.56770  Biso   1.000  H
  H33      1.0000 0.77620  0.81550  0.01930  Biso   1.000  H
  H34      1.0000 0.22380  0.31550  0.48070  Biso   1.000  H
  H35      1.0000 0.22380  0.18450  0.98070  Biso   1.000  H
  H36      1.0000 0.77620  0.68450  0.51930  Biso   1.000  H
  N13      1.0000 0.44880  0.19050  0.34000  Biso   1.000  N
  N14      1.0000 0.55120  0.69050  0.16000  Biso   1.000  N
  N15      1.0000 0.55120  0.80950  0.66000  Biso   1.000  N
  N16      1.0000 0.44880  0.30950  0.84000  Biso   1.000  N
  C25      1.0000 0.59590  0.17470  0.39660  Biso   1.000  C
  C26      1.0000 0.40410  0.67470  0.10340  Biso   1.000  C
  C27      1.0000 0.40410  0.82530  0.60340  Biso   1.000  C
  C28      1.0000 0.59590  0.32530  0.89660  Biso   1.000  C
  N17      1.0000 0.81730  0.10060  0.49710  Biso   1.000  N
  N18      1.0000 0.18270  0.60060  0.00290  Biso   1.000  N
  N19      1.0000 0.18270  0.89940  0.50290  Biso   1.000  N
  N20      1.0000 0.81730  0.39940  0.99710  Biso   1.000  N
  C29      1.0000 0.88270  0.21150  0.50640  Biso   1.000  C
  C30      1.0000 0.11730  0.71150  0.99360  Biso   1.000  C
  C31      1.0000 0.11730  0.78850  0.49360  Biso   1.000  C
  C32      1.0000 0.88270  0.28850  0.00640  Biso   1.000  C
  N21      1.0000 0.02330  0.21980  0.56070  Biso   1.000  N
  N22      1.0000 0.97670  0.71980  0.93930  Biso   1.000  N
  N23      1.0000 0.97670  0.78020  0.43930  Biso   1.000  N
  N24      1.0000 0.02330  0.28020  0.06070  Biso   1.000  N
  H37      1.0000 0.06740  0.28730  0.56860  Biso   1.000  H
  H38      1.0000 0.93260  0.78730  0.93140  Biso   1.000  H
  H39      1.0000 0.93260  0.71270  0.43140  Biso   1.000  H
  H40      1.0000 0.06740  0.21270  0.06860  Biso   1.000  H
  H41      1.0000 0.07050  0.15770  0.58790  Biso   1.000  H
  H42      1.0000 0.92950  0.65770  0.91210  Biso   1.000  H
  H43      1.0000 0.92950  0.84230  0.41210  Biso   1.000  H
  H44      1.0000 0.07050  0.34230  0.08790  Biso   1.000  H
  N25      1.0000 0.80790  0.30700  0.46360  Biso   1.000  N
  N26      1.0000 0.19210  0.80700  0.03640  Biso   1.000  N
  N27      1.0000 0.19210  0.69300  0.53640  Biso   1.000  N
  N28      1.0000 0.80790  0.19300  0.96360  Biso   1.000  N
  C33      1.0000 0.66770  0.28470  0.41060  Biso   1.000  C
  C34      1.0000 0.33230  0.78470  0.08940  Biso   1.000  C
  C35      1.0000 0.33230  0.71530  0.58940  Biso   1.000  C
  C36      1.0000 0.66770  0.21530  0.91060  Biso   1.000  C
  C37      1.0000 0.43530  0.30600  0.32290  Biso   1.000  C
  C38      1.0000 0.56470  0.80600  0.17710  Biso   1.000  C
  C39      1.0000 0.56470  0.69400  0.67710  Biso   1.000  C
  C40      1.0000 0.43530  0.19400  0.82290  Biso   1.000  C
  H45      1.0000 0.34710  0.34230  0.28680  Biso   1.000  H
  H46      1.0000 0.65290  0.84230  0.21320  Biso   1.000  H
  H47      1.0000 0.65290  0.65770  0.71320  Biso   1.000  H
  H48      1.0000 0.34710  0.15770  0.78680  Biso   1.000  H
  N29      1.0000 0.70110  0.02010  0.07120  Biso   1.000  N
  N30      1.0000 0.29890  0.52010  0.42880  Biso   1.000  N
  N31      1.0000 0.29890  0.97990  0.92880  Biso   1.000  N
  N32      1.0000 0.70110  0.47990  0.57120  Biso   1.000  N
  C41      1.0000 0.66890  0.13540  0.07630  Biso   1.000  C
  C42      1.0000 0.33110  0.63540  0.42370  Biso   1.000  C
  C43      1.0000 0.33110  0.86460  0.92370  Biso   1.000  C
  C44      1.0000 0.66890  0.36460  0.57630  Biso   1.000  C
  N33      1.0000 0.76510  0.22080  0.12560  Biso   1.000  N
  N34      1.0000 0.23490  0.72080  0.37440  Biso   1.000  N
  N35      1.0000 0.23490  0.77920  0.87440  Biso   1.000  N
  N36      1.0000 0.76510  0.27920  0.62560  Biso   1.000  N
  C45      1.0000 0.90290  0.19020  0.17340  Biso   1.000  C
  C46      1.0000 0.09710  0.69020  0.32660  Biso   1.000  C
  C47      1.0000 0.09710  0.80980  0.82660  Biso   1.000  C
  C48      1.0000 0.90290  0.30980  0.67340  Biso   1.000  C
  H49      1.0000 0.97040  0.24740  0.20680  Biso   1.000  H
  H50      1.0000 0.02960  0.74740  0.29320  Biso   1.000  H
  H51      1.0000 0.02960  0.75260  0.79320  Biso   1.000  H
  H52      1.0000 0.97040  0.25260  0.70680  Biso   1.000  H
  N37      1.0000 0.91150  0.88980  0.12450  Biso   1.000  N
  N38      1.0000 0.08850  0.38980  0.37550  Biso   1.000  N
  N39      1.0000 0.08850  0.11020  0.87550  Biso   1.000  N
  N40      1.0000 0.91150  0.61020  0.62450  Biso   1.000  N
  C49      1.0000 0.05550  0.90720  0.18080  Biso   1.000  C
  C50      1.0000 0.94450  0.40720  0.31920  Biso   1.000  C
  C51      1.0000 0.94450  0.09280  0.81920  Biso   1.000  C
  C52      1.0000 0.05550  0.59280  0.68080  Biso   1.000  C
  H53      1.0000 0.12660  0.84890  0.19510  Biso   1.000  H
  H54      1.0000 0.87340  0.34890  0.30490  Biso   1.000  H
  H55      1.0000 0.87340  0.15110  0.80490  Biso   1.000  H
  H56      1.0000 0.12660  0.65110  0.69510  Biso   1.000  H
  O13      1.0000 0.72350  0.63930  0.34900  Biso   1.000  O
  O14      1.0000 0.27650  0.13930  0.15100  Biso   1.000  O
  O15      1.0000 0.27650  0.36070  0.65100  Biso   1.000  O
  O16      1.0000 0.72350  0.86070  0.84900  Biso   1.000  O
  O17      1.0000 0.63960  0.48620  0.26390  Biso   1.000  O
  O18      1.0000 0.36040  0.98620  0.23610  Biso   1.000  O
  O19      1.0000 0.36040  0.51380  0.73610  Biso   1.000  O
  O20      1.0000 0.63960  0.01380  0.76390  Biso   1.000  O
  C53      1.0000 0.65720  0.54330  0.32380  Biso   1.000  C
  C54      1.0000 0.34280  0.04330  0.17620  Biso   1.000  C
  C55      1.0000 0.34280  0.45670  0.67620  Biso   1.000  C
  C56      1.0000 0.65720  0.95670  0.82380  Biso   1.000  C
  O21      1.0000 0.13320  0.44420  0.20170  Biso   1.000  O
  O22      1.0000 0.86680  0.94420  0.29830  Biso   1.000  O
  O23      1.0000 0.86680  0.55580  0.79830  Biso   1.000  O
  O24      1.0000 0.13320  0.05580  0.70170  Biso   1.000  O
  N41      1.0000 0.13850  0.54050  0.17240  Biso   1.000  N
  N42      1.0000 0.86150  0.04050  0.32760  Biso   1.000  N
  N43      1.0000 0.86150  0.45950  0.82760  Biso   1.000  N
  N44      1.0000 0.13850  0.95950  0.67240  Biso   1.000  N
  O25      1.0000 0.21960  0.62330  0.21150  Biso   1.000  O
  O26      1.0000 0.78040  0.12330  0.28850  Biso   1.000  O
  O27      1.0000 0.78040  0.37670  0.78850  Biso   1.000  O
  O28      1.0000 0.21960  0.87670  0.71150  Biso   1.000  O
  O29      1.0000 0.04040  0.56080  0.09840  Biso   1.000  O
  O30      1.0000 0.95960  0.06080  0.40160  Biso   1.000  O
  O31      1.0000 0.95960  0.43920  0.90160  Biso   1.000  O
  O32      1.0000 0.04040  0.93920  0.59840  Biso   1.000  O
  O33      1.0000 0.00000  0.50000  0.50000  Biso   1.000  O
  O34      1.0000 0.00000  0.00000  0.00000  Biso   1.000  O
  O35      1.0000 0.63610  0.87340  0.34390  Biso   1.000  O
  O36      1.0000 0.36390  0.37340  0.15610  Biso   1.000  O
  O37      1.0000 0.36390  0.12660  0.65610  Biso   1.000  O
  O38      1.0000 0.63610  0.62660  0.84390  Biso   1.000  O
  H57      1.0000 0.02540  0.48510  0.46650  Biso   1.000  H
  H58      1.0000 0.97460  0.98510  0.03350  Biso   1.000  H
  H59      1.0000 0.97460  0.51490  0.53350  Biso   1.000  H
  H60      1.0000 0.02540  0.01490  0.96650  Biso   1.000  H
  H61      1.0000 0.97550  0.43510  0.51250  Biso   1.000  H
  H62      1.0000 0.02450  0.93510  0.98750  Biso   1.000  H
  H63      1.0000 0.02450  0.56490  0.48750  Biso   1.000  H
  H64      1.0000 0.97550  0.06490  0.01250  Biso   1.000  H
