data_image0
_cell_length_a       9.4351
_cell_length_b       15.9238
_cell_length_c       10.7882
_cell_angle_alpha    90
_cell_angle_beta     106.814
_cell_angle_gamma    90

_symmetry_space_group_name_H-M    "P 1"
_symmetry_int_tables_number       1

loop_
  _symmetry_equiv_pos_as_xyz
  'x, y, z'

loop_
  _atom_site_label
  _atom_site_occupancy
  _atom_site_fract_x
  _atom_site_fract_y
  _atom_site_fract_z
  _atom_site_thermal_displace_type
  _atom_site_B_iso_or_equiv
  _atom_site_type_symbol
  Cu1      1.0000 0.72164  0.09026  0.36692  Biso   1.000  Cu
  Cu2      1.0000 0.77836  0.59026  0.13308  Biso   1.000  Cu
  Cu3      1.0000 0.27836  0.90974  0.63308  Biso   1.000  Cu
  Cu4      1.0000 0.22164  0.40974  0.86692  Biso   1.000  Cu
  O1       1.0000 0.76250  0.16668  0.51206  Biso   1.000  O
  O2       1.0000 0.73750  0.66668  0.98794  Biso   1.000  O
  O3       1.0000 0.23750  0.83332  0.48794  Biso   1.000  O
  O4       1.0000 0.26250  0.33332  0.01206  Biso   1.000  O
  O5       1.0000 0.40470  0.37612  0.82490  Biso   1.000  O
  O6       1.0000 0.09530  0.87612  0.67510  Biso   1.000  O
  O7       1.0000 0.59530  0.62388  0.17510  Biso   1.000  O
  O8       1.0000 0.90470  0.12388  0.32490  Biso   1.000  O
  O9       1.0000 0.22620  0.29263  0.71200  Biso   1.000  O
  O10      1.0000 0.27380  0.79263  0.78800  Biso   1.000  O
  O11      1.0000 0.77380  0.70737  0.28800  Biso   1.000  O
  O12      1.0000 0.72620  0.20737  0.21200  Biso   1.000  O
  N1       1.0000 0.51810  0.06989  0.36950  Biso   1.000  N
  N2       1.0000 0.98190  0.56989  0.13050  Biso   1.000  N
  N3       1.0000 0.48190  0.93011  0.63050  Biso   1.000  N
  N4       1.0000 0.01810  0.43011  0.86950  Biso   1.000  N
  N5       1.0000 0.66860  0.00475  0.22440  Biso   1.000  N
  N6       1.0000 0.83140  0.50475  0.27560  Biso   1.000  N
  N7       1.0000 0.33140  0.99525  0.77560  Biso   1.000  N
  N8       1.0000 0.16860  0.49525  0.72440  Biso   1.000  N
  C1       1.0000 0.66610  0.20066  0.56310  Biso   1.000  C
  C2       1.0000 0.83390  0.70066  0.93690  Biso   1.000  C
  C3       1.0000 0.33390  0.79934  0.43690  Biso   1.000  C
  C4       1.0000 0.16610  0.29934  0.06310  Biso   1.000  C
  C5       1.0000 0.71170  0.26550  0.65580  Biso   1.000  C
  C6       1.0000 0.78830  0.76550  0.84420  Biso   1.000  C
  C7       1.0000 0.28830  0.73450  0.34420  Biso   1.000  C
  C8       1.0000 0.21170  0.23450  0.15580  Biso   1.000  C
  H1       1.0000 0.81150  0.28420  0.67890  Biso   1.000  H
  H2       1.0000 0.68850  0.78420  0.82110  Biso   1.000  H
  H3       1.0000 0.18850  0.71580  0.32110  Biso   1.000  H
  H4       1.0000 0.31150  0.21580  0.17890  Biso   1.000  H
  C9       1.0000 0.61420  0.30226  0.71350  Biso   1.000  C
  C10      1.0000 0.88580  0.80226  0.78650  Biso   1.000  C
  C11      1.0000 0.38580  0.69774  0.28650  Biso   1.000  C
  C12      1.0000 0.11420  0.19774  0.21350  Biso   1.000  C
  H5       1.0000 0.64840  0.34590  0.77490  Biso   1.000  H
  H6       1.0000 0.85160  0.84590  0.72510  Biso   1.000  H
  H7       1.0000 0.35160  0.65410  0.22510  Biso   1.000  H
  H8       1.0000 0.14840  0.15410  0.27490  Biso   1.000  H
  C13      1.0000 0.46570  0.27660  0.68340  Biso   1.000  C
  C14      1.0000 0.03430  0.77660  0.81660  Biso   1.000  C
  C15      1.0000 0.53430  0.72340  0.31660  Biso   1.000  C
  C16      1.0000 0.96570  0.22340  0.18340  Biso   1.000  C
  C17      1.0000 0.41930  0.21271  0.59460  Biso   1.000  C
  C18      1.0000 0.08070  0.71271  0.90540  Biso   1.000  C
  C19      1.0000 0.58070  0.78729  0.40540  Biso   1.000  C
  C20      1.0000 0.91930  0.28729  0.09460  Biso   1.000  C
  H9       1.0000 0.31960  0.19390  0.57460  Biso   1.000  H
  H10      1.0000 0.18040  0.69390  0.92540  Biso   1.000  H
  H11      1.0000 0.68040  0.80610  0.42540  Biso   1.000  H
  H12      1.0000 0.81960  0.30610  0.07460  Biso   1.000  H
  C21      1.0000 0.51540  0.17432  0.53260  Biso   1.000  C
  C22      1.0000 0.98460  0.67432  0.96740  Biso   1.000  C
  C23      1.0000 0.48460  0.82568  0.46740  Biso   1.000  C
  C24      1.0000 0.01540  0.32568  0.03260  Biso   1.000  C
  C25      1.0000 0.45120  0.10924  0.44240  Biso   1.000  C
  C26      1.0000 0.04880  0.60924  0.05760  Biso   1.000  C
  C27      1.0000 0.54880  0.89076  0.55760  Biso   1.000  C
  C28      1.0000 0.95120  0.39076  0.94240  Biso   1.000  C
  H13      1.0000 0.35200  0.09350  0.43520  Biso   1.000  H
  H14      1.0000 0.14800  0.59350  0.06480  Biso   1.000  H
  H15      1.0000 0.64800  0.90650  0.56480  Biso   1.000  H
  H16      1.0000 0.85200  0.40650  0.93520  Biso   1.000  H
  C29      1.0000 0.44140  0.00785  0.27920  Biso   1.000  C
  C30      1.0000 0.05860  0.50785  0.22080  Biso   1.000  C
  C31      1.0000 0.55860  0.99215  0.72080  Biso   1.000  C
  C32      1.0000 0.94140  0.49215  0.77920  Biso   1.000  C
  C33      1.0000 0.30030  0.97910  0.26060  Biso   1.000  C
  C34      1.0000 0.19970  0.47910  0.23940  Biso   1.000  C
  C35      1.0000 0.69970  0.02090  0.73940  Biso   1.000  C
  C36      1.0000 0.80030  0.52090  0.76060  Biso   1.000  C
  H17      1.0000 0.24160  0.00150  0.31100  Biso   1.000  H
  H18      1.0000 0.25840  0.50150  0.18900  Biso   1.000  H
  H19      1.0000 0.75840  0.99850  0.68900  Biso   1.000  H
  H20      1.0000 0.74160  0.49850  0.81100  Biso   1.000  H
  C37      1.0000 0.24110  0.91680  0.16770  Biso   1.000  C
  C38      1.0000 0.25890  0.41680  0.33230  Biso   1.000  C
  C39      1.0000 0.75890  0.08320  0.83230  Biso   1.000  C
  C40      1.0000 0.74110  0.58320  0.66770  Biso   1.000  C
  H21      1.0000 0.14240  0.89790  0.15530  Biso   1.000  H
  H22      1.0000 0.35760  0.39790  0.34470  Biso   1.000  H
  H23      1.0000 0.85760  0.10210  0.84470  Biso   1.000  H
  H24      1.0000 0.64240  0.60210  0.65530  Biso   1.000  H
  C41      1.0000 0.32440  0.88290  0.09440  Biso   1.000  C
  C42      1.0000 0.17560  0.38290  0.40560  Biso   1.000  C
  C43      1.0000 0.67560  0.11710  0.90560  Biso   1.000  C
  C44      1.0000 0.82440  0.61710  0.59440  Biso   1.000  C
  H25      1.0000 0.28350  0.84050  0.03250  Biso   1.000  H
  H26      1.0000 0.21650  0.34050  0.46750  Biso   1.000  H
  H27      1.0000 0.71650  0.15950  0.96750  Biso   1.000  H
  H28      1.0000 0.78350  0.65950  0.53250  Biso   1.000  H
  C45      1.0000 0.46940  0.91070  0.11110  Biso   1.000  C
  C46      1.0000 0.03060  0.41070  0.38890  Biso   1.000  C
  C47      1.0000 0.53060  0.08930  0.88890  Biso   1.000  C
  C48      1.0000 0.96940  0.58930  0.61110  Biso   1.000  C
  C49      1.0000 0.56530  0.87940  0.04070  Biso   1.000  C
  C50      1.0000 0.93470  0.37940  0.45930  Biso   1.000  C
  C51      1.0000 0.43470  0.12060  0.95930  Biso   1.000  C
  C52      1.0000 0.06530  0.62060  0.54070  Biso   1.000  C
  H29      1.0000 0.53160  0.83660  0.97760  Biso   1.000  H
  H30      1.0000 0.96840  0.33660  0.52240  Biso   1.000  H
  H31      1.0000 0.46840  0.16340  0.02240  Biso   1.000  H
  H32      1.0000 0.03160  0.66340  0.47760  Biso   1.000  H
  C53      1.0000 0.70450  0.91050  0.06360  Biso   1.000  C
  C54      1.0000 0.79550  0.41050  0.43640  Biso   1.000  C
  C55      1.0000 0.29550  0.08950  0.93640  Biso   1.000  C
  C56      1.0000 0.20450  0.58950  0.56360  Biso   1.000  C
  H33      1.0000 0.76870  0.88940  0.01750  Biso   1.000  H
  H34      1.0000 0.73130  0.38940  0.48250  Biso   1.000  H
  H35      1.0000 0.23130  0.11060  0.98250  Biso   1.000  H
  H36      1.0000 0.26870  0.61060  0.51750  Biso   1.000  H
  C57      1.0000 0.75250  0.97420  0.15620  Biso   1.000  C
  C58      1.0000 0.74750  0.47420  0.34380  Biso   1.000  C
  C59      1.0000 0.24750  0.02580  0.84380  Biso   1.000  C
  C60      1.0000 0.25250  0.52580  0.65620  Biso   1.000  C
  H37      1.0000 0.84940  0.99630  0.17040  Biso   1.000  H
  H38      1.0000 0.65060  0.49630  0.32960  Biso   1.000  H
  H39      1.0000 0.15060  0.00370  0.82960  Biso   1.000  H
  H40      1.0000 0.34940  0.50370  0.67040  Biso   1.000  H
  C61      1.0000 0.52890  0.97390  0.20310  Biso   1.000  C
  C62      1.0000 0.97110  0.47390  0.29690  Biso   1.000  C
  C63      1.0000 0.47110  0.02610  0.79690  Biso   1.000  C
  C64      1.0000 0.02890  0.52610  0.70310  Biso   1.000  C
  C65      1.0000 0.35770  0.31610  0.74330  Biso   1.000  C
  C66      1.0000 0.14230  0.81610  0.75670  Biso   1.000  C
  C67      1.0000 0.64230  0.68390  0.25670  Biso   1.000  C
  C68      1.0000 0.85770  0.18390  0.24330  Biso   1.000  C
  O13      1.0000 0.84730  0.96376  0.49290  Biso   1.000  O
  O14      1.0000 0.65270  0.46376  0.00710  Biso   1.000  O
  O15      1.0000 0.15270  0.03624  0.50710  Biso   1.000  O
  O16      1.0000 0.34730  0.53624  0.99290  Biso   1.000  O
  H41      1.0000 0.92230  0.96620  0.55770  Biso   1.000  H
  H42      1.0000 0.57770  0.46620  0.94230  Biso   1.000  H
  H43      1.0000 0.07770  0.03380  0.44230  Biso   1.000  H
  H44      1.0000 0.42230  0.53380  0.05770  Biso   1.000  H
  H45      1.0000 0.85390  0.92450  0.44290  Biso   1.000  H
  H46      1.0000 0.64610  0.42450  0.05710  Biso   1.000  H
  H47      1.0000 0.14610  0.07550  0.55710  Biso   1.000  H
  H48      1.0000 0.35390  0.57550  0.94290  Biso   1.000  H
  O17      1.0000 0.05490  0.14559  0.66270  Biso   1.000  O
  O18      1.0000 0.44510  0.64559  0.83730  Biso   1.000  O
  O19      1.0000 0.94510  0.85441  0.33730  Biso   1.000  O
  O20      1.0000 0.55490  0.35441  0.16270  Biso   1.000  O
  H49      1.0000 0.96900  0.16030  0.62050  Biso   1.000  H
  H50      1.0000 0.53100  0.66030  0.87950  Biso   1.000  H
  H51      1.0000 0.03100  0.83970  0.37950  Biso   1.000  H
  H52      1.0000 0.46900  0.33970  0.12050  Biso   1.000  H
  H53      1.0000 0.10700  0.18830  0.68940  Biso   1.000  H
  H54      1.0000 0.39300  0.68830  0.81060  Biso   1.000  H
  H55      1.0000 0.89300  0.81170  0.31060  Biso   1.000  H
  H56      1.0000 0.60700  0.31170  0.18940  Biso   1.000  H
