data_image0
_cell_length_a       8.925
_cell_length_b       9
_cell_length_c       10.5066
_cell_angle_alpha    75.648
_cell_angle_beta     67.124
_cell_angle_gamma    67.126

_symmetry_space_group_name_H-M    "P 1"
_symmetry_int_tables_number       1

loop_
  _symmetry_equiv_pos_as_xyz
  'x, y, z'

loop_
  _atom_site_label
  _atom_site_occupancy
  _atom_site_fract_x
  _atom_site_fract_y
  _atom_site_fract_z
  _atom_site_thermal_displace_type
  _atom_site_B_iso_or_equiv
  _atom_site_type_symbol
  Cu1      1.0000 0.47006  0.60143  0.25556  Biso   1.000  Cu
  Cu2      1.0000 0.52994  0.39857  0.74444  Biso   1.000  Cu
  P1       1.0000 0.69833  0.32696  0.39341  Biso   1.000  P
  P2       1.0000 0.30167  0.67304  0.60659  Biso   1.000  P
  P3       1.0000 0.17163  0.57368  0.21239  Biso   1.000  P
  P4       1.0000 0.82837  0.42632  0.78761  Biso   1.000  P
  N1       1.0000 0.50760  0.81750  0.20250  Biso   1.000  N
  N2       1.0000 0.49240  0.18250  0.79750  Biso   1.000  N
  N3       1.0000 0.43960  0.37460  0.29800  Biso   1.000  N
  N4       1.0000 0.56040  0.62540  0.70200  Biso   1.000  N
  C1       1.0000 0.38230  0.95150  0.17770  Biso   1.000  C
  C2       1.0000 0.61770  0.04850  0.82230  Biso   1.000  C
  H1       1.0000 0.28690  0.94100  0.16960  Biso   1.000  H
  H2       1.0000 0.71310  0.05900  0.83040  Biso   1.000  H
  C3       1.0000 0.39120  0.10420  0.16410  Biso   1.000  C
  C4       1.0000 0.60880  0.89580  0.83590  Biso   1.000  C
  H3       1.0000 0.30250  0.19450  0.14570  Biso   1.000  H
  H4       1.0000 0.69750  0.80550  0.85430  Biso   1.000  H
  C5       1.0000 0.53010  0.12610  0.17730  Biso   1.000  C
  C6       1.0000 0.46990  0.87390  0.82270  Biso   1.000  C
  C7       1.0000 0.65960  0.98520  0.19920  Biso   1.000  C
  C8       1.0000 0.34040  0.01480  0.80080  Biso   1.000  C
  H5       1.0000 0.75700  0.99240  0.20650  Biso   1.000  H
  H6       1.0000 0.24300  0.00760  0.79350  Biso   1.000  H
  C9       1.0000 0.64650  0.83480  0.21020  Biso   1.000  C
  C10      1.0000 0.35350  0.16520  0.78980  Biso   1.000  C
  H7       1.0000 0.73640  0.74250  0.22330  Biso   1.000  H
  H8       1.0000 0.26360  0.25750  0.77670  Biso   1.000  H
  C11      1.0000 0.53890  0.29200  0.16740  Biso   1.000  C
  C12      1.0000 0.46110  0.70800  0.83260  Biso   1.000  C
  H9       1.0000 0.49640  0.36070  0.09330  Biso   1.000  H
  H10      1.0000 0.50360  0.63930  0.90670  Biso   1.000  H
  H11      1.0000 0.65870  0.28310  0.14120  Biso   1.000  H
  H12      1.0000 0.34130  0.71690  0.85880  Biso   1.000  H
  C13      1.0000 0.50530  0.28400  0.41520  Biso   1.000  C
  C14      1.0000 0.49470  0.71600  0.58480  Biso   1.000  C
  H13      1.0000 0.53240  0.16840  0.41640  Biso   1.000  H
  H14      1.0000 0.46760  0.83160  0.58360  Biso   1.000  H
  H15      1.0000 0.41790  0.31680  0.50290  Biso   1.000  H
  H16      1.0000 0.58210  0.68320  0.49710  Biso   1.000  H
  C15      1.0000 0.25000  0.41130  0.33870  Biso   1.000  C
  C16      1.0000 0.75000  0.58870  0.66130  Biso   1.000  C
  H17      1.0000 0.19310  0.44540  0.43120  Biso   1.000  H
  H18      1.0000 0.80690  0.55460  0.56880  Biso   1.000  H
  H19      1.0000 0.22550  0.31510  0.33910  Biso   1.000  H
  H20      1.0000 0.77450  0.68490  0.66090  Biso   1.000  H
  O1       1.0000 0.85670  0.19710  0.30470  Biso   1.000  O
  O2       1.0000 0.14330  0.80290  0.69530  Biso   1.000  O
  H21      1.0000 0.90340  0.24230  0.23020  Biso   1.000  H
  H22      1.0000 0.09660  0.75770  0.76980  Biso   1.000  H
  O3       1.0000 0.67500  0.49350  0.31110  Biso   1.000  O
  O4       1.0000 0.32500  0.50650  0.68890  Biso   1.000  O
  O5       1.0000 0.71750  0.31010  0.53190  Biso   1.000  O
  O6       1.0000 0.28250  0.68990  0.46810  Biso   1.000  O
  O7       1.0000 0.29070  0.67310  0.17060  Biso   1.000  O
  O8       1.0000 0.70930  0.32690  0.82940  Biso   1.000  O
  O9       1.0000 0.16640  0.50970  0.09610  Biso   1.000  O
  O10      1.0000 0.83360  0.49030  0.90390  Biso   1.000  O
  O11      1.0000 0.98370  0.67120  0.29550  Biso   1.000  O
  O12      1.0000 0.01630  0.32880  0.70450  Biso   1.000  O
  H23      1.0000 0.98630  0.73340  0.33940  Biso   1.000  H
  H24      1.0000 0.01370  0.26660  0.66060  Biso   1.000  H
  O13      1.0000 0.02560  0.30000  0.07160  Biso   1.000  O
  O14      1.0000 0.97440  0.70000  0.92840  Biso   1.000  O
  H25      1.0000 0.06500  0.36600  0.07800  Biso   1.000  H
  H26      1.0000 0.93500  0.63400  0.92200  Biso   1.000  H
  H27      1.0000 0.96400  0.34400  0.02100  Biso   1.000  H
  H28      1.0000 0.03600  0.65600  0.97900  Biso   1.000  H
  O15      1.0000 0.96170  0.87320  0.44210  Biso   1.000  O
  O16      1.0000 0.03830  0.12680  0.55790  Biso   1.000  O
  H29      1.0000 0.96300  0.96500  0.39700  Biso   1.000  H
  H30      1.0000 0.03700  0.03500  0.60300  Biso   1.000  H
  H31      1.0000 0.05300  0.83200  0.46400  Biso   1.000  H
  H32      1.0000 0.94700  0.16800  0.53600  Biso   1.000  H
