data_image0
_cell_length_a       9.932
_cell_length_b       19.349
_cell_length_c       9.94
_cell_angle_alpha    90
_cell_angle_beta     105.16
_cell_angle_gamma    90

_symmetry_space_group_name_H-M    "P 1"
_symmetry_int_tables_number       1

loop_
  _symmetry_equiv_pos_as_xyz
  'x, y, z'

loop_
  _atom_site_label
  _atom_site_occupancy
  _atom_site_fract_x
  _atom_site_fract_y
  _atom_site_fract_z
  _atom_site_thermal_displace_type
  _atom_site_B_iso_or_equiv
  _atom_site_type_symbol
  F1       1.0000 0.77890  0.80660  0.54760  Biso   1.000  F
  F2       1.0000 0.22110  0.30660  0.95240  Biso   1.000  F
  F3       1.0000 0.22110  0.19340  0.45240  Biso   1.000  F
  F4       1.0000 0.77890  0.69340  0.04760  Biso   1.000  F
  F5       1.0000 0.86790  0.83640  0.37840  Biso   1.000  F
  F6       1.0000 0.13210  0.33640  0.12160  Biso   1.000  F
  F7       1.0000 0.13210  0.16360  0.62160  Biso   1.000  F
  F8       1.0000 0.86790  0.66360  0.87840  Biso   1.000  F
  F9       1.0000 0.99950  0.77950  0.56120  Biso   1.000  F
  F10      1.0000 0.00050  0.27950  0.93880  Biso   1.000  F
  F11      1.0000 0.00050  0.22050  0.43880  Biso   1.000  F
  F12      1.0000 0.99950  0.72050  0.06120  Biso   1.000  F
  F13      1.0000 0.82880  0.72587  0.40870  Biso   1.000  F
  F14      1.0000 0.17120  0.22587  0.09130  Biso   1.000  F
  F15      1.0000 0.17120  0.27413  0.59130  Biso   1.000  F
  F16      1.0000 0.82880  0.77413  0.90870  Biso   1.000  F
  B1       1.0000 0.86620  0.78660  0.47400  Biso   1.000  B
  B2       1.0000 0.13380  0.28660  0.02600  Biso   1.000  B
  B3       1.0000 0.13380  0.21340  0.52600  Biso   1.000  B
  B4       1.0000 0.86620  0.71340  0.97400  Biso   1.000  B
  C1       1.0000 0.12750  0.94030  0.87980  Biso   1.000  C
  C2       1.0000 0.87250  0.44030  0.62020  Biso   1.000  C
  C3       1.0000 0.87250  0.05970  0.12020  Biso   1.000  C
  C4       1.0000 0.12750  0.55970  0.37980  Biso   1.000  C
  C5       1.0000 0.26490  0.95730  0.93830  Biso   1.000  C
  C6       1.0000 0.73510  0.45730  0.56170  Biso   1.000  C
  C7       1.0000 0.73510  0.04270  0.06170  Biso   1.000  C
  C8       1.0000 0.26490  0.54270  0.43830  Biso   1.000  C
  H1       1.0000 0.33100  0.92240  0.96560  Biso   1.000  H
  H2       1.0000 0.66900  0.42240  0.53440  Biso   1.000  H
  H3       1.0000 0.66900  0.07760  0.03440  Biso   1.000  H
  H4       1.0000 0.33100  0.57760  0.46560  Biso   1.000  H
  C9       1.0000 0.30600  0.02640  0.95680  Biso   1.000  C
  C10      1.0000 0.69400  0.52640  0.54320  Biso   1.000  C
  C11      1.0000 0.69400  0.97360  0.04320  Biso   1.000  C
  C12      1.0000 0.30600  0.47360  0.45680  Biso   1.000  C
  H5       1.0000 0.39910  0.03720  0.99710  Biso   1.000  H
  H6       1.0000 0.60090  0.53720  0.50290  Biso   1.000  H
  H7       1.0000 0.60090  0.96280  0.00290  Biso   1.000  H
  H8       1.0000 0.39910  0.46280  0.49710  Biso   1.000  H
  C13      1.0000 0.21180  0.07800  0.91660  Biso   1.000  C
  C14      1.0000 0.78820  0.57800  0.58340  Biso   1.000  C
  C15      1.0000 0.78820  0.92200  0.08340  Biso   1.000  C
  C16      1.0000 0.21180  0.42200  0.41660  Biso   1.000  C
  H9       1.0000 0.24120  0.12380  0.92660  Biso   1.000  H
  H10      1.0000 0.75880  0.62380  0.57340  Biso   1.000  H
  H11      1.0000 0.75880  0.87620  0.07340  Biso   1.000  H
  H12      1.0000 0.24120  0.37620  0.42660  Biso   1.000  H
  C17      1.0000 0.06820  0.06250  0.85910  Biso   1.000  C
  C18      1.0000 0.93180  0.56250  0.64090  Biso   1.000  C
  C19      1.0000 0.93180  0.93750  0.14090  Biso   1.000  C
  C20      1.0000 0.06820  0.43750  0.35910  Biso   1.000  C
  C21      1.0000 0.02460  0.99260  0.83780  Biso   1.000  C
  C22      1.0000 0.97540  0.49260  0.66220  Biso   1.000  C
  C23      1.0000 0.97540  0.00740  0.16220  Biso   1.000  C
  C24      1.0000 0.02460  0.50740  0.33780  Biso   1.000  C
  C25      1.0000 0.97440  0.11820  0.82520  Biso   1.000  C
  C26      1.0000 0.02560  0.61820  0.67480  Biso   1.000  C
  C27      1.0000 0.02560  0.88180  0.17480  Biso   1.000  C
  C28      1.0000 0.97440  0.38180  0.32520  Biso   1.000  C
  H13      1.0000 0.01380  0.16210  0.83620  Biso   1.000  H
  H14      1.0000 0.98620  0.66210  0.66380  Biso   1.000  H
  H15      1.0000 0.98620  0.83790  0.16380  Biso   1.000  H
  H16      1.0000 0.01380  0.33790  0.33620  Biso   1.000  H
  C29      1.0000 0.17120  0.81880  0.88870  Biso   1.000  C
  C30      1.0000 0.82880  0.31880  0.61130  Biso   1.000  C
  C31      1.0000 0.82880  0.18120  0.11130  Biso   1.000  C
  C32      1.0000 0.17120  0.68120  0.38870  Biso   1.000  C
  H17      1.0000 0.24270  0.82500  0.84090  Biso   1.000  H
  H18      1.0000 0.75730  0.32500  0.65910  Biso   1.000  H
  H19      1.0000 0.75730  0.17500  0.15910  Biso   1.000  H
  H20      1.0000 0.24270  0.67500  0.34090  Biso   1.000  H
  H21      1.0000 0.12310  0.77610  0.86000  Biso   1.000  H
  H22      1.0000 0.87690  0.27610  0.64000  Biso   1.000  H
  H23      1.0000 0.87690  0.22390  0.14000  Biso   1.000  H
  H24      1.0000 0.12310  0.72390  0.36000  Biso   1.000  H
  H25      1.0000 0.21270  0.81780  0.98750  Biso   1.000  H
  H26      1.0000 0.78730  0.31780  0.51250  Biso   1.000  H
  H27      1.0000 0.78730  0.18220  0.01250  Biso   1.000  H
  H28      1.0000 0.21270  0.68220  0.48750  Biso   1.000  H
  C33      1.0000 0.44490  0.87290  0.63890  Biso   1.000  C
  C34      1.0000 0.55510  0.37290  0.86110  Biso   1.000  C
  C35      1.0000 0.55510  0.12710  0.36110  Biso   1.000  C
  C36      1.0000 0.44490  0.62710  0.13890  Biso   1.000  C
  C37      1.0000 0.30420  0.86290  0.58590  Biso   1.000  C
  C38      1.0000 0.69580  0.36290  0.91410  Biso   1.000  C
  C39      1.0000 0.69580  0.13710  0.41410  Biso   1.000  C
  C40      1.0000 0.30420  0.63710  0.08590  Biso   1.000  C
  H29      1.0000 0.27000  0.81810  0.56870  Biso   1.000  H
  H30      1.0000 0.73000  0.31810  0.93130  Biso   1.000  H
  H31      1.0000 0.73000  0.18190  0.43130  Biso   1.000  H
  H32      1.0000 0.27000  0.68190  0.06870  Biso   1.000  H
  C41      1.0000 0.21100  0.91860  0.55690  Biso   1.000  C
  C42      1.0000 0.78900  0.41860  0.94310  Biso   1.000  C
  C43      1.0000 0.78900  0.08140  0.44310  Biso   1.000  C
  C44      1.0000 0.21100  0.58140  0.05690  Biso   1.000  C
  H33      1.0000 0.11600  0.91070  0.52120  Biso   1.000  H
  H34      1.0000 0.88400  0.41070  0.97880  Biso   1.000  H
  H35      1.0000 0.88400  0.08930  0.47880  Biso   1.000  H
  H36      1.0000 0.11600  0.58930  0.02120  Biso   1.000  H
  C45      1.0000 0.25930  0.98320  0.58090  Biso   1.000  C
  C46      1.0000 0.74070  0.48320  0.91910  Biso   1.000  C
  C47      1.0000 0.74070  0.01680  0.41910  Biso   1.000  C
  C48      1.0000 0.25930  0.51680  0.08090  Biso   1.000  C
  H37      1.0000 0.19710  0.02010  0.56270  Biso   1.000  H
  H38      1.0000 0.80290  0.52010  0.93730  Biso   1.000  H
  H39      1.0000 0.80290  0.97990  0.43730  Biso   1.000  H
  H40      1.0000 0.19710  0.47990  0.06270  Biso   1.000  H
  C49      1.0000 0.40380  0.99630  0.63380  Biso   1.000  C
  C50      1.0000 0.59620  0.49630  0.86620  Biso   1.000  C
  C51      1.0000 0.59620  0.00370  0.36620  Biso   1.000  C
  C52      1.0000 0.40380  0.50370  0.13380  Biso   1.000  C
  C53      1.0000 0.49980  0.94070  0.66130  Biso   1.000  C
  C54      1.0000 0.50020  0.44070  0.83870  Biso   1.000  C
  C55      1.0000 0.50020  0.05930  0.33870  Biso   1.000  C
  C56      1.0000 0.49980  0.55930  0.16130  Biso   1.000  C
  C57      1.0000 0.44930  0.06590  0.66160  Biso   1.000  C
  C58      1.0000 0.55070  0.56590  0.83840  Biso   1.000  C
  C59      1.0000 0.55070  0.93410  0.33840  Biso   1.000  C
  C60      1.0000 0.44930  0.43410  0.16160  Biso   1.000  C
  H41      1.0000 0.37930  0.09920  0.64350  Biso   1.000  H
  H42      1.0000 0.62070  0.59920  0.85650  Biso   1.000  H
  H43      1.0000 0.62070  0.90080  0.35650  Biso   1.000  H
  H44      1.0000 0.37930  0.40080  0.14350  Biso   1.000  H
  C61      1.0000 0.50110  0.75250  0.64500  Biso   1.000  C
  C62      1.0000 0.49890  0.25250  0.85500  Biso   1.000  C
  C63      1.0000 0.49890  0.24750  0.35500  Biso   1.000  C
  C64      1.0000 0.50110  0.74750  0.14500  Biso   1.000  C
  H45      1.0000 0.43280  0.74110  0.69410  Biso   1.000  H
  H46      1.0000 0.56720  0.24110  0.80590  Biso   1.000  H
  H47      1.0000 0.56720  0.25890  0.30590  Biso   1.000  H
  H48      1.0000 0.43280  0.75890  0.19410  Biso   1.000  H
  H49      1.0000 0.58040  0.72250  0.67530  Biso   1.000  H
  H50      1.0000 0.41960  0.22250  0.82470  Biso   1.000  H
  H51      1.0000 0.41960  0.27750  0.32470  Biso   1.000  H
  H52      1.0000 0.58040  0.77750  0.17530  Biso   1.000  H
  H53      1.0000 0.46140  0.74650  0.54670  Biso   1.000  H
  H54      1.0000 0.53860  0.24650  0.95330  Biso   1.000  H
  H55      1.0000 0.53860  0.25350  0.45330  Biso   1.000  H
  H56      1.0000 0.46140  0.75350  0.04670  Biso   1.000  H
  Cu1      1.0000 0.73679  0.03129  0.74231  Biso   1.000  Cu
  Cu2      1.0000 0.26321  0.53129  0.75769  Biso   1.000  Cu
  Cu3      1.0000 0.26321  0.96871  0.25769  Biso   1.000  Cu
  Cu4      1.0000 0.73679  0.46871  0.24231  Biso   1.000  Cu
  Na1      1.0000 0.80631  0.85912  0.75096  Biso   1.000  Na
  Na2      1.0000 0.19369  0.35912  0.74904  Biso   1.000  Na
  Na3      1.0000 0.19369  0.14088  0.24904  Biso   1.000  Na
  Na4      1.0000 0.80631  0.64088  0.25096  Biso   1.000  Na
  O1       1.0000 0.07490  0.87466  0.85600  Biso   1.000  O
  O2       1.0000 0.92510  0.37466  0.64400  Biso   1.000  O
  O3       1.0000 0.92510  0.12534  0.14400  Biso   1.000  O
  O4       1.0000 0.07490  0.62534  0.35600  Biso   1.000  O
  O5       1.0000 0.89570  0.97361  0.78300  Biso   1.000  O
  O6       1.0000 0.10430  0.47361  0.71700  Biso   1.000  O
  O7       1.0000 0.10430  0.02639  0.21700  Biso   1.000  O
  O8       1.0000 0.89570  0.52639  0.28300  Biso   1.000  O
  O9       1.0000 0.84300  0.11575  0.78170  Biso   1.000  O
  O10      1.0000 0.15700  0.61575  0.71830  Biso   1.000  O
  O11      1.0000 0.15700  0.88425  0.21830  Biso   1.000  O
  O12      1.0000 0.84300  0.38425  0.28170  Biso   1.000  O
  O13      1.0000 0.54410  0.82251  0.67280  Biso   1.000  O
  O14      1.0000 0.45590  0.32251  0.82720  Biso   1.000  O
  O15      1.0000 0.45590  0.17749  0.32720  Biso   1.000  O
  O16      1.0000 0.54410  0.67749  0.17280  Biso   1.000  O
  O17      1.0000 0.63560  0.94771  0.70490  Biso   1.000  O
  O18      1.0000 0.36440  0.44771  0.79510  Biso   1.000  O
  O19      1.0000 0.36440  0.05229  0.29510  Biso   1.000  O
  O20      1.0000 0.63560  0.55229  0.20490  Biso   1.000  O
  O21      1.0000 0.57070  0.08808  0.70710  Biso   1.000  O
  O22      1.0000 0.42930  0.58808  0.79290  Biso   1.000  O
  O23      1.0000 0.42930  0.91192  0.29290  Biso   1.000  O
  O24      1.0000 0.57070  0.41192  0.20710  Biso   1.000  O
  F17      1.0000 0.82100  0.84310  0.45300  Biso   1.000  F
  F18      1.0000 0.17900  0.34310  0.04700  Biso   1.000  F
  F19      1.0000 0.17900  0.15690  0.54700  Biso   1.000  F
  F20      1.0000 0.82100  0.65690  0.95300  Biso   1.000  F
  F21      1.0000 0.97900  0.80270  0.42800  Biso   1.000  F
  F22      1.0000 0.02100  0.30270  0.07200  Biso   1.000  F
  F23      1.0000 0.02100  0.19730  0.57200  Biso   1.000  F
  F24      1.0000 0.97900  0.69730  0.92800  Biso   1.000  F
  F25      1.0000 0.87400  0.77980  0.60300  Biso   1.000  F
  F26      1.0000 0.12600  0.27980  0.89700  Biso   1.000  F
  F27      1.0000 0.12600  0.22020  0.39700  Biso   1.000  F
  F28      1.0000 0.87400  0.72020  0.10300  Biso   1.000  F
