data_image0
_cell_length_a       11.88
_cell_length_b       8.332
_cell_length_c       9.681
_cell_angle_alpha    90
_cell_angle_beta     90
_cell_angle_gamma    90

_symmetry_space_group_name_H-M    "P 1"
_symmetry_int_tables_number       1

loop_
  _symmetry_equiv_pos_as_xyz
  'x, y, z'

loop_
  _atom_site_label
  _atom_site_occupancy
  _atom_site_fract_x
  _atom_site_fract_y
  _atom_site_fract_z
  _atom_site_thermal_displace_type
  _atom_site_B_iso_or_equiv
  _atom_site_type_symbol
  Cu1      1.0000 0.50000  0.00000  0.24820  Biso   1.000  Cu
  Cu2      1.0000 0.00000  0.50000  0.75180  Biso   1.000  Cu
  N1       1.0000 0.58190  0.15590  0.38460  Biso   1.000  N
  N2       1.0000 0.41810  0.84410  0.38460  Biso   1.000  N
  N3       1.0000 0.91810  0.65590  0.61540  Biso   1.000  N
  N4       1.0000 0.08190  0.34410  0.61540  Biso   1.000  N
  O1       1.0000 0.56779  0.15300  0.10640  Biso   1.000  O
  O2       1.0000 0.43221  0.84700  0.10640  Biso   1.000  O
  O3       1.0000 0.93221  0.65300  0.89360  Biso   1.000  O
  O4       1.0000 0.06779  0.34700  0.89360  Biso   1.000  O
  O5       1.0000 0.62520  0.40270  0.08630  Biso   1.000  O
  O6       1.0000 0.37480  0.59730  0.08630  Biso   1.000  O
  O7       1.0000 0.87480  0.90270  0.91370  Biso   1.000  O
  O8       1.0000 0.12520  0.09730  0.91370  Biso   1.000  O
  O9       1.0000 0.65208  0.87360  0.26380  Biso   1.000  O
  O10      1.0000 0.34792  0.12640  0.26380  Biso   1.000  O
  O11      1.0000 0.84792  0.37360  0.73620  Biso   1.000  O
  O12      1.0000 0.15208  0.62640  0.73620  Biso   1.000  O
  O13      1.0000 0.83096  0.92640  0.30180  Biso   1.000  O
  O14      1.0000 0.16904  0.07360  0.30180  Biso   1.000  O
  O15      1.0000 0.66904  0.42640  0.69820  Biso   1.000  O
  O16      1.0000 0.33096  0.57360  0.69820  Biso   1.000  O
  O17      1.0000 0.60610  0.97020  0.70370  Biso   1.000  O
  O18      1.0000 0.39390  0.02980  0.70370  Biso   1.000  O
  O19      1.0000 0.89390  0.47020  0.29630  Biso   1.000  O
  O20      1.0000 0.10610  0.52980  0.29630  Biso   1.000  O
  O21      1.0000 0.61360  0.77350  0.92280  Biso   1.000  O
  O22      1.0000 0.38640  0.22650  0.92280  Biso   1.000  O
  O23      1.0000 0.88640  0.27350  0.07720  Biso   1.000  O
  O24      1.0000 0.11360  0.72650  0.07720  Biso   1.000  O
  K1       1.0000 0.50000  0.50000  0.85975  Biso   1.000  K
  K2       1.0000 0.00000  0.00000  0.14025  Biso   1.000  K
  K3       1.0000 0.72836  0.15198  0.89192  Biso   1.000  K
  K4       1.0000 0.27164  0.84802  0.89192  Biso   1.000  K
  K5       1.0000 0.77164  0.65198  0.10808  Biso   1.000  K
  K6       1.0000 0.22836  0.34802  0.10808  Biso   1.000  K
  P1       1.0000 0.50000  0.00000  0.62460  Biso   1.000  P
  P2       1.0000 0.00000  0.50000  0.37540  Biso   1.000  P
  C1       1.0000 0.58020  0.31000  0.30920  Biso   1.000  C
  C2       1.0000 0.41980  0.69000  0.30920  Biso   1.000  C
  C3       1.0000 0.91980  0.81000  0.69080  Biso   1.000  C
  C4       1.0000 0.08020  0.19000  0.69080  Biso   1.000  C
  H1       1.0000 0.64030  0.37790  0.34350  Biso   1.000  H
  H2       1.0000 0.35970  0.62210  0.34350  Biso   1.000  H
  H3       1.0000 0.85970  0.87790  0.65650  Biso   1.000  H
  H4       1.0000 0.14030  0.12210  0.65650  Biso   1.000  H
  H5       1.0000 0.50940  0.36410  0.32730  Biso   1.000  H
  H6       1.0000 0.49060  0.63590  0.32730  Biso   1.000  H
  H7       1.0000 0.99060  0.86410  0.67270  Biso   1.000  H
  H8       1.0000 0.00940  0.13590  0.67270  Biso   1.000  H
  C5       1.0000 0.59380  0.28900  0.15610  Biso   1.000  C
  C6       1.0000 0.40620  0.71100  0.15610  Biso   1.000  C
  C7       1.0000 0.90620  0.78900  0.84390  Biso   1.000  C
  C8       1.0000 0.09380  0.21100  0.84390  Biso   1.000  C
  C9       1.0000 0.69920  0.09960  0.40330  Biso   1.000  C
  C10      1.0000 0.30080  0.90040  0.40330  Biso   1.000  C
  C11      1.0000 0.80080  0.59960  0.59670  Biso   1.000  C
  C12      1.0000 0.19920  0.40040  0.59670  Biso   1.000  C
  H9       1.0000 0.71040  0.07190  0.49970  Biso   1.000  H
  H10      1.0000 0.28960  0.92810  0.49970  Biso   1.000  H
  H11      1.0000 0.78960  0.57190  0.50030  Biso   1.000  H
  H12      1.0000 0.21040  0.42810  0.50030  Biso   1.000  H
  H13      1.0000 0.75010  0.18710  0.38160  Biso   1.000  H
  H14      1.0000 0.24990  0.81290  0.38160  Biso   1.000  H
  H15      1.0000 0.74990  0.68710  0.61840  Biso   1.000  H
  H16      1.0000 0.25010  0.31290  0.61840  Biso   1.000  H
  C13      1.0000 0.73000  0.95590  0.31510  Biso   1.000  C
  C14      1.0000 0.27000  0.04410  0.31510  Biso   1.000  C
  C15      1.0000 0.77000  0.45590  0.68490  Biso   1.000  C
  C16      1.0000 0.23000  0.54410  0.68490  Biso   1.000  C
  C17      1.0000 0.51810  0.17450  0.51590  Biso   1.000  C
  C18      1.0000 0.48190  0.82550  0.51590  Biso   1.000  C
  C19      1.0000 0.98190  0.67450  0.48410  Biso   1.000  C
  C20      1.0000 0.01810  0.32550  0.48410  Biso   1.000  C
  H17      1.0000 0.44390  0.21500  0.49300  Biso   1.000  H
  H18      1.0000 0.55610  0.78500  0.49300  Biso   1.000  H
  H19      1.0000 0.05610  0.71500  0.50700  Biso   1.000  H
  H20      1.0000 0.94390  0.28500  0.50700  Biso   1.000  H
  H21      1.0000 0.55540  0.25650  0.57030  Biso   1.000  H
  H22      1.0000 0.44460  0.74350  0.57030  Biso   1.000  H
  H23      1.0000 0.94460  0.75650  0.42970  Biso   1.000  H
  H24      1.0000 0.05540  0.24350  0.42970  Biso   1.000  H
  H25      1.0000 0.61300  0.83500  0.84200  Biso   1.000  H
  H26      1.0000 0.38700  0.16500  0.84200  Biso   1.000  H
  H27      1.0000 0.88700  0.33500  0.15800  Biso   1.000  H
  H28      1.0000 0.11300  0.66500  0.15800  Biso   1.000  H
  H29      1.0000 0.56900  0.83500  0.98300  Biso   1.000  H
  H30      1.0000 0.43100  0.16500  0.98300  Biso   1.000  H
  H31      1.0000 0.93100  0.33500  0.01700  Biso   1.000  H
  H32      1.0000 0.06900  0.66500  0.01700  Biso   1.000  H
