data_image0
_cell_length_a       9.154
_cell_length_b       7.994
_cell_length_c       10.59
_cell_angle_alpha    90
_cell_angle_beta     106.04
_cell_angle_gamma    90

_symmetry_space_group_name_H-M    "P 1"
_symmetry_int_tables_number       1

loop_
  _symmetry_equiv_pos_as_xyz
  'x, y, z'

loop_
  _atom_site_label
  _atom_site_occupancy
  _atom_site_fract_x
  _atom_site_fract_y
  _atom_site_fract_z
  _atom_site_thermal_displace_type
  _atom_site_B_iso_or_equiv
  _atom_site_type_symbol
  Cu1      1.0000 0.61030  0.52089  0.66628  Biso   1.000  Cu
  Cu2      1.0000 0.61030  0.47911  0.16628  Biso   1.000  Cu
  N1       1.0000 0.82130  0.38330  0.19340  Biso   1.000  N
  N2       1.0000 0.82130  0.61670  0.69340  Biso   1.000  N
  N3       1.0000 0.40510  0.40890  0.62440  Biso   1.000  N
  N4       1.0000 0.40510  0.59110  0.12440  Biso   1.000  N
  N5       1.0000 0.22080  0.27140  0.70280  Biso   1.000  N
  N6       1.0000 0.22080  0.72860  0.20280  Biso   1.000  N
  O1       1.0000 0.52800  0.70240  0.54690  Biso   1.000  O
  O2       1.0000 0.52800  0.29760  0.04690  Biso   1.000  O
  O3       1.0000 0.44170  0.85810  0.68260  Biso   1.000  O
  O4       1.0000 0.44170  0.14190  0.18260  Biso   1.000  O
  O5       1.0000 0.70140  0.32180  0.76280  Biso   1.000  O
  O6       1.0000 0.70140  0.67820  0.26280  Biso   1.000  O
  O7       1.0000 0.76590  0.24550  0.58530  Biso   1.000  O
  O8       1.0000 0.76590  0.75450  0.08530  Biso   1.000  O
  O9       1.0000 0.57160  0.63640  0.85820  Biso   1.000  O
  O10      1.0000 0.57160  0.36360  0.35820  Biso   1.000  O
  H1       1.0000 0.65200  0.63620  0.91660  Biso   1.000  H
  H2       1.0000 0.65200  0.36380  0.41660  Biso   1.000  H
  H3       1.0000 0.51930  0.72020  0.83420  Biso   1.000  H
  H4       1.0000 0.51930  0.27980  0.33420  Biso   1.000  H
  C1       1.0000 0.87220  0.33180  0.09250  Biso   1.000  C
  C2       1.0000 0.87220  0.66820  0.59250  Biso   1.000  C
  H5       1.0000 0.80580  0.32950  0.00840  Biso   1.000  H
  H6       1.0000 0.80580  0.67050  0.50840  Biso   1.000  H
  C3       1.0000 0.01750  0.28350  0.11080  Biso   1.000  C
  C4       1.0000 0.01750  0.71650  0.61080  Biso   1.000  C
  H7       1.0000 0.04870  0.24760  0.03880  Biso   1.000  H
  H8       1.0000 0.04870  0.75240  0.53880  Biso   1.000  H
  C5       1.0000 0.12090  0.28590  0.23280  Biso   1.000  C
  C6       1.0000 0.12090  0.71410  0.73280  Biso   1.000  C
  H9       1.0000 0.22190  0.25580  0.24420  Biso   1.000  H
  H10      1.0000 0.22190  0.74420  0.74420  Biso   1.000  H
  C7       1.0000 0.06830  0.33520  0.33870  Biso   1.000  C
  C8       1.0000 0.06830  0.66480  0.83870  Biso   1.000  C
  C9       1.0000 0.91770  0.38150  0.31330  Biso   1.000  C
  C10      1.0000 0.91770  0.61850  0.81330  Biso   1.000  C
  H11      1.0000 0.88160  0.41310  0.38380  Biso   1.000  H
  H12      1.0000 0.88160  0.58690  0.88380  Biso   1.000  H
  C11      1.0000 0.31040  0.40910  0.50140  Biso   1.000  C
  C12      1.0000 0.31040  0.59090  0.00140  Biso   1.000  C
  H13      1.0000 0.34160  0.45890  0.43380  Biso   1.000  H
  H14      1.0000 0.34160  0.54110  0.93380  Biso   1.000  H
  C13      1.0000 0.16900  0.33740  0.47440  Biso   1.000  C
  C14      1.0000 0.16900  0.66260  0.97440  Biso   1.000  C
  C15      1.0000 0.12510  0.27250  0.57880  Biso   1.000  C
  C16      1.0000 0.12510  0.72750  0.07880  Biso   1.000  C
  H15      1.0000 0.02780  0.22840  0.56430  Biso   1.000  H
  H16      1.0000 0.02780  0.77160  0.06430  Biso   1.000  H
  C17      1.0000 0.35760  0.33580  0.71590  Biso   1.000  C
  C18      1.0000 0.35760  0.66420  0.21590  Biso   1.000  C
  H17      1.0000 0.42670  0.32810  0.79870  Biso   1.000  H
  H18      1.0000 0.42670  0.67190  0.29870  Biso   1.000  H
  C19      1.0000 0.46990  0.83340  0.57660  Biso   1.000  C
  C20      1.0000 0.46990  0.16660  0.07660  Biso   1.000  C
  C21      1.0000 0.43110  0.96930  0.47510  Biso   1.000  C
  C22      1.0000 0.43110  0.03070  0.97510  Biso   1.000  C
  H19      1.0000 0.40480  0.06930  0.51400  Biso   1.000  H
  H20      1.0000 0.40480  0.93070  0.01400  Biso   1.000  H
  H21      1.0000 0.34650  0.93460  0.40400  Biso   1.000  H
  H22      1.0000 0.34650  0.06540  0.90400  Biso   1.000  H
  H23      1.0000 0.51720  0.99090  0.44240  Biso   1.000  H
  H24      1.0000 0.51720  0.00910  0.94240  Biso   1.000  H
  C23      1.0000 0.76410  0.22090  0.69930  Biso   1.000  C
  C24      1.0000 0.76410  0.77910  0.19930  Biso   1.000  C
  C25      1.0000 0.83610  0.06990  0.77300  Biso   1.000  C
  C26      1.0000 0.83610  0.93010  0.27300  Biso   1.000  C
  H25      1.0000 0.93960  0.09460  0.81940  Biso   1.000  H
  H26      1.0000 0.93960  0.90540  0.31940  Biso   1.000  H
  H27      1.0000 0.83370  0.97980  0.71250  Biso   1.000  H
  H28      1.0000 0.83370  0.02020  0.21250  Biso   1.000  H
  H29      1.0000 0.78140  0.03790  0.83450  Biso   1.000  H
  H30      1.0000 0.78140  0.96210  0.33450  Biso   1.000  H
