data_image0
_cell_length_a       16.9802
_cell_length_b       17.9627
_cell_length_c       19.5212
_cell_angle_alpha    90
_cell_angle_beta     95.212
_cell_angle_gamma    90

_symmetry_space_group_name_H-M    "P 1"
_symmetry_int_tables_number       1

loop_
  _symmetry_equiv_pos_as_xyz
  'x, y, z'

loop_
  _atom_site_label
  _atom_site_occupancy
  _atom_site_fract_x
  _atom_site_fract_y
  _atom_site_fract_z
  _atom_site_thermal_displace_type
  _atom_site_B_iso_or_equiv
  _atom_site_type_symbol
  Cu1      1.0000 0.25308  0.40842  0.94941  Biso   1.000  Cu
  Cu2      1.0000 0.75308  0.90842  0.94941  Biso   1.000  Cu
  Cu3      1.0000 0.25308  0.59158  0.44941  Biso   1.000  Cu
  Cu4      1.0000 0.75308  0.09158  0.44941  Biso   1.000  Cu
  Cu5      1.0000 0.74692  0.59158  0.05059  Biso   1.000  Cu
  Cu6      1.0000 0.24692  0.09158  0.05059  Biso   1.000  Cu
  Cu7      1.0000 0.74692  0.40842  0.55059  Biso   1.000  Cu
  Cu8      1.0000 0.24692  0.90842  0.55059  Biso   1.000  Cu
  Ba1      1.0000 0.50000  0.32178  0.25000  Biso   1.000  Ba
  Ba2      1.0000 0.00000  0.82178  0.25000  Biso   1.000  Ba
  Ba3      1.0000 0.50000  0.67822  0.75000  Biso   1.000  Ba
  Ba4      1.0000 0.00000  0.17822  0.75000  Biso   1.000  Ba
  Ba5      1.0000 0.30945  0.27744  0.08486  Biso   1.000  Ba
  Ba6      1.0000 0.80945  0.77744  0.08486  Biso   1.000  Ba
  Ba7      1.0000 0.30945  0.72256  0.58486  Biso   1.000  Ba
  Ba8      1.0000 0.80945  0.22256  0.58486  Biso   1.000  Ba
  Ba9      1.0000 0.69055  0.72256  0.91514  Biso   1.000  Ba
  Ba10     1.0000 0.19055  0.22256  0.91514  Biso   1.000  Ba
  Ba11     1.0000 0.69055  0.27744  0.41514  Biso   1.000  Ba
  Ba12     1.0000 0.19055  0.77744  0.41514  Biso   1.000  Ba
  O1       1.0000 0.32850  0.43540  0.08095  Biso   1.000  O
  O2       1.0000 0.82850  0.93540  0.08095  Biso   1.000  O
  O3       1.0000 0.32850  0.56460  0.58095  Biso   1.000  O
  O4       1.0000 0.82850  0.06460  0.58095  Biso   1.000  O
  O5       1.0000 0.67150  0.56460  0.91905  Biso   1.000  O
  O6       1.0000 0.17150  0.06460  0.91905  Biso   1.000  O
  O7       1.0000 0.67150  0.43540  0.41905  Biso   1.000  O
  O8       1.0000 0.17150  0.93540  0.41905  Biso   1.000  O
  O9       1.0000 0.38430  0.22632  0.21820  Biso   1.000  O
  O10      1.0000 0.88430  0.72632  0.21820  Biso   1.000  O
  O11      1.0000 0.38430  0.77368  0.71820  Biso   1.000  O
  O12      1.0000 0.88430  0.27368  0.71820  Biso   1.000  O
  O13      1.0000 0.61570  0.77368  0.78180  Biso   1.000  O
  O14      1.0000 0.11570  0.27368  0.78180  Biso   1.000  O
  O15      1.0000 0.61570  0.22632  0.28180  Biso   1.000  O
  O16      1.0000 0.11570  0.72632  0.28180  Biso   1.000  O
  O17      1.0000 0.32070  0.12990  0.16950  Biso   1.000  O
  O18      1.0000 0.82070  0.62990  0.16950  Biso   1.000  O
  O19      1.0000 0.32070  0.87010  0.66950  Biso   1.000  O
  O20      1.0000 0.82070  0.37010  0.66950  Biso   1.000  O
  O21      1.0000 0.67930  0.87010  0.83050  Biso   1.000  O
  O22      1.0000 0.17930  0.37010  0.83050  Biso   1.000  O
  O23      1.0000 0.67930  0.12990  0.33050  Biso   1.000  O
  O24      1.0000 0.17930  0.62990  0.33050  Biso   1.000  O
  O25      1.0000 0.18400  0.34647  0.99699  Biso   1.000  O
  O26      1.0000 0.68400  0.84647  0.99699  Biso   1.000  O
  O27      1.0000 0.18400  0.65353  0.49699  Biso   1.000  O
  O28      1.0000 0.68400  0.15353  0.49699  Biso   1.000  O
  O29      1.0000 0.81600  0.65353  0.00301  Biso   1.000  O
  O30      1.0000 0.31600  0.15353  0.00301  Biso   1.000  O
  O31      1.0000 0.81600  0.34647  0.50301  Biso   1.000  O
  O32      1.0000 0.31600  0.84647  0.50301  Biso   1.000  O
  O33      1.0000 0.39040  0.40340  0.18140  Biso   1.000  O
  O34      1.0000 0.89040  0.90340  0.18140  Biso   1.000  O
  O35      1.0000 0.39040  0.59660  0.68140  Biso   1.000  O
  O36      1.0000 0.89040  0.09660  0.68140  Biso   1.000  O
  O37      1.0000 0.60960  0.59660  0.81860  Biso   1.000  O
  O38      1.0000 0.10960  0.09660  0.81860  Biso   1.000  O
  O39      1.0000 0.60960  0.40340  0.31860  Biso   1.000  O
  O40      1.0000 0.10960  0.90340  0.31860  Biso   1.000  O
  O41      1.0000 0.58850  0.32520  0.13750  Biso   1.000  O
  O42      1.0000 0.08850  0.82520  0.13750  Biso   1.000  O
  O43      1.0000 0.58850  0.67480  0.63750  Biso   1.000  O
  O44      1.0000 0.08850  0.17480  0.63750  Biso   1.000  O
  O45      1.0000 0.41150  0.67480  0.86250  Biso   1.000  O
  O46      1.0000 0.91150  0.17480  0.86250  Biso   1.000  O
  O47      1.0000 0.41150  0.32520  0.36250  Biso   1.000  O
  O48      1.0000 0.91150  0.82520  0.36250  Biso   1.000  O
  O49      1.0000 0.47350  0.28160  0.09270  Biso   1.000  O
  O50      1.0000 0.97350  0.78160  0.09270  Biso   1.000  O
  O51      1.0000 0.47350  0.71840  0.59270  Biso   1.000  O
  O52      1.0000 0.97350  0.21840  0.59270  Biso   1.000  O
  O53      1.0000 0.52650  0.71840  0.90730  Biso   1.000  O
  O54      1.0000 0.02650  0.21840  0.90730  Biso   1.000  O
  O55      1.0000 0.52650  0.28160  0.40730  Biso   1.000  O
  O56      1.0000 0.02650  0.78160  0.40730  Biso   1.000  O
  O57      1.0000 0.31460  0.31931  0.95006  Biso   1.000  O
  O58      1.0000 0.81460  0.81931  0.95006  Biso   1.000  O
  O59      1.0000 0.31460  0.68069  0.45006  Biso   1.000  O
  O60      1.0000 0.81460  0.18069  0.45006  Biso   1.000  O
  O61      1.0000 0.68540  0.68069  0.04994  Biso   1.000  O
  O62      1.0000 0.18540  0.18069  0.04994  Biso   1.000  O
  O63      1.0000 0.68540  0.31931  0.54994  Biso   1.000  O
  O64      1.0000 0.18540  0.81931  0.54994  Biso   1.000  O
  N1       1.0000 0.17740  0.49440  0.96740  Biso   1.000  N
  N2       1.0000 0.67740  0.99440  0.96740  Biso   1.000  N
  N3       1.0000 0.17740  0.50560  0.46740  Biso   1.000  N
  N4       1.0000 0.67740  0.00560  0.46740  Biso   1.000  N
  N5       1.0000 0.82260  0.50560  0.03260  Biso   1.000  N
  N6       1.0000 0.32260  0.00560  0.03260  Biso   1.000  N
  N7       1.0000 0.82260  0.49440  0.53260  Biso   1.000  N
  N8       1.0000 0.32260  0.99440  0.53260  Biso   1.000  N
  N9       1.0000 0.33830  0.45460  0.89380  Biso   1.000  N
  N10      1.0000 0.83830  0.95460  0.89380  Biso   1.000  N
  N11      1.0000 0.33830  0.54540  0.39380  Biso   1.000  N
  N12      1.0000 0.83830  0.04540  0.39380  Biso   1.000  N
  N13      1.0000 0.66170  0.54540  0.10620  Biso   1.000  N
  N14      1.0000 0.16170  0.04540  0.10620  Biso   1.000  N
  N15      1.0000 0.66170  0.45460  0.60620  Biso   1.000  N
  N16      1.0000 0.16170  0.95460  0.60620  Biso   1.000  N
  C1       1.0000 0.38480  0.53040  0.15260  Biso   1.000  C
  C2       1.0000 0.88480  0.03040  0.15260  Biso   1.000  C
  C3       1.0000 0.38480  0.46960  0.65260  Biso   1.000  C
  C4       1.0000 0.88480  0.96960  0.65260  Biso   1.000  C
  C5       1.0000 0.61520  0.46960  0.84740  Biso   1.000  C
  C6       1.0000 0.11520  0.96960  0.84740  Biso   1.000  C
  C7       1.0000 0.61520  0.53040  0.34740  Biso   1.000  C
  C8       1.0000 0.11520  0.03040  0.34740  Biso   1.000  C
  C9       1.0000 0.36660  0.44830  0.13670  Biso   1.000  C
  C10      1.0000 0.86660  0.94830  0.13670  Biso   1.000  C
  C11      1.0000 0.36660  0.55170  0.63670  Biso   1.000  C
  C12      1.0000 0.86660  0.05170  0.63670  Biso   1.000  C
  C13      1.0000 0.63340  0.55170  0.86330  Biso   1.000  C
  C14      1.0000 0.13340  0.05170  0.86330  Biso   1.000  C
  C15      1.0000 0.63340  0.44830  0.36330  Biso   1.000  C
  C16      1.0000 0.13340  0.94830  0.36330  Biso   1.000  C
  C17      1.0000 0.58590  0.26430  0.03220  Biso   1.000  C
  C18      1.0000 0.08590  0.76430  0.03220  Biso   1.000  C
  C19      1.0000 0.58590  0.73570  0.53220  Biso   1.000  C
  C20      1.0000 0.08590  0.23570  0.53220  Biso   1.000  C
  C21      1.0000 0.41410  0.73570  0.96780  Biso   1.000  C
  C22      1.0000 0.91410  0.23570  0.96780  Biso   1.000  C
  C23      1.0000 0.41410  0.26430  0.46780  Biso   1.000  C
  C24      1.0000 0.91410  0.76430  0.46780  Biso   1.000  C
  F1       1.0000 0.64300  0.29610  0.01470  Biso   1.000  F
  F2       1.0000 0.14300  0.79610  0.01470  Biso   1.000  F
  F3       1.0000 0.64300  0.70390  0.51470  Biso   1.000  F
  F4       1.0000 0.14300  0.20390  0.51470  Biso   1.000  F
  F5       1.0000 0.35700  0.70390  0.98530  Biso   1.000  F
  F6       1.0000 0.85700  0.20390  0.98530  Biso   1.000  F
  F7       1.0000 0.35700  0.29610  0.48530  Biso   1.000  F
  F8       1.0000 0.85700  0.79610  0.48530  Biso   1.000  F
  F9       1.0000 0.61500  0.20010  0.04680  Biso   1.000  F
  F10      1.0000 0.11500  0.70010  0.04680  Biso   1.000  F
  F11      1.0000 0.61500  0.79990  0.54680  Biso   1.000  F
  F12      1.0000 0.11500  0.29990  0.54680  Biso   1.000  F
  F13      1.0000 0.38500  0.79990  0.95320  Biso   1.000  F
  F14      1.0000 0.88500  0.29990  0.95320  Biso   1.000  F
  F15      1.0000 0.38500  0.20010  0.45320  Biso   1.000  F
  F16      1.0000 0.88500  0.70010  0.45320  Biso   1.000  F
  F17      1.0000 0.54330  0.25500  0.97110  Biso   1.000  F
  F18      1.0000 0.04330  0.75500  0.97110  Biso   1.000  F
  F19      1.0000 0.54330  0.74500  0.47110  Biso   1.000  F
  F20      1.0000 0.04330  0.24500  0.47110  Biso   1.000  F
  F21      1.0000 0.45670  0.74500  0.02890  Biso   1.000  F
  F22      1.0000 0.95670  0.24500  0.02890  Biso   1.000  F
  F23      1.0000 0.45670  0.25500  0.52890  Biso   1.000  F
  F24      1.0000 0.95670  0.75500  0.52890  Biso   1.000  F
  F25      1.0000 0.55320  0.21090  0.00140  Biso   1.000  F
  F26      1.0000 0.05320  0.71090  0.00140  Biso   1.000  F
  F27      1.0000 0.55320  0.78910  0.50140  Biso   1.000  F
  F28      1.0000 0.05320  0.28910  0.50140  Biso   1.000  F
  F29      1.0000 0.44680  0.78910  0.99860  Biso   1.000  F
  F30      1.0000 0.94680  0.28910  0.99860  Biso   1.000  F
  F31      1.0000 0.44680  0.21090  0.49860  Biso   1.000  F
  F32      1.0000 0.94680  0.71090  0.49860  Biso   1.000  F
  F33      1.0000 0.58830  0.32060  0.98600  Biso   1.000  F
  F34      1.0000 0.08830  0.82060  0.98600  Biso   1.000  F
  F35      1.0000 0.58830  0.67940  0.48600  Biso   1.000  F
  F36      1.0000 0.08830  0.17940  0.48600  Biso   1.000  F
  F37      1.0000 0.41170  0.67940  0.01400  Biso   1.000  F
  F38      1.0000 0.91170  0.17940  0.01400  Biso   1.000  F
  F39      1.0000 0.41170  0.32060  0.51400  Biso   1.000  F
  F40      1.0000 0.91170  0.82060  0.51400  Biso   1.000  F
  F41      1.0000 0.66060  0.24570  0.04910  Biso   1.000  F
  F42      1.0000 0.16060  0.74570  0.04910  Biso   1.000  F
  F43      1.0000 0.66060  0.75430  0.54910  Biso   1.000  F
  F44      1.0000 0.16060  0.25430  0.54910  Biso   1.000  F
  F45      1.0000 0.33940  0.75430  0.95090  Biso   1.000  F
  F46      1.0000 0.83940  0.25430  0.95090  Biso   1.000  F
  F47      1.0000 0.33940  0.24570  0.45090  Biso   1.000  F
  F48      1.0000 0.83940  0.74570  0.45090  Biso   1.000  F
  C25      1.0000 0.54560  0.29380  0.09340  Biso   1.000  C
  C26      1.0000 0.04560  0.79380  0.09340  Biso   1.000  C
  C27      1.0000 0.54560  0.70620  0.59340  Biso   1.000  C
  C28      1.0000 0.04560  0.20620  0.59340  Biso   1.000  C
  C29      1.0000 0.45440  0.70620  0.90660  Biso   1.000  C
  C30      1.0000 0.95440  0.20620  0.90660  Biso   1.000  C
  C31      1.0000 0.45440  0.29380  0.40660  Biso   1.000  C
  C32      1.0000 0.95440  0.79380  0.40660  Biso   1.000  C
  C33      1.0000 0.13570  0.46640  0.02390  Biso   1.000  C
  C34      1.0000 0.63570  0.96640  0.02390  Biso   1.000  C
  C35      1.0000 0.13570  0.53360  0.52390  Biso   1.000  C
  C36      1.0000 0.63570  0.03360  0.52390  Biso   1.000  C
  C37      1.0000 0.86430  0.53360  0.97610  Biso   1.000  C
  C38      1.0000 0.36430  0.03360  0.97610  Biso   1.000  C
  C39      1.0000 0.86430  0.46640  0.47610  Biso   1.000  C
  C40      1.0000 0.36430  0.96640  0.47610  Biso   1.000  C
  H1       1.0000 0.08660  0.49540  0.02700  Biso   1.000  H
  H2       1.0000 0.58660  0.99540  0.02700  Biso   1.000  H
  H3       1.0000 0.08660  0.50460  0.52700  Biso   1.000  H
  H4       1.0000 0.58660  0.00460  0.52700  Biso   1.000  H
  H5       1.0000 0.91340  0.50460  0.97300  Biso   1.000  H
  H6       1.0000 0.41340  0.00460  0.97300  Biso   1.000  H
  H7       1.0000 0.91340  0.49540  0.47300  Biso   1.000  H
  H8       1.0000 0.41340  0.99540  0.47300  Biso   1.000  H
  H9       1.0000 0.16930  0.47240  0.06770  Biso   1.000  H
  H10      1.0000 0.66930  0.97240  0.06770  Biso   1.000  H
  H11      1.0000 0.16930  0.52760  0.56770  Biso   1.000  H
  H12      1.0000 0.66930  0.02760  0.56770  Biso   1.000  H
  H13      1.0000 0.83070  0.52760  0.93230  Biso   1.000  H
  H14      1.0000 0.33070  0.02760  0.93230  Biso   1.000  H
  H15      1.0000 0.83070  0.47240  0.43230  Biso   1.000  H
  H16      1.0000 0.33070  0.97240  0.43230  Biso   1.000  H
  C41      1.0000 0.21800  0.56700  0.98910  Biso   1.000  C
  C42      1.0000 0.71800  0.06700  0.98910  Biso   1.000  C
  C43      1.0000 0.21800  0.43300  0.48910  Biso   1.000  C
  C44      1.0000 0.71800  0.93300  0.48910  Biso   1.000  C
  C45      1.0000 0.78200  0.43300  0.01090  Biso   1.000  C
  C46      1.0000 0.28200  0.93300  0.01090  Biso   1.000  C
  C47      1.0000 0.78200  0.56700  0.51090  Biso   1.000  C
  C48      1.0000 0.28200  0.06700  0.51090  Biso   1.000  C
  H17      1.0000 0.17800  0.60480  0.99650  Biso   1.000  H
  H18      1.0000 0.67800  0.10480  0.99650  Biso   1.000  H
  H19      1.0000 0.17800  0.39520  0.49650  Biso   1.000  H
  H20      1.0000 0.67800  0.89520  0.49650  Biso   1.000  H
  H21      1.0000 0.82200  0.39520  0.00350  Biso   1.000  H
  H22      1.0000 0.32200  0.89520  0.00350  Biso   1.000  H
  H23      1.0000 0.82200  0.60480  0.50350  Biso   1.000  H
  H24      1.0000 0.32200  0.10480  0.50350  Biso   1.000  H
  H25      1.0000 0.25030  0.58390  0.95290  Biso   1.000  H
  H26      1.0000 0.75030  0.08390  0.95290  Biso   1.000  H
  H27      1.0000 0.25030  0.41610  0.45290  Biso   1.000  H
  H28      1.0000 0.75030  0.91610  0.45290  Biso   1.000  H
  H29      1.0000 0.74970  0.41610  0.04710  Biso   1.000  H
  H30      1.0000 0.24970  0.91610  0.04710  Biso   1.000  H
  H31      1.0000 0.74970  0.58390  0.54710  Biso   1.000  H
  H32      1.0000 0.24970  0.08390  0.54710  Biso   1.000  H
  H33      1.0000 0.25200  0.55930  0.03180  Biso   1.000  H
  H34      1.0000 0.75200  0.05930  0.03180  Biso   1.000  H
  H35      1.0000 0.25200  0.44070  0.53180  Biso   1.000  H
  H36      1.0000 0.75200  0.94070  0.53180  Biso   1.000  H
  H37      1.0000 0.74800  0.44070  0.96820  Biso   1.000  H
  H38      1.0000 0.24800  0.94070  0.96820  Biso   1.000  H
  H39      1.0000 0.74800  0.55930  0.46820  Biso   1.000  H
  H40      1.0000 0.24800  0.05930  0.46820  Biso   1.000  H
  C49      1.0000 0.11880  0.51050  0.90700  Biso   1.000  C
  C50      1.0000 0.61880  0.01050  0.90700  Biso   1.000  C
  C51      1.0000 0.11880  0.48950  0.40700  Biso   1.000  C
  C52      1.0000 0.61880  0.98950  0.40700  Biso   1.000  C
  C53      1.0000 0.88120  0.48950  0.09300  Biso   1.000  C
  C54      1.0000 0.38120  0.98950  0.09300  Biso   1.000  C
  C55      1.0000 0.88120  0.51050  0.59300  Biso   1.000  C
  C56      1.0000 0.38120  0.01050  0.59300  Biso   1.000  C
  H41      1.0000 0.08460  0.55190  0.91840  Biso   1.000  H
  H42      1.0000 0.58460  0.05190  0.91840  Biso   1.000  H
  H43      1.0000 0.08460  0.44810  0.41840  Biso   1.000  H
  H44      1.0000 0.58460  0.94810  0.41840  Biso   1.000  H
  H45      1.0000 0.91540  0.44810  0.08160  Biso   1.000  H
  H46      1.0000 0.41540  0.94810  0.08160  Biso   1.000  H
  H47      1.0000 0.91540  0.55190  0.58160  Biso   1.000  H
  H48      1.0000 0.41540  0.05190  0.58160  Biso   1.000  H
  H49      1.0000 0.08640  0.46620  0.89610  Biso   1.000  H
  H50      1.0000 0.58640  0.96620  0.89610  Biso   1.000  H
  H51      1.0000 0.08640  0.53380  0.39610  Biso   1.000  H
  H52      1.0000 0.58640  0.03380  0.39610  Biso   1.000  H
  H53      1.0000 0.91360  0.53380  0.10390  Biso   1.000  H
  H54      1.0000 0.41360  0.03380  0.10390  Biso   1.000  H
  H55      1.0000 0.91360  0.46620  0.60390  Biso   1.000  H
  H56      1.0000 0.41360  0.96620  0.60390  Biso   1.000  H
  H57      1.0000 0.14700  0.52410  0.86720  Biso   1.000  H
  H58      1.0000 0.64700  0.02410  0.86720  Biso   1.000  H
  H59      1.0000 0.14700  0.47590  0.36720  Biso   1.000  H
  H60      1.0000 0.64700  0.97590  0.36720  Biso   1.000  H
  H61      1.0000 0.85300  0.47590  0.13280  Biso   1.000  H
  H62      1.0000 0.35300  0.97590  0.13280  Biso   1.000  H
  H63      1.0000 0.85300  0.52410  0.63280  Biso   1.000  H
  H64      1.0000 0.35300  0.02410  0.63280  Biso   1.000  H
  C57      1.0000 0.38910  0.11420  0.27930  Biso   1.000  C
  C58      1.0000 0.88910  0.61420  0.27930  Biso   1.000  C
  C59      1.0000 0.38910  0.88580  0.77930  Biso   1.000  C
  C60      1.0000 0.88910  0.38580  0.77930  Biso   1.000  C
  C61      1.0000 0.61090  0.88580  0.72070  Biso   1.000  C
  C62      1.0000 0.11090  0.38580  0.72070  Biso   1.000  C
  C63      1.0000 0.61090  0.11420  0.22070  Biso   1.000  C
  C64      1.0000 0.11090  0.61420  0.22070  Biso   1.000  C
  C65      1.0000 0.36220  0.16090  0.21600  Biso   1.000  C
  C66      1.0000 0.86220  0.66090  0.21600  Biso   1.000  C
  C67      1.0000 0.36220  0.83910  0.71600  Biso   1.000  C
  C68      1.0000 0.86220  0.33910  0.71600  Biso   1.000  C
  C69      1.0000 0.63780  0.83910  0.78400  Biso   1.000  C
  C70      1.0000 0.13780  0.33910  0.78400  Biso   1.000  C
  C71      1.0000 0.63780  0.16090  0.28400  Biso   1.000  C
  C72      1.0000 0.13780  0.66090  0.28400  Biso   1.000  C
  C73      1.0000 0.11520  0.38400  0.01240  Biso   1.000  C
  C74      1.0000 0.61520  0.88400  0.01240  Biso   1.000  C
  C75      1.0000 0.11520  0.61600  0.51240  Biso   1.000  C
  C76      1.0000 0.61520  0.11600  0.51240  Biso   1.000  C
  C77      1.0000 0.88480  0.61600  0.98760  Biso   1.000  C
  C78      1.0000 0.38480  0.11600  0.98760  Biso   1.000  C
  C79      1.0000 0.88480  0.38400  0.48760  Biso   1.000  C
  C80      1.0000 0.38480  0.88400  0.48760  Biso   1.000  C
  H65      1.0000 0.09540  0.36260  0.05430  Biso   1.000  H
  H66      1.0000 0.59540  0.86260  0.05430  Biso   1.000  H
  H67      1.0000 0.09540  0.63740  0.55430  Biso   1.000  H
  H68      1.0000 0.59540  0.13740  0.55430  Biso   1.000  H
  H69      1.0000 0.90460  0.63740  0.94570  Biso   1.000  H
  H70      1.0000 0.40460  0.13740  0.94570  Biso   1.000  H
  H71      1.0000 0.90460  0.36260  0.44570  Biso   1.000  H
  H72      1.0000 0.40460  0.86260  0.44570  Biso   1.000  H
  H73      1.0000 0.07340  0.37860  0.97390  Biso   1.000  H
  H74      1.0000 0.57340  0.87860  0.97390  Biso   1.000  H
  H75      1.0000 0.07340  0.62140  0.47390  Biso   1.000  H
  H76      1.0000 0.57340  0.12140  0.47390  Biso   1.000  H
  H77      1.0000 0.92660  0.62140  0.02610  Biso   1.000  H
  H78      1.0000 0.42660  0.12140  0.02610  Biso   1.000  H
  H79      1.0000 0.92660  0.37860  0.52610  Biso   1.000  H
  H80      1.0000 0.42660  0.87860  0.52610  Biso   1.000  H
  C81      1.0000 0.37300  0.38760  0.86340  Biso   1.000  C
  C82      1.0000 0.87300  0.88760  0.86340  Biso   1.000  C
  C83      1.0000 0.37300  0.61240  0.36340  Biso   1.000  C
  C84      1.0000 0.87300  0.11240  0.36340  Biso   1.000  C
  C85      1.0000 0.62700  0.61240  0.13660  Biso   1.000  C
  C86      1.0000 0.12700  0.11240  0.13660  Biso   1.000  C
  C87      1.0000 0.62700  0.38760  0.63660  Biso   1.000  C
  C88      1.0000 0.12700  0.88760  0.63660  Biso   1.000  C
  H81      1.0000 0.42410  0.40070  0.84590  Biso   1.000  H
  H82      1.0000 0.92410  0.90070  0.84590  Biso   1.000  H
  H83      1.0000 0.42410  0.59930  0.34590  Biso   1.000  H
  H84      1.0000 0.92410  0.09930  0.34590  Biso   1.000  H
  H85      1.0000 0.57590  0.59930  0.15410  Biso   1.000  H
  H86      1.0000 0.07590  0.09930  0.15410  Biso   1.000  H
  H87      1.0000 0.57590  0.40070  0.65410  Biso   1.000  H
  H88      1.0000 0.07590  0.90070  0.65410  Biso   1.000  H
  H89      1.0000 0.33700  0.36940  0.82420  Biso   1.000  H
  H90      1.0000 0.83700  0.86940  0.82420  Biso   1.000  H
  H91      1.0000 0.33700  0.63060  0.32420  Biso   1.000  H
  H92      1.0000 0.83700  0.13060  0.32420  Biso   1.000  H
  H93      1.0000 0.66300  0.63060  0.17580  Biso   1.000  H
  H94      1.0000 0.16300  0.13060  0.17580  Biso   1.000  H
  H95      1.0000 0.66300  0.36940  0.67580  Biso   1.000  H
  H96      1.0000 0.16300  0.86940  0.67580  Biso   1.000  H
  C89      1.0000 0.38550  0.32750  0.91660  Biso   1.000  C
  C90      1.0000 0.88550  0.82750  0.91660  Biso   1.000  C
  C91      1.0000 0.38550  0.67250  0.41660  Biso   1.000  C
  C92      1.0000 0.88550  0.17250  0.41660  Biso   1.000  C
  C93      1.0000 0.61450  0.67250  0.08340  Biso   1.000  C
  C94      1.0000 0.11450  0.17250  0.08340  Biso   1.000  C
  C95      1.0000 0.61450  0.32750  0.58340  Biso   1.000  C
  C96      1.0000 0.11450  0.82750  0.58340  Biso   1.000  C
  H97      1.0000 0.39860  0.27990  0.89450  Biso   1.000  H
  H98      1.0000 0.89860  0.77990  0.89450  Biso   1.000  H
  H99      1.0000 0.39860  0.72010  0.39450  Biso   1.000  H
  H100     1.0000 0.89860  0.22010  0.39450  Biso   1.000  H
  H101     1.0000 0.60140  0.72010  0.10550  Biso   1.000  H
  H102     1.0000 0.10140  0.22010  0.10550  Biso   1.000  H
  H103     1.0000 0.60140  0.27990  0.60550  Biso   1.000  H
  H104     1.0000 0.10140  0.77990  0.60550  Biso   1.000  H
  H105     1.0000 0.43010  0.34090  0.95070  Biso   1.000  H
  H106     1.0000 0.93010  0.84090  0.95070  Biso   1.000  H
  H107     1.0000 0.43010  0.65910  0.45070  Biso   1.000  H
  H108     1.0000 0.93010  0.15910  0.45070  Biso   1.000  H
  H109     1.0000 0.56990  0.65910  0.04930  Biso   1.000  H
  H110     1.0000 0.06990  0.15910  0.04930  Biso   1.000  H
  H111     1.0000 0.56990  0.34090  0.54930  Biso   1.000  H
  H112     1.0000 0.06990  0.84090  0.54930  Biso   1.000  H
  C97      1.0000 0.31120  0.50650  0.83740  Biso   1.000  C
  C98      1.0000 0.81120  0.00650  0.83740  Biso   1.000  C
  C99      1.0000 0.31120  0.49350  0.33740  Biso   1.000  C
  C100     1.0000 0.81120  0.99350  0.33740  Biso   1.000  C
  C101     1.0000 0.68880  0.49350  0.16260  Biso   1.000  C
  C102     1.0000 0.18880  0.99350  0.16260  Biso   1.000  C
  C103     1.0000 0.68880  0.50650  0.66260  Biso   1.000  C
  C104     1.0000 0.18880  0.00650  0.66260  Biso   1.000  C
  H113     1.0000 0.35700  0.52460  0.81520  Biso   1.000  H
  H114     1.0000 0.85700  0.02460  0.81520  Biso   1.000  H
  H115     1.0000 0.35700  0.47540  0.31520  Biso   1.000  H
  H116     1.0000 0.85700  0.97540  0.31520  Biso   1.000  H
  H117     1.0000 0.64300  0.47540  0.18480  Biso   1.000  H
  H118     1.0000 0.14300  0.97540  0.18480  Biso   1.000  H
  H119     1.0000 0.64300  0.52460  0.68480  Biso   1.000  H
  H120     1.0000 0.14300  0.02460  0.68480  Biso   1.000  H
  H121     1.0000 0.28380  0.54870  0.85640  Biso   1.000  H
  H122     1.0000 0.78380  0.04870  0.85640  Biso   1.000  H
  H123     1.0000 0.28380  0.45130  0.35640  Biso   1.000  H
  H124     1.0000 0.78380  0.95130  0.35640  Biso   1.000  H
  H125     1.0000 0.71620  0.45130  0.14360  Biso   1.000  H
  H126     1.0000 0.21620  0.95130  0.14360  Biso   1.000  H
  H127     1.0000 0.71620  0.54870  0.64360  Biso   1.000  H
  H128     1.0000 0.21620  0.04870  0.64360  Biso   1.000  H
  H129     1.0000 0.27500  0.48040  0.80360  Biso   1.000  H
  H130     1.0000 0.77500  0.98040  0.80360  Biso   1.000  H
  H131     1.0000 0.27500  0.51960  0.30360  Biso   1.000  H
  H132     1.0000 0.77500  0.01960  0.30360  Biso   1.000  H
  H133     1.0000 0.72500  0.51960  0.19640  Biso   1.000  H
  H134     1.0000 0.22500  0.01960  0.19640  Biso   1.000  H
  H135     1.0000 0.72500  0.48040  0.69640  Biso   1.000  H
  H136     1.0000 0.22500  0.98040  0.69640  Biso   1.000  H
  C105     1.0000 0.40080  0.49280  0.93970  Biso   1.000  C
  C106     1.0000 0.90080  0.99280  0.93970  Biso   1.000  C
  C107     1.0000 0.40080  0.50720  0.43970  Biso   1.000  C
  C108     1.0000 0.90080  0.00720  0.43970  Biso   1.000  C
  C109     1.0000 0.59920  0.50720  0.06030  Biso   1.000  C
  C110     1.0000 0.09920  0.00720  0.06030  Biso   1.000  C
  C111     1.0000 0.59920  0.49280  0.56030  Biso   1.000  C
  C112     1.0000 0.09920  0.99280  0.56030  Biso   1.000  C
  H137     1.0000 0.44010  0.51460  0.91180  Biso   1.000  H
  H138     1.0000 0.94010  0.01460  0.91180  Biso   1.000  H
  H139     1.0000 0.44010  0.48540  0.41180  Biso   1.000  H
  H140     1.0000 0.94010  0.98540  0.41180  Biso   1.000  H
  H141     1.0000 0.55990  0.48540  0.08820  Biso   1.000  H
  H142     1.0000 0.05990  0.98540  0.08820  Biso   1.000  H
  H143     1.0000 0.55990  0.51460  0.58820  Biso   1.000  H
  H144     1.0000 0.05990  0.01460  0.58820  Biso   1.000  H
  H145     1.0000 0.42670  0.45660  0.97190  Biso   1.000  H
  H146     1.0000 0.92670  0.95660  0.97190  Biso   1.000  H
  H147     1.0000 0.42670  0.54340  0.47190  Biso   1.000  H
  H148     1.0000 0.92670  0.04340  0.47190  Biso   1.000  H
  H149     1.0000 0.57330  0.54340  0.02810  Biso   1.000  H
  H150     1.0000 0.07330  0.04340  0.02810  Biso   1.000  H
  H151     1.0000 0.57330  0.45660  0.52810  Biso   1.000  H
  H152     1.0000 0.07330  0.95660  0.52810  Biso   1.000  H
  H153     1.0000 0.37670  0.53230  0.96540  Biso   1.000  H
  H154     1.0000 0.87670  0.03230  0.96540  Biso   1.000  H
  H155     1.0000 0.37670  0.46770  0.46540  Biso   1.000  H
  H156     1.0000 0.87670  0.96770  0.46540  Biso   1.000  H
  H157     1.0000 0.62330  0.46770  0.03460  Biso   1.000  H
  H158     1.0000 0.12330  0.96770  0.03460  Biso   1.000  H
  H159     1.0000 0.62330  0.53230  0.53460  Biso   1.000  H
  H160     1.0000 0.12330  0.03230  0.53460  Biso   1.000  H
  F49      1.0000 0.31940  0.56350  0.17090  Biso   1.000  F
  F50      1.0000 0.81940  0.06350  0.17090  Biso   1.000  F
  F51      1.0000 0.31940  0.43650  0.67090  Biso   1.000  F
  F52      1.0000 0.81940  0.93650  0.67090  Biso   1.000  F
  F53      1.0000 0.68060  0.43650  0.82910  Biso   1.000  F
  F54      1.0000 0.18060  0.93650  0.82910  Biso   1.000  F
  F55      1.0000 0.68060  0.56350  0.32910  Biso   1.000  F
  F56      1.0000 0.18060  0.06350  0.32910  Biso   1.000  F
  F57      1.0000 0.40560  0.56680  0.09880  Biso   1.000  F
  F58      1.0000 0.90560  0.06680  0.09880  Biso   1.000  F
  F59      1.0000 0.40560  0.43320  0.59880  Biso   1.000  F
  F60      1.0000 0.90560  0.93320  0.59880  Biso   1.000  F
  F61      1.0000 0.59440  0.43320  0.90120  Biso   1.000  F
  F62      1.0000 0.09440  0.93320  0.90120  Biso   1.000  F
  F63      1.0000 0.59440  0.56680  0.40120  Biso   1.000  F
  F64      1.0000 0.09440  0.06680  0.40120  Biso   1.000  F
  F65      1.0000 0.44040  0.54090  0.20270  Biso   1.000  F
  F66      1.0000 0.94040  0.04090  0.20270  Biso   1.000  F
  F67      1.0000 0.44040  0.45910  0.70270  Biso   1.000  F
  F68      1.0000 0.94040  0.95910  0.70270  Biso   1.000  F
  F69      1.0000 0.55960  0.45910  0.79730  Biso   1.000  F
  F70      1.0000 0.05960  0.95910  0.79730  Biso   1.000  F
  F71      1.0000 0.55960  0.54090  0.29730  Biso   1.000  F
  F72      1.0000 0.05960  0.04090  0.29730  Biso   1.000  F
  F73      1.0000 0.40520  0.04580  0.26250  Biso   1.000  F
  F74      1.0000 0.90520  0.54580  0.26250  Biso   1.000  F
  F75      1.0000 0.40520  0.95420  0.76250  Biso   1.000  F
  F76      1.0000 0.90520  0.45420  0.76250  Biso   1.000  F
  F77      1.0000 0.59480  0.95420  0.73750  Biso   1.000  F
  F78      1.0000 0.09480  0.45420  0.73750  Biso   1.000  F
  F79      1.0000 0.59480  0.04580  0.23750  Biso   1.000  F
  F80      1.0000 0.09480  0.54580  0.23750  Biso   1.000  F
  F81      1.0000 0.45340  0.14090  0.31473  Biso   1.000  F
  F82      1.0000 0.95340  0.64090  0.31473  Biso   1.000  F
  F83      1.0000 0.45340  0.85910  0.81473  Biso   1.000  F
  F84      1.0000 0.95340  0.35910  0.81473  Biso   1.000  F
  F85      1.0000 0.54660  0.85910  0.68527  Biso   1.000  F
  F86      1.0000 0.04660  0.35910  0.68527  Biso   1.000  F
  F87      1.0000 0.54660  0.14090  0.18527  Biso   1.000  F
  F88      1.0000 0.04660  0.64090  0.18527  Biso   1.000  F
  F89      1.0000 0.33480  0.11120  0.32270  Biso   1.000  F
  F90      1.0000 0.83480  0.61120  0.32270  Biso   1.000  F
  F91      1.0000 0.33480  0.88880  0.82270  Biso   1.000  F
  F92      1.0000 0.83480  0.38880  0.82270  Biso   1.000  F
  F93      1.0000 0.66520  0.88880  0.67730  Biso   1.000  F
  F94      1.0000 0.16520  0.38880  0.67730  Biso   1.000  F
  F95      1.0000 0.66520  0.11120  0.17730  Biso   1.000  F
  F96      1.0000 0.16520  0.61120  0.17730  Biso   1.000  F
  O65      1.0000 0.21190  0.31520  0.18620  Biso   1.000  O
  O66      1.0000 0.71190  0.81520  0.18620  Biso   1.000  O
  O67      1.0000 0.21190  0.68480  0.68620  Biso   1.000  O
  O68      1.0000 0.71190  0.18480  0.68620  Biso   1.000  O
  O69      1.0000 0.78810  0.68480  0.81380  Biso   1.000  O
  O70      1.0000 0.28810  0.18480  0.81380  Biso   1.000  O
  O71      1.0000 0.78810  0.31520  0.31380  Biso   1.000  O
  O72      1.0000 0.28810  0.81520  0.31380  Biso   1.000  O
  C113     1.0000 0.17540  0.39110  0.19720  Biso   1.000  C
  C114     1.0000 0.67540  0.89110  0.19720  Biso   1.000  C
  C115     1.0000 0.17540  0.60890  0.69720  Biso   1.000  C
  C116     1.0000 0.67540  0.10890  0.69720  Biso   1.000  C
  C117     1.0000 0.82460  0.60890  0.80280  Biso   1.000  C
  C118     1.0000 0.32460  0.10890  0.80280  Biso   1.000  C
  C119     1.0000 0.82460  0.39110  0.30280  Biso   1.000  C
  C120     1.0000 0.32460  0.89110  0.30280  Biso   1.000  C
  H161     1.0000 0.14360  0.38870  0.23660  Biso   1.000  H
  H162     1.0000 0.64360  0.88870  0.23660  Biso   1.000  H
  H163     1.0000 0.14360  0.61130  0.73660  Biso   1.000  H
  H164     1.0000 0.64360  0.11130  0.73660  Biso   1.000  H
  H165     1.0000 0.85640  0.61130  0.76340  Biso   1.000  H
  H166     1.0000 0.35640  0.11130  0.76340  Biso   1.000  H
  H167     1.0000 0.85640  0.38870  0.26340  Biso   1.000  H
  H168     1.0000 0.35640  0.88870  0.26340  Biso   1.000  H
  H169     1.0000 0.14160  0.40540  0.15590  Biso   1.000  H
  H170     1.0000 0.64160  0.90540  0.15590  Biso   1.000  H
  H171     1.0000 0.14160  0.59460  0.65590  Biso   1.000  H
  H172     1.0000 0.64160  0.09460  0.65590  Biso   1.000  H
  H173     1.0000 0.85840  0.59460  0.84410  Biso   1.000  H
  H174     1.0000 0.35840  0.09460  0.84410  Biso   1.000  H
  H175     1.0000 0.85840  0.40540  0.34410  Biso   1.000  H
  H176     1.0000 0.35840  0.90540  0.34410  Biso   1.000  H
  H177     1.0000 0.21750  0.42810  0.20630  Biso   1.000  H
  H178     1.0000 0.71750  0.92810  0.20630  Biso   1.000  H
  H179     1.0000 0.21750  0.57190  0.70630  Biso   1.000  H
  H180     1.0000 0.71750  0.07190  0.70630  Biso   1.000  H
  H181     1.0000 0.78250  0.57190  0.79370  Biso   1.000  H
  H182     1.0000 0.28250  0.07190  0.79370  Biso   1.000  H
  H183     1.0000 0.78250  0.42810  0.29370  Biso   1.000  H
  H184     1.0000 0.28250  0.92810  0.29370  Biso   1.000  H
  O73      1.0000 0.25000  0.30690  0.32780  Biso   1.000  O
  O74      1.0000 0.75000  0.80690  0.32780  Biso   1.000  O
  O75      1.0000 0.25000  0.69310  0.82780  Biso   1.000  O
  O76      1.0000 0.75000  0.19310  0.82780  Biso   1.000  O
  O77      1.0000 0.75000  0.69310  0.67220  Biso   1.000  O
  O78      1.0000 0.25000  0.19310  0.67220  Biso   1.000  O
  O79      1.0000 0.75000  0.30690  0.17220  Biso   1.000  O
  O80      1.0000 0.25000  0.80690  0.17220  Biso   1.000  O
  H185     1.0000 0.28920  0.31170  0.35700  Biso   1.000  H
  H186     1.0000 0.78920  0.81170  0.35700  Biso   1.000  H
  H187     1.0000 0.28920  0.68830  0.85700  Biso   1.000  H
  H188     1.0000 0.78920  0.18830  0.85700  Biso   1.000  H
  H189     1.0000 0.71080  0.68830  0.64300  Biso   1.000  H
  H190     1.0000 0.21080  0.18830  0.64300  Biso   1.000  H
  H191     1.0000 0.71080  0.31170  0.14300  Biso   1.000  H
  H192     1.0000 0.21080  0.81170  0.14300  Biso   1.000  H
  C121     1.0000 0.19600  0.25180  0.35200  Biso   1.000  C
  C122     1.0000 0.69600  0.75180  0.35200  Biso   1.000  C
  C123     1.0000 0.19600  0.74820  0.85200  Biso   1.000  C
  C124     1.0000 0.69600  0.24820  0.85200  Biso   1.000  C
  C125     1.0000 0.80400  0.74820  0.64800  Biso   1.000  C
  C126     1.0000 0.30400  0.24820  0.64800  Biso   1.000  C
  C127     1.0000 0.80400  0.25180  0.14800  Biso   1.000  C
  C128     1.0000 0.30400  0.75180  0.14800  Biso   1.000  C
  H193     1.0000 0.22600  0.21510  0.38090  Biso   1.000  H
  H194     1.0000 0.72600  0.71510  0.38090  Biso   1.000  H
  H195     1.0000 0.22600  0.78490  0.88090  Biso   1.000  H
  H196     1.0000 0.72600  0.28490  0.88090  Biso   1.000  H
  H197     1.0000 0.77400  0.78490  0.61910  Biso   1.000  H
  H198     1.0000 0.27400  0.28490  0.61910  Biso   1.000  H
  H199     1.0000 0.77400  0.21510  0.11910  Biso   1.000  H
  H200     1.0000 0.27400  0.71510  0.11910  Biso   1.000  H
  H201     1.0000 0.16800  0.22660  0.31240  Biso   1.000  H
  H202     1.0000 0.66800  0.72660  0.31240  Biso   1.000  H
  H203     1.0000 0.16800  0.77340  0.81240  Biso   1.000  H
  H204     1.0000 0.66800  0.27340  0.81240  Biso   1.000  H
  H205     1.0000 0.83200  0.77340  0.68760  Biso   1.000  H
  H206     1.0000 0.33200  0.27340  0.68760  Biso   1.000  H
  H207     1.0000 0.83200  0.22660  0.18760  Biso   1.000  H
  H208     1.0000 0.33200  0.72660  0.18760  Biso   1.000  H
  H209     1.0000 0.15760  0.27650  0.37890  Biso   1.000  H
  H210     1.0000 0.65760  0.77650  0.37890  Biso   1.000  H
  H211     1.0000 0.15760  0.72350  0.87890  Biso   1.000  H
  H212     1.0000 0.65760  0.22350  0.87890  Biso   1.000  H
  H213     1.0000 0.84240  0.72350  0.62110  Biso   1.000  H
  H214     1.0000 0.34240  0.22350  0.62110  Biso   1.000  H
  H215     1.0000 0.84240  0.27650  0.12110  Biso   1.000  H
  H216     1.0000 0.34240  0.77650  0.12110  Biso   1.000  H
  C129     1.0000 0.22390  0.32420  0.24920  Biso   1.000  C
  C130     1.0000 0.72390  0.82420  0.24920  Biso   1.000  C
  C131     1.0000 0.22390  0.67580  0.74920  Biso   1.000  C
  C132     1.0000 0.72390  0.17580  0.74920  Biso   1.000  C
  C133     1.0000 0.77610  0.67580  0.75080  Biso   1.000  C
  C134     1.0000 0.27610  0.17580  0.75080  Biso   1.000  C
  C135     1.0000 0.77610  0.32420  0.25080  Biso   1.000  C
  C136     1.0000 0.27610  0.82420  0.25080  Biso   1.000  C
  H217     1.0000 0.17380  0.33590  0.26810  Biso   1.000  H
  H218     1.0000 0.67380  0.83590  0.26810  Biso   1.000  H
  H219     1.0000 0.17380  0.66410  0.76810  Biso   1.000  H
  H220     1.0000 0.67380  0.16410  0.76810  Biso   1.000  H
  H221     1.0000 0.82620  0.66410  0.73190  Biso   1.000  H
  H222     1.0000 0.32620  0.16410  0.73190  Biso   1.000  H
  H223     1.0000 0.82620  0.33590  0.23190  Biso   1.000  H
  H224     1.0000 0.32620  0.83590  0.23190  Biso   1.000  H
  H225     1.0000 0.26120  0.36530  0.25880  Biso   1.000  H
  H226     1.0000 0.76120  0.86530  0.25880  Biso   1.000  H
  H227     1.0000 0.26120  0.63470  0.75880  Biso   1.000  H
  H228     1.0000 0.76120  0.13470  0.75880  Biso   1.000  H
  H229     1.0000 0.73880  0.63470  0.74120  Biso   1.000  H
  H230     1.0000 0.23880  0.13470  0.74120  Biso   1.000  H
  H231     1.0000 0.73880  0.36530  0.24120  Biso   1.000  H
  H232     1.0000 0.23880  0.86530  0.24120  Biso   1.000  H
  H233     1.0000 0.24610  0.27850  0.27040  Biso   1.000  H
  H234     1.0000 0.74610  0.77850  0.27040  Biso   1.000  H
  H235     1.0000 0.24610  0.72150  0.77040  Biso   1.000  H
  H236     1.0000 0.74610  0.22150  0.77040  Biso   1.000  H
  H237     1.0000 0.75390  0.72150  0.72960  Biso   1.000  H
  H238     1.0000 0.25390  0.22150  0.72960  Biso   1.000  H
  H239     1.0000 0.75390  0.27850  0.22960  Biso   1.000  H
  H240     1.0000 0.25390  0.77850  0.22960  Biso   1.000  H
  C137     1.0000 0.49600  0.79400  0.26240  Biso   1.000  C
  C138     1.0000 0.99600  0.29400  0.26240  Biso   1.000  C
  C139     1.0000 0.49600  0.20600  0.76240  Biso   1.000  C
  C140     1.0000 0.99600  0.70600  0.76240  Biso   1.000  C
  C141     1.0000 0.50400  0.20600  0.73760  Biso   1.000  C
  C142     1.0000 0.00400  0.70600  0.73760  Biso   1.000  C
  C143     1.0000 0.50400  0.79400  0.23760  Biso   1.000  C
  C144     1.0000 0.00400  0.29400  0.23760  Biso   1.000  C
  H241     1.0000 0.50950  0.84480  0.27580  Biso   1.000  H
  H242     1.0000 0.00950  0.34480  0.27580  Biso   1.000  H
  H243     1.0000 0.50950  0.15520  0.77580  Biso   1.000  H
  H244     1.0000 0.00950  0.65520  0.77580  Biso   1.000  H
  H245     1.0000 0.49050  0.15520  0.72420  Biso   1.000  H
  H246     1.0000 0.99050  0.65520  0.72420  Biso   1.000  H
  H247     1.0000 0.49050  0.84480  0.22420  Biso   1.000  H
  H248     1.0000 0.99050  0.34480  0.22420  Biso   1.000  H
  H249     1.0000 0.52420  0.77920  0.22290  Biso   1.000  H
  H250     1.0000 0.02420  0.27920  0.22290  Biso   1.000  H
  H251     1.0000 0.52420  0.22080  0.72290  Biso   1.000  H
  H252     1.0000 0.02420  0.72080  0.72290  Biso   1.000  H
  H253     1.0000 0.47580  0.22080  0.77710  Biso   1.000  H
  H254     1.0000 0.97580  0.72080  0.77710  Biso   1.000  H
  H255     1.0000 0.47580  0.77920  0.27710  Biso   1.000  H
  H256     1.0000 0.97580  0.27920  0.27710  Biso   1.000  H
  H257     1.0000 0.51050  0.76000  0.30100  Biso   1.000  H
  H258     1.0000 0.01050  0.26000  0.30100  Biso   1.000  H
  H259     1.0000 0.51050  0.24000  0.80100  Biso   1.000  H
  H260     1.0000 0.01050  0.74000  0.80100  Biso   1.000  H
  H261     1.0000 0.48950  0.24000  0.69900  Biso   1.000  H
  H262     1.0000 0.98950  0.74000  0.69900  Biso   1.000  H
  H263     1.0000 0.48950  0.76000  0.19900  Biso   1.000  H
  H264     1.0000 0.98950  0.26000  0.19900  Biso   1.000  H
  O81      1.0000 0.41840  0.78890  0.24520  Biso   1.000  O
  O82      1.0000 0.91840  0.28890  0.24520  Biso   1.000  O
  O83      1.0000 0.41840  0.21110  0.74520  Biso   1.000  O
  O84      1.0000 0.91840  0.71110  0.74520  Biso   1.000  O
  O85      1.0000 0.58160  0.21110  0.75480  Biso   1.000  O
  O86      1.0000 0.08160  0.71110  0.75480  Biso   1.000  O
  O87      1.0000 0.58160  0.78890  0.25480  Biso   1.000  O
  O88      1.0000 0.08160  0.28890  0.25480  Biso   1.000  O
  H265     1.0000 0.40770  0.74700  0.22750  Biso   1.000  H
  H266     1.0000 0.90770  0.24700  0.22750  Biso   1.000  H
  H267     1.0000 0.40770  0.25300  0.72750  Biso   1.000  H
  H268     1.0000 0.90770  0.75300  0.72750  Biso   1.000  H
  H269     1.0000 0.59230  0.25300  0.77250  Biso   1.000  H
  H270     1.0000 0.09230  0.75300  0.77250  Biso   1.000  H
  H271     1.0000 0.59230  0.74700  0.27250  Biso   1.000  H
  H272     1.0000 0.09230  0.24700  0.27250  Biso   1.000  H
