data_image0
_cell_length_a       8.0299
_cell_length_b       8.418
_cell_length_c       8.8992
_cell_angle_alpha    77.122
_cell_angle_beta     68.898
_cell_angle_gamma    76.116

_symmetry_space_group_name_H-M    "P 1"
_symmetry_int_tables_number       1

loop_
  _symmetry_equiv_pos_as_xyz
  'x, y, z'

loop_
  _atom_site_label
  _atom_site_occupancy
  _atom_site_fract_x
  _atom_site_fract_y
  _atom_site_fract_z
  _atom_site_thermal_displace_type
  _atom_site_B_iso_or_equiv
  _atom_site_type_symbol
  Cu1      1.0000 0.50000  0.50000  0.50000  Biso   1.000  Cu
  O1       1.0000 0.72240  0.66690  0.24430  Biso   1.000  O
  O2       1.0000 0.27760  0.33310  0.75570  Biso   1.000  O
  O3       1.0000 0.92830  0.81510  0.08080  Biso   1.000  O
  O4       1.0000 0.07170  0.18490  0.91920  Biso   1.000  O
  N1       1.0000 0.67050  0.51120  0.61859  Biso   1.000  N
  N2       1.0000 0.32950  0.48880  0.38141  Biso   1.000  N
  N3       1.0000 0.88590  0.43790  0.72910  Biso   1.000  N
  N4       1.0000 0.11410  0.56210  0.27090  Biso   1.000  N
  H1       1.0000 0.97940  0.38140  0.75390  Biso   1.000  H
  H2       1.0000 0.02060  0.61860  0.24610  Biso   1.000  H
  N5       1.0000 0.66190  0.29680  0.41540  Biso   1.000  N
  N6       1.0000 0.33810  0.70320  0.58460  Biso   1.000  N
  N7       1.0000 0.85890  0.13900  0.24450  Biso   1.000  N
  N8       1.0000 0.14110  0.86100  0.75550  Biso   1.000  N
  H3       1.0000 0.94170  0.10920  0.15750  Biso   1.000  H
  H4       1.0000 0.05830  0.89080  0.84250  Biso   1.000  H
  C1       1.0000 0.65420  0.62440  0.71380  Biso   1.000  C
  C2       1.0000 0.34580  0.37560  0.28620  Biso   1.000  C
  H5       1.0000 0.56500  0.71850  0.72920  Biso   1.000  H
  H6       1.0000 0.43500  0.28150  0.27080  Biso   1.000  H
  C3       1.0000 0.78650  0.57940  0.78190  Biso   1.000  C
  C4       1.0000 0.21350  0.42060  0.21810  Biso   1.000  C
  H7       1.0000 0.80540  0.63540  0.85190  Biso   1.000  H
  H8       1.0000 0.19460  0.36460  0.14810  Biso   1.000  H
  C5       1.0000 0.81360  0.40150  0.63180  Biso   1.000  C
  C6       1.0000 0.18640  0.59850  0.36820  Biso   1.000  C
  H9       1.0000 0.85870  0.30900  0.57890  Biso   1.000  H
  H10      1.0000 0.14130  0.69100  0.42110  Biso   1.000  H
  C7       1.0000 0.78320  0.29340  0.26940  Biso   1.000  C
  C8       1.0000 0.21680  0.70660  0.73060  Biso   1.000  C
  H11      1.0000 0.81210  0.38680  0.19370  Biso   1.000  H
  H12      1.0000 0.18790  0.61320  0.80630  Biso   1.000  H
  C9       1.0000 0.78270  0.03630  0.38050  Biso   1.000  C
  C10      1.0000 0.21730  0.96370  0.61950  Biso   1.000  C
  H13      1.0000 0.80890  0.92130  0.39730  Biso   1.000  H
  H14      1.0000 0.19110  0.07870  0.60270  Biso   1.000  H
  C11      1.0000 0.66140  0.13450  0.48660  Biso   1.000  C
  C12      1.0000 0.33860  0.86550  0.51340  Biso   1.000  C
  H15      1.0000 0.58900  0.09800  0.59100  Biso   1.000  H
  H16      1.0000 0.41100  0.90200  0.40900  Biso   1.000  H
  C13      1.0000 0.77070  0.78230  0.13470  Biso   1.000  C
  C14      1.0000 0.22930  0.21770  0.86530  Biso   1.000  C
  C15      1.0000 0.63140  0.89610  0.06270  Biso   1.000  C
  C16      1.0000 0.36860  0.10390  0.93730  Biso   1.000  C
  C17      1.0000 0.47520  0.84230  0.07810  Biso   1.000  C
  C18      1.0000 0.52480  0.15770  0.92190  Biso   1.000  C
  H17      1.0000 0.45800  0.73590  0.13030  Biso   1.000  H
  H18      1.0000 0.54200  0.26410  0.86970  Biso   1.000  H
  C19      1.0000 0.65580  0.05490  0.98330  Biso   1.000  C
  C20      1.0000 0.34420  0.94510  0.01670  Biso   1.000  C
  H19      1.0000 0.76040  0.09230  0.97130  Biso   1.000  H
  H20      1.0000 0.23960  0.90770  0.02870  Biso   1.000  H
