data_image0
_cell_length_a       9.6137
_cell_length_b       11.3905
_cell_length_c       11.5527
_cell_angle_alpha    70.774
_cell_angle_beta     74.806
_cell_angle_gamma    70.495

_symmetry_space_group_name_H-M    "P 1"
_symmetry_int_tables_number       1

loop_
  _symmetry_equiv_pos_as_xyz
  'x, y, z'

loop_
  _atom_site_label
  _atom_site_occupancy
  _atom_site_fract_x
  _atom_site_fract_y
  _atom_site_fract_z
  _atom_site_thermal_displace_type
  _atom_site_B_iso_or_equiv
  _atom_site_type_symbol
  Mo1      1.0000 0.19978  0.83482  0.28119  Biso   1.000  Mo
  Mo2      1.0000 0.80022  0.16518  0.71881  Biso   1.000  Mo
  Mo3      1.0000 0.49981  0.59054  0.23665  Biso   1.000  Mo
  Mo4      1.0000 0.50019  0.40946  0.76335  Biso   1.000  Mo
  Mo5      1.0000 0.93861  0.75226  0.52222  Biso   1.000  Mo
  Mo6      1.0000 0.06139  0.24774  0.47778  Biso   1.000  Mo
  Cu1      1.0000 0.29829  0.15997  0.20010  Biso   1.000  Cu
  Cu2      1.0000 0.70171  0.84003  0.79990  Biso   1.000  Cu
  P1       1.0000 0.18527  0.50774  0.39381  Biso   1.000  P
  P2       1.0000 0.81473  0.49226  0.60619  Biso   1.000  P
  P3       1.0000 0.29320  0.59528  0.54856  Biso   1.000  P
  P4       1.0000 0.70680  0.40472  0.45144  Biso   1.000  P
  O1       1.0000 0.32141  0.48977  0.29197  Biso   1.000  O
  O2       1.0000 0.67859  0.51023  0.70803  Biso   1.000  O
  O3       1.0000 0.33705  0.72880  0.17952  Biso   1.000  O
  O4       1.0000 0.66295  0.27120  0.82048  Biso   1.000  O
  O5       1.0000 0.57360  0.52647  0.11263  Biso   1.000  O
  O6       1.0000 0.42640  0.47353  0.88737  Biso   1.000  O
  O7       1.0000 0.41600  0.55845  0.62673  Biso   1.000  O
  O8       1.0000 0.58400  0.44155  0.37327  Biso   1.000  O
  O9       1.0000 0.61680  0.67803  0.22782  Biso   1.000  O
  O10      1.0000 0.38320  0.32197  0.77218  Biso   1.000  O
  O11      1.0000 0.30000  0.93426  0.27798  Biso   1.000  O
  O12      1.0000 0.70000  0.06574  0.72202  Biso   1.000  O
  O13      1.0000 0.08890  0.92184  0.17166  Biso   1.000  O
  O14      1.0000 0.91110  0.07816  0.82834  Biso   1.000  O
  O15      1.0000 0.14318  0.66814  0.60761  Biso   1.000  O
  O16      1.0000 0.85682  0.33186  0.39239  Biso   1.000  O
  O17      1.0000 0.15655  0.18768  0.35057  Biso   1.000  O
  O18      1.0000 0.84345  0.81232  0.64943  Biso   1.000  O
  O19      1.0000 0.07966  0.43105  0.39706  Biso   1.000  O
  O20      1.0000 0.92034  0.56895  0.60294  Biso   1.000  O
  O21      1.0000 0.80160  0.79280  0.43714  Biso   1.000  O
  O22      1.0000 0.19840  0.20720  0.56286  Biso   1.000  O
  O23      1.0000 0.04844  0.86711  0.42561  Biso   1.000  O
  O24      1.0000 0.95156  0.13289  0.57439  Biso   1.000  O
  O25      1.0000 0.09535  0.65222  0.37391  Biso   1.000  O
  O26      1.0000 0.90465  0.34778  0.62609  Biso   1.000  O
  O27      1.0000 0.34977  0.67106  0.41596  Biso   1.000  O
  O28      1.0000 0.65023  0.32894  0.58404  Biso   1.000  O
  O29      1.0000 0.30660  0.36360  0.13230  Biso   1.000  O
  O30      1.0000 0.69340  0.63640  0.86770  Biso   1.000  O
  N1       1.0000 0.14670  0.20040  0.09470  Biso   1.000  N
  N2       1.0000 0.85330  0.79960  0.90530  Biso   1.000  N
  N3       1.0000 0.42700  0.08540  0.06388  Biso   1.000  N
  N4       1.0000 0.57300  0.91460  0.93612  Biso   1.000  N
  N5       1.0000 0.50640  0.89750  0.74070  Biso   1.000  N
  N6       1.0000 0.49360  0.10250  0.25930  Biso   1.000  N
  C1       1.0000 0.25970  0.45470  0.53510  Biso   1.000  C
  C2       1.0000 0.74030  0.54530  0.46490  Biso   1.000  C
  C3       1.0000 0.01090  0.28190  0.11080  Biso   1.000  C
  C4       1.0000 0.98910  0.71810  0.88920  Biso   1.000  C
  C5       1.0000 0.92120  0.33090  0.02060  Biso   1.000  C
  C6       1.0000 0.07880  0.66910  0.97940  Biso   1.000  C
  C7       1.0000 0.97660  0.29730  0.90930  Biso   1.000  C
  C8       1.0000 0.02340  0.70270  0.09070  Biso   1.000  C
  C9       1.0000 0.11920  0.21190  0.89120  Biso   1.000  C
  C10      1.0000 0.88080  0.78810  0.10880  Biso   1.000  C
  C11      1.0000 0.19990  0.16240  0.98770  Biso   1.000  C
  C12      1.0000 0.80010  0.83760  0.01230  Biso   1.000  C
  C13      1.0000 0.35420  0.07340  0.98520  Biso   1.000  C
  C14      1.0000 0.64580  0.92660  0.01480  Biso   1.000  C
  C15      1.0000 0.43220  0.98120  0.91790  Biso   1.000  C
  C16      1.0000 0.56780  0.01880  0.08210  Biso   1.000  C
  C17      1.0000 0.38780  0.94470  0.82260  Biso   1.000  C
  C18      1.0000 0.61220  0.05530  0.17740  Biso   1.000  C
  C19      1.0000 0.24310  0.94960  0.81860  Biso   1.000  C
  C20      1.0000 0.75690  0.05040  0.18140  Biso   1.000  C
  C21      1.0000 0.21940  0.91560  0.72120  Biso   1.000  C
  C22      1.0000 0.78060  0.08440  0.27880  Biso   1.000  C
  C23      1.0000 0.33940  0.87710  0.63260  Biso   1.000  C
  C24      1.0000 0.66060  0.12290  0.36740  Biso   1.000  C
  C25      1.0000 0.48250  0.86580  0.64740  Biso   1.000  C
  C26      1.0000 0.51750  0.13420  0.35260  Biso   1.000  C
  H1       1.0000 0.34000  0.39600  0.52200  Biso   1.000  H
  H2       1.0000 0.66000  0.60400  0.47800  Biso   1.000  H
  H3       1.0000 0.19400  0.43400  0.60000  Biso   1.000  H
  H4       1.0000 0.80600  0.56600  0.40000  Biso   1.000  H
  H5       1.0000 0.98100  0.30700  0.17700  Biso   1.000  H
  H6       1.0000 0.01900  0.69300  0.82300  Biso   1.000  H
  H7       1.0000 0.83600  0.37900  0.03300  Biso   1.000  H
  H8       1.0000 0.16400  0.62100  0.96700  Biso   1.000  H
  H9       1.0000 0.91800  0.33400  0.84800  Biso   1.000  H
  H10      1.0000 0.08200  0.66600  0.15200  Biso   1.000  H
  H11      1.0000 0.15700  0.19500  0.81600  Biso   1.000  H
  H12      1.0000 0.84300  0.80500  0.18400  Biso   1.000  H
  H13      1.0000 0.16600  0.97500  0.87700  Biso   1.000  H
  H14      1.0000 0.83400  0.02500  0.12300  Biso   1.000  H
  H15      1.0000 0.12300  0.92000  0.71600  Biso   1.000  H
  H16      1.0000 0.87700  0.08000  0.28400  Biso   1.000  H
  H17      1.0000 0.32500  0.85500  0.56500  Biso   1.000  H
  H18      1.0000 0.67500  0.14500  0.43500  Biso   1.000  H
  H19      1.0000 0.56500  0.83400  0.59200  Biso   1.000  H
  H20      1.0000 0.43500  0.16600  0.40800  Biso   1.000  H
  H21      1.0000 0.31600  0.39900  0.16800  Biso   1.000  H
  H22      1.0000 0.68400  0.60100  0.83200  Biso   1.000  H
  H23      1.0000 0.35300  0.38600  0.06700  Biso   1.000  H
  H24      1.0000 0.64700  0.61400  0.93300  Biso   1.000  H
