data_image0
_cell_length_a       8.6638
_cell_length_b       12.9337
_cell_length_c       18.688
_cell_angle_alpha    90
_cell_angle_beta     90
_cell_angle_gamma    90

_symmetry_space_group_name_H-M    "P 1"
_symmetry_int_tables_number       1

loop_
  _symmetry_equiv_pos_as_xyz
  'x, y, z'

loop_
  _atom_site_label
  _atom_site_occupancy
  _atom_site_fract_x
  _atom_site_fract_y
  _atom_site_fract_z
  _atom_site_thermal_displace_type
  _atom_site_B_iso_or_equiv
  _atom_site_type_symbol
  Cu1      1.0000 0.13689  0.53701  0.01041  Biso   1.000  Cu
  Cu2      1.0000 0.36311  0.46299  0.51041  Biso   1.000  Cu
  Cu3      1.0000 0.86311  0.03701  0.48959  Biso   1.000  Cu
  Cu4      1.0000 0.63689  0.96299  0.98959  Biso   1.000  Cu
  Cu5      1.0000 0.86311  0.46299  0.98959  Biso   1.000  Cu
  Cu6      1.0000 0.63689  0.53701  0.48959  Biso   1.000  Cu
  Cu7      1.0000 0.13689  0.96299  0.51041  Biso   1.000  Cu
  Cu8      1.0000 0.36311  0.03701  0.01041  Biso   1.000  Cu
  C1       1.0000 0.42380  0.83609  0.06459  Biso   1.000  C
  C2       1.0000 0.07620  0.16391  0.56459  Biso   1.000  C
  C3       1.0000 0.57620  0.33609  0.43541  Biso   1.000  C
  C4       1.0000 0.92380  0.66391  0.93541  Biso   1.000  C
  C5       1.0000 0.57620  0.16391  0.93541  Biso   1.000  C
  C6       1.0000 0.92380  0.83609  0.43541  Biso   1.000  C
  C7       1.0000 0.42380  0.66391  0.56459  Biso   1.000  C
  C8       1.0000 0.07620  0.33609  0.06459  Biso   1.000  C
  C9       1.0000 0.38102  0.73998  0.10696  Biso   1.000  C
  C10      1.0000 0.11898  0.26002  0.60696  Biso   1.000  C
  C11      1.0000 0.61898  0.23998  0.39304  Biso   1.000  C
  C12      1.0000 0.88102  0.76002  0.89304  Biso   1.000  C
  C13      1.0000 0.61898  0.26002  0.89304  Biso   1.000  C
  C14      1.0000 0.88102  0.73998  0.39304  Biso   1.000  C
  C15      1.0000 0.38102  0.76002  0.60696  Biso   1.000  C
  C16      1.0000 0.11898  0.23998  0.10696  Biso   1.000  C
  H1       1.0000 0.26740  0.73210  0.10620  Biso   1.000  H
  H2       1.0000 0.23260  0.26790  0.60620  Biso   1.000  H
  H3       1.0000 0.73260  0.23210  0.39380  Biso   1.000  H
  H4       1.0000 0.76740  0.76790  0.89380  Biso   1.000  H
  H5       1.0000 0.73260  0.26790  0.89380  Biso   1.000  H
  H6       1.0000 0.76740  0.73210  0.39380  Biso   1.000  H
  H7       1.0000 0.26740  0.76790  0.60620  Biso   1.000  H
  H8       1.0000 0.23260  0.23210  0.10620  Biso   1.000  H
  H9       1.0000 0.41260  0.75020  0.15740  Biso   1.000  H
  H10      1.0000 0.08740  0.24980  0.65740  Biso   1.000  H
  H11      1.0000 0.58740  0.25020  0.34260  Biso   1.000  H
  H12      1.0000 0.91260  0.74980  0.84260  Biso   1.000  H
  H13      1.0000 0.58740  0.24980  0.84260  Biso   1.000  H
  H14      1.0000 0.91260  0.75020  0.34260  Biso   1.000  H
  H15      1.0000 0.41260  0.74980  0.65740  Biso   1.000  H
  H16      1.0000 0.08740  0.25020  0.15740  Biso   1.000  H
  C17      1.0000 0.91709  0.58271  0.11615  Biso   1.000  C
  C18      1.0000 0.58291  0.41729  0.61615  Biso   1.000  C
  C19      1.0000 0.08291  0.08271  0.38385  Biso   1.000  C
  C20      1.0000 0.41709  0.91729  0.88385  Biso   1.000  C
  C21      1.0000 0.08291  0.41729  0.88385  Biso   1.000  C
  C22      1.0000 0.41709  0.58271  0.38385  Biso   1.000  C
  C23      1.0000 0.91709  0.91729  0.61615  Biso   1.000  C
  C24      1.0000 0.58291  0.08271  0.11615  Biso   1.000  C
  C25      1.0000 0.85685  0.64014  0.18119  Biso   1.000  C
  C26      1.0000 0.64315  0.35986  0.68119  Biso   1.000  C
  C27      1.0000 0.14315  0.14014  0.31881  Biso   1.000  C
  C28      1.0000 0.35685  0.85986  0.81881  Biso   1.000  C
  C29      1.0000 0.14315  0.35986  0.81881  Biso   1.000  C
  C30      1.0000 0.35685  0.64014  0.31881  Biso   1.000  C
  C31      1.0000 0.85685  0.85986  0.68119  Biso   1.000  C
  C32      1.0000 0.64315  0.14014  0.18119  Biso   1.000  C
  H17      1.0000 0.78930  0.69730  0.16510  Biso   1.000  H
  H18      1.0000 0.71070  0.30270  0.66510  Biso   1.000  H
  H19      1.0000 0.21070  0.19730  0.33490  Biso   1.000  H
  H20      1.0000 0.28930  0.80270  0.83490  Biso   1.000  H
  H21      1.0000 0.21070  0.30270  0.83490  Biso   1.000  H
  H22      1.0000 0.28930  0.69730  0.33490  Biso   1.000  H
  H23      1.0000 0.78930  0.80270  0.66510  Biso   1.000  H
  H24      1.0000 0.71070  0.19730  0.16510  Biso   1.000  H
  H25      1.0000 0.94510  0.67100  0.20720  Biso   1.000  H
  H26      1.0000 0.55490  0.32900  0.70720  Biso   1.000  H
  H27      1.0000 0.05490  0.17100  0.29280  Biso   1.000  H
  H28      1.0000 0.44510  0.82900  0.79280  Biso   1.000  H
  H29      1.0000 0.05490  0.32900  0.79280  Biso   1.000  H
  H30      1.0000 0.44510  0.67100  0.29280  Biso   1.000  H
  H31      1.0000 0.94510  0.82900  0.70720  Biso   1.000  H
  H32      1.0000 0.55490  0.17100  0.20720  Biso   1.000  H
  C33      1.0000 0.76750  0.57175  0.23179  Biso   1.000  C
  C34      1.0000 0.73250  0.42825  0.73179  Biso   1.000  C
  C35      1.0000 0.23250  0.07175  0.26821  Biso   1.000  C
  C36      1.0000 0.26750  0.92825  0.76821  Biso   1.000  C
  C37      1.0000 0.23250  0.42825  0.76821  Biso   1.000  C
  C38      1.0000 0.26750  0.57175  0.26821  Biso   1.000  C
  C39      1.0000 0.76750  0.92825  0.73179  Biso   1.000  C
  C40      1.0000 0.73250  0.07175  0.23179  Biso   1.000  C
  H33      1.0000 0.68750  0.53290  0.20510  Biso   1.000  H
  H34      1.0000 0.81250  0.46710  0.70510  Biso   1.000  H
  H35      1.0000 0.31250  0.03290  0.29490  Biso   1.000  H
  H36      1.0000 0.18750  0.96710  0.79490  Biso   1.000  H
  H37      1.0000 0.31250  0.46710  0.79490  Biso   1.000  H
  H38      1.0000 0.18750  0.53290  0.29490  Biso   1.000  H
  H39      1.0000 0.68750  0.96710  0.70510  Biso   1.000  H
  H40      1.0000 0.81250  0.03290  0.20510  Biso   1.000  H
  H41      1.0000 0.71550  0.61450  0.26850  Biso   1.000  H
  H42      1.0000 0.78450  0.38550  0.76850  Biso   1.000  H
  H43      1.0000 0.28450  0.11450  0.23150  Biso   1.000  H
  H44      1.0000 0.21550  0.88550  0.73150  Biso   1.000  H
  H45      1.0000 0.28450  0.38550  0.73150  Biso   1.000  H
  H46      1.0000 0.21550  0.61450  0.23150  Biso   1.000  H
  H47      1.0000 0.71550  0.88550  0.76850  Biso   1.000  H
  H48      1.0000 0.78450  0.11450  0.26850  Biso   1.000  H
  C41      1.0000 0.45350  0.64069  0.07957  Biso   1.000  C
  C42      1.0000 0.04650  0.35931  0.57957  Biso   1.000  C
  C43      1.0000 0.54650  0.14069  0.42043  Biso   1.000  C
  C44      1.0000 0.95350  0.85931  0.92043  Biso   1.000  C
  C45      1.0000 0.54650  0.35931  0.92043  Biso   1.000  C
  C46      1.0000 0.95350  0.64069  0.42043  Biso   1.000  C
  C47      1.0000 0.45350  0.85931  0.57957  Biso   1.000  C
  C48      1.0000 0.04650  0.14069  0.07957  Biso   1.000  C
  H49      1.0000 0.56360  0.65330  0.06840  Biso   1.000  H
  H50      1.0000 0.93640  0.34670  0.56840  Biso   1.000  H
  H51      1.0000 0.43640  0.15330  0.43160  Biso   1.000  H
  H52      1.0000 0.06360  0.84670  0.93160  Biso   1.000  H
  H53      1.0000 0.43640  0.34670  0.93160  Biso   1.000  H
  H54      1.0000 0.06360  0.65330  0.43160  Biso   1.000  H
  H55      1.0000 0.56360  0.84670  0.56840  Biso   1.000  H
  H56      1.0000 0.93640  0.15330  0.06840  Biso   1.000  H
  H57      1.0000 0.44840  0.58730  0.11740  Biso   1.000  H
  H58      1.0000 0.05160  0.41270  0.61740  Biso   1.000  H
  H59      1.0000 0.55160  0.08730  0.38260  Biso   1.000  H
  H60      1.0000 0.94840  0.91270  0.88260  Biso   1.000  H
  H61      1.0000 0.55160  0.41270  0.88260  Biso   1.000  H
  H62      1.0000 0.94840  0.58730  0.38260  Biso   1.000  H
  H63      1.0000 0.44840  0.91270  0.61740  Biso   1.000  H
  H64      1.0000 0.05160  0.08730  0.11740  Biso   1.000  H
  N1       1.0000 0.85290  0.32088  0.24755  Biso   1.000  N
  N2       1.0000 0.64710  0.67912  0.74755  Biso   1.000  N
  N3       1.0000 0.14710  0.82088  0.25245  Biso   1.000  N
  N4       1.0000 0.35290  0.17912  0.75245  Biso   1.000  N
  N5       1.0000 0.14710  0.67912  0.75245  Biso   1.000  N
  N6       1.0000 0.35290  0.32088  0.25245  Biso   1.000  N
  N7       1.0000 0.85290  0.17912  0.74755  Biso   1.000  N
  N8       1.0000 0.64710  0.82088  0.24755  Biso   1.000  N
  N9       1.0000 0.85734  0.40731  0.25399  Biso   1.000  N
  N10      1.0000 0.64266  0.59269  0.75399  Biso   1.000  N
  N11      1.0000 0.14266  0.90731  0.24601  Biso   1.000  N
  N12      1.0000 0.35734  0.09269  0.74601  Biso   1.000  N
  N13      1.0000 0.14266  0.59269  0.74601  Biso   1.000  N
  N14      1.0000 0.35734  0.40731  0.24601  Biso   1.000  N
  N15      1.0000 0.85734  0.09269  0.75399  Biso   1.000  N
  N16      1.0000 0.64266  0.90731  0.25399  Biso   1.000  N
  N17      1.0000 0.87590  0.49878  0.26645  Biso   1.000  N
  N18      1.0000 0.62410  0.50122  0.76645  Biso   1.000  N
  N19      1.0000 0.12410  0.99878  0.23355  Biso   1.000  N
  N20      1.0000 0.37590  0.00122  0.73355  Biso   1.000  N
  N21      1.0000 0.12410  0.50122  0.73355  Biso   1.000  N
  N22      1.0000 0.37590  0.49878  0.23355  Biso   1.000  N
  N23      1.0000 0.87590  0.00122  0.76645  Biso   1.000  N
  N24      1.0000 0.62410  0.99878  0.26645  Biso   1.000  N
  N25      1.0000 0.37366  0.60227  0.01445  Biso   1.000  N
  N26      1.0000 0.12634  0.39773  0.51445  Biso   1.000  N
  N27      1.0000 0.62634  0.10227  0.48555  Biso   1.000  N
  N28      1.0000 0.87366  0.89773  0.98555  Biso   1.000  N
  N29      1.0000 0.62634  0.39773  0.98555  Biso   1.000  N
  N30      1.0000 0.87366  0.60227  0.48555  Biso   1.000  N
  N31      1.0000 0.37366  0.89773  0.51445  Biso   1.000  N
  N32      1.0000 0.12634  0.10227  0.01445  Biso   1.000  N
  N33      1.0000 0.43097  0.62698  0.95605  Biso   1.000  N
  N34      1.0000 0.06903  0.37302  0.45605  Biso   1.000  N
  N35      1.0000 0.56903  0.12698  0.54395  Biso   1.000  N
  N36      1.0000 0.93097  0.87302  0.04395  Biso   1.000  N
  N37      1.0000 0.56903  0.37302  0.04395  Biso   1.000  N
  N38      1.0000 0.93097  0.62698  0.54395  Biso   1.000  N
  N39      1.0000 0.43097  0.87302  0.45605  Biso   1.000  N
  N40      1.0000 0.06903  0.12698  0.95605  Biso   1.000  N
  N41      1.0000 0.47170  0.64226  0.90003  Biso   1.000  N
  N42      1.0000 0.02830  0.35774  0.40003  Biso   1.000  N
  N43      1.0000 0.52830  0.14226  0.59997  Biso   1.000  N
  N44      1.0000 0.97170  0.85774  0.09997  Biso   1.000  N
  N45      1.0000 0.52830  0.35774  0.09997  Biso   1.000  N
  N46      1.0000 0.97170  0.64226  0.59997  Biso   1.000  N
  N47      1.0000 0.47170  0.85774  0.40003  Biso   1.000  N
  N48      1.0000 0.02830  0.14226  0.90003  Biso   1.000  N
  O1       1.0000 0.05627  0.59478  0.09966  Biso   1.000  O
  O2       1.0000 0.44373  0.40522  0.59966  Biso   1.000  O
  O3       1.0000 0.94373  0.09478  0.40034  Biso   1.000  O
  O4       1.0000 0.55627  0.90522  0.90034  Biso   1.000  O
  O5       1.0000 0.94373  0.40522  0.90034  Biso   1.000  O
  O6       1.0000 0.55627  0.59478  0.40034  Biso   1.000  O
  O7       1.0000 0.05627  0.90522  0.59966  Biso   1.000  O
  O8       1.0000 0.44373  0.09478  0.09966  Biso   1.000  O
  O9       1.0000 0.55810  0.84023  0.03962  Biso   1.000  O
  O10      1.0000 0.94190  0.15977  0.53962  Biso   1.000  O
  O11      1.0000 0.44190  0.34023  0.46038  Biso   1.000  O
  O12      1.0000 0.05810  0.65977  0.96038  Biso   1.000  O
  O13      1.0000 0.44190  0.15977  0.96038  Biso   1.000  O
  O14      1.0000 0.05810  0.84023  0.46038  Biso   1.000  O
  O15      1.0000 0.55810  0.65977  0.53962  Biso   1.000  O
  O16      1.0000 0.94190  0.34023  0.03962  Biso   1.000  O
  O17      1.0000 0.82077  0.52890  0.08240  Biso   1.000  O
  O18      1.0000 0.67923  0.47110  0.58240  Biso   1.000  O
  O19      1.0000 0.17923  0.02890  0.41760  Biso   1.000  O
  O20      1.0000 0.32077  0.97110  0.91760  Biso   1.000  O
  O21      1.0000 0.17923  0.47110  0.91760  Biso   1.000  O
  O22      1.0000 0.32077  0.52890  0.41760  Biso   1.000  O
  O23      1.0000 0.82077  0.97110  0.58240  Biso   1.000  O
  O24      1.0000 0.67923  0.02890  0.08240  Biso   1.000  O
  O25      1.0000 0.32344  0.90545  0.05885  Biso   1.000  O
  O26      1.0000 0.17656  0.09455  0.55885  Biso   1.000  O
  O27      1.0000 0.67656  0.40545  0.44115  Biso   1.000  O
  O28      1.0000 0.82344  0.59455  0.94115  Biso   1.000  O
  O29      1.0000 0.67656  0.09455  0.94115  Biso   1.000  O
  O30      1.0000 0.82344  0.90545  0.44115  Biso   1.000  O
  O31      1.0000 0.32344  0.59455  0.55885  Biso   1.000  O
  O32      1.0000 0.17656  0.40545  0.05885  Biso   1.000  O
