data_image0
_cell_length_a       13.7593
_cell_length_b       13.7593
_cell_length_c       9.1869
_cell_angle_alpha    90
_cell_angle_beta     90
_cell_angle_gamma    120

_symmetry_space_group_name_H-M    "P 1"
_symmetry_int_tables_number       1

loop_
  _symmetry_equiv_pos_as_xyz
  'x, y, z'

loop_
  _atom_site_label
  _atom_site_occupancy
  _atom_site_fract_x
  _atom_site_fract_y
  _atom_site_fract_z
  _atom_site_thermal_displace_type
  _atom_site_B_iso_or_equiv
  _atom_site_type_symbol
  C1       1.0000 0.46740  0.40730  0.58490  Biso   1.000  C
  C2       1.0000 0.59270  0.06010  0.58490  Biso   1.000  C
  C3       1.0000 0.93990  0.53260  0.58490  Biso   1.000  C
  C4       1.0000 0.46740  0.06010  0.41510  Biso   1.000  C
  C5       1.0000 0.93990  0.40730  0.41510  Biso   1.000  C
  C6       1.0000 0.59270  0.53260  0.41510  Biso   1.000  C
  C7       1.0000 0.53260  0.59270  0.41510  Biso   1.000  C
  C8       1.0000 0.40730  0.93990  0.41510  Biso   1.000  C
  C9       1.0000 0.06010  0.46740  0.41510  Biso   1.000  C
  C10      1.0000 0.53260  0.93990  0.58490  Biso   1.000  C
  C11      1.0000 0.06010  0.59270  0.58490  Biso   1.000  C
  C12      1.0000 0.40730  0.46740  0.58490  Biso   1.000  C
  C13      1.0000 0.43030  0.31170  0.67540  Biso   1.000  C
  C14      1.0000 0.68830  0.11860  0.67540  Biso   1.000  C
  C15      1.0000 0.88140  0.56970  0.67540  Biso   1.000  C
  C16      1.0000 0.43030  0.11860  0.32460  Biso   1.000  C
  C17      1.0000 0.88140  0.31170  0.32460  Biso   1.000  C
  C18      1.0000 0.68830  0.56970  0.32460  Biso   1.000  C
  C19      1.0000 0.56970  0.68830  0.32460  Biso   1.000  C
  C20      1.0000 0.31170  0.88140  0.32460  Biso   1.000  C
  C21      1.0000 0.11860  0.43030  0.32460  Biso   1.000  C
  C22      1.0000 0.56970  0.88140  0.67540  Biso   1.000  C
  C23      1.0000 0.11860  0.68830  0.67540  Biso   1.000  C
  C24      1.0000 0.31170  0.43030  0.67540  Biso   1.000  C
  H1       1.0000 0.46810  0.27140  0.67590  Biso   1.000  H
  H2       1.0000 0.72860  0.19670  0.67590  Biso   1.000  H
  H3       1.0000 0.80330  0.53190  0.67590  Biso   1.000  H
  H4       1.0000 0.46810  0.19670  0.32410  Biso   1.000  H
  H5       1.0000 0.80330  0.27140  0.32410  Biso   1.000  H
  H6       1.0000 0.72860  0.53190  0.32410  Biso   1.000  H
  H7       1.0000 0.53190  0.72860  0.32410  Biso   1.000  H
  H8       1.0000 0.27140  0.80330  0.32410  Biso   1.000  H
  H9       1.0000 0.19670  0.46810  0.32410  Biso   1.000  H
  H10      1.0000 0.53190  0.80330  0.67590  Biso   1.000  H
  H11      1.0000 0.19670  0.72860  0.67590  Biso   1.000  H
  H12      1.0000 0.27140  0.46810  0.67590  Biso   1.000  H
  C25      1.0000 0.33860  0.27970  0.76140  Biso   1.000  C
  C26      1.0000 0.72030  0.05890  0.76140  Biso   1.000  C
  C27      1.0000 0.94110  0.66140  0.76140  Biso   1.000  C
  C28      1.0000 0.33860  0.05890  0.23860  Biso   1.000  C
  C29      1.0000 0.94110  0.27970  0.23860  Biso   1.000  C
  C30      1.0000 0.72030  0.66140  0.23860  Biso   1.000  C
  C31      1.0000 0.66140  0.72030  0.23860  Biso   1.000  C
  C32      1.0000 0.27970  0.94110  0.23860  Biso   1.000  C
  C33      1.0000 0.05890  0.33860  0.23860  Biso   1.000  C
  C34      1.0000 0.66140  0.94110  0.76140  Biso   1.000  C
  C35      1.0000 0.05890  0.72030  0.76140  Biso   1.000  C
  C36      1.0000 0.27970  0.33860  0.76140  Biso   1.000  C
  H13      1.0000 0.31450  0.21740  0.82150  Biso   1.000  H
  H14      1.0000 0.78260  0.09710  0.82150  Biso   1.000  H
  H15      1.0000 0.90290  0.68550  0.82150  Biso   1.000  H
  H16      1.0000 0.31450  0.09710  0.17850  Biso   1.000  H
  H17      1.0000 0.90290  0.21740  0.17850  Biso   1.000  H
  H18      1.0000 0.78260  0.68550  0.17850  Biso   1.000  H
  H19      1.0000 0.68550  0.78260  0.17850  Biso   1.000  H
  H20      1.0000 0.21740  0.90290  0.17850  Biso   1.000  H
  H21      1.0000 0.09710  0.31450  0.17850  Biso   1.000  H
  H22      1.0000 0.68550  0.90290  0.82150  Biso   1.000  H
  H23      1.0000 0.09710  0.78260  0.82150  Biso   1.000  H
  H24      1.0000 0.21740  0.31450  0.82150  Biso   1.000  H
  N1       1.0000 0.55832  0.44168  0.50000  Biso   1.000  N
  N2       1.0000 0.55832  0.11664  0.50000  Biso   1.000  N
  N3       1.0000 0.88336  0.44168  0.50000  Biso   1.000  N
  N4       1.0000 0.44168  0.55832  0.50000  Biso   1.000  N
  N5       1.0000 0.44168  0.88336  0.50000  Biso   1.000  N
  N6       1.0000 0.11664  0.55832  0.50000  Biso   1.000  N
  O1       1.0000 0.66670  0.33330  0.50000  Biso   1.000  O
  O2       1.0000 0.33330  0.66670  0.50000  Biso   1.000  O
  H25      1.0000 0.62800  0.37200  0.50000  Biso   1.000  H
  H26      1.0000 0.62800  0.25600  0.50000  Biso   1.000  H
  H27      1.0000 0.74400  0.37200  0.50000  Biso   1.000  H
  H28      1.0000 0.37200  0.62800  0.50000  Biso   1.000  H
  H29      1.0000 0.37200  0.74400  0.50000  Biso   1.000  H
  H30      1.0000 0.25600  0.62800  0.50000  Biso   1.000  H
  Cu1      1.0000 0.66670  0.33330  0.00000  Biso   1.000  Cu
  Cu2      1.0000 0.33330  0.66670  0.00000  Biso   1.000  Cu
  Cl1      1.0000 0.33580  0.00000  0.75770  Biso   1.000  Cl
  Cl2      1.0000 0.00000  0.33580  0.75770  Biso   1.000  Cl
  Cl3      1.0000 0.66420  0.66420  0.75770  Biso   1.000  Cl
  Cl4      1.0000 0.33580  0.33580  0.24230  Biso   1.000  Cl
  Cl5      1.0000 0.66420  0.00000  0.24230  Biso   1.000  Cl
  Cl6      1.0000 0.00000  0.66420  0.24230  Biso   1.000  Cl
  C37      1.0000 0.51340  0.10250  0.93850  Biso   1.000  C
  C38      1.0000 0.89750  0.41090  0.93850  Biso   1.000  C
  C39      1.0000 0.58910  0.48660  0.93850  Biso   1.000  C
  C40      1.0000 0.51340  0.41090  0.06150  Biso   1.000  C
  C41      1.0000 0.58910  0.10250  0.06150  Biso   1.000  C
  C42      1.0000 0.89750  0.48660  0.06150  Biso   1.000  C
  C43      1.0000 0.48660  0.89750  0.06150  Biso   1.000  C
  C44      1.0000 0.10250  0.58910  0.06150  Biso   1.000  C
  C45      1.0000 0.41090  0.51340  0.06150  Biso   1.000  C
  C46      1.0000 0.48660  0.58910  0.93850  Biso   1.000  C
  C47      1.0000 0.41090  0.89750  0.93850  Biso   1.000  C
  C48      1.0000 0.10250  0.51340  0.93850  Biso   1.000  C
  C49      1.0000 0.42560  0.00000  0.89000  Biso   1.000  C
  C50      1.0000 0.00000  0.42560  0.89000  Biso   1.000  C
  C51      1.0000 0.57440  0.57440  0.89000  Biso   1.000  C
  C52      1.0000 0.42560  0.42560  0.11000  Biso   1.000  C
  C53      1.0000 0.57440  0.00000  0.11000  Biso   1.000  C
  C54      1.0000 0.00000  0.57440  0.11000  Biso   1.000  C
  O3       1.0000 0.53720  0.19680  0.89090  Biso   1.000  O
  O4       1.0000 0.80320  0.34040  0.89090  Biso   1.000  O
  O5       1.0000 0.65960  0.46280  0.89090  Biso   1.000  O
  O6       1.0000 0.53720  0.34040  0.10910  Biso   1.000  O
  O7       1.0000 0.65960  0.19680  0.10910  Biso   1.000  O
  O8       1.0000 0.80320  0.46280  0.10910  Biso   1.000  O
  O9       1.0000 0.46280  0.80320  0.10910  Biso   1.000  O
  O10      1.0000 0.19680  0.65960  0.10910  Biso   1.000  O
  O11      1.0000 0.34040  0.53720  0.10910  Biso   1.000  O
  O12      1.0000 0.46280  0.65960  0.89090  Biso   1.000  O
  O13      1.0000 0.34040  0.80320  0.89090  Biso   1.000  O
  O14      1.0000 0.19680  0.53720  0.89090  Biso   1.000  O
