data_image0
_cell_length_a       13.7565
_cell_length_b       13.7565
_cell_length_c       9.1544
_cell_angle_alpha    90
_cell_angle_beta     90
_cell_angle_gamma    120

_symmetry_space_group_name_H-M    "P 1"
_symmetry_int_tables_number       1

loop_
  _symmetry_equiv_pos_as_xyz
  'x, y, z'

loop_
  _atom_site_label
  _atom_site_occupancy
  _atom_site_fract_x
  _atom_site_fract_y
  _atom_site_fract_z
  _atom_site_thermal_displace_type
  _atom_site_B_iso_or_equiv
  _atom_site_type_symbol
  Cu1      1.0000 0.66670  0.33330  0.00000  Biso   1.000  Cu
  Cu2      1.0000 0.33330  0.66670  0.00000  Biso   1.000  Cu
  Cl1      1.0000 0.33545  0.00000  0.75770  Biso   1.000  Cl
  Cl2      1.0000 0.00000  0.33545  0.75770  Biso   1.000  Cl
  Cl3      1.0000 0.66455  0.66455  0.75770  Biso   1.000  Cl
  Cl4      1.0000 0.33545  0.33545  0.24230  Biso   1.000  Cl
  Cl5      1.0000 0.66455  0.00000  0.24230  Biso   1.000  Cl
  Cl6      1.0000 0.00000  0.66455  0.24230  Biso   1.000  Cl
  C1       1.0000 0.51350  0.10240  0.93850  Biso   1.000  C
  C2       1.0000 0.89760  0.41110  0.93850  Biso   1.000  C
  C3       1.0000 0.58890  0.48650  0.93850  Biso   1.000  C
  C4       1.0000 0.51350  0.41110  0.06150  Biso   1.000  C
  C5       1.0000 0.58890  0.10240  0.06150  Biso   1.000  C
  C6       1.0000 0.89760  0.48650  0.06150  Biso   1.000  C
  C7       1.0000 0.48650  0.89760  0.06150  Biso   1.000  C
  C8       1.0000 0.10240  0.58890  0.06150  Biso   1.000  C
  C9       1.0000 0.41110  0.51350  0.06150  Biso   1.000  C
  C10      1.0000 0.48650  0.58890  0.93850  Biso   1.000  C
  C11      1.0000 0.41110  0.89760  0.93850  Biso   1.000  C
  C12      1.0000 0.10240  0.51350  0.93850  Biso   1.000  C
  C13      1.0000 0.42580  0.00000  0.88930  Biso   1.000  C
  C14      1.0000 0.00000  0.42580  0.88930  Biso   1.000  C
  C15      1.0000 0.57420  0.57420  0.88930  Biso   1.000  C
  C16      1.0000 0.42580  0.42580  0.11070  Biso   1.000  C
  C17      1.0000 0.57420  0.00000  0.11070  Biso   1.000  C
  C18      1.0000 0.00000  0.57420  0.11070  Biso   1.000  C
  O1       1.0000 0.53740  0.19685  0.88960  Biso   1.000  O
  O2       1.0000 0.80315  0.34055  0.88960  Biso   1.000  O
  O3       1.0000 0.65945  0.46260  0.88960  Biso   1.000  O
  O4       1.0000 0.53740  0.34055  0.11040  Biso   1.000  O
  O5       1.0000 0.65945  0.19685  0.11040  Biso   1.000  O
  O6       1.0000 0.80315  0.46260  0.11040  Biso   1.000  O
  O7       1.0000 0.46260  0.80315  0.11040  Biso   1.000  O
  O8       1.0000 0.19685  0.65945  0.11040  Biso   1.000  O
  O9       1.0000 0.34055  0.53740  0.11040  Biso   1.000  O
  O10      1.0000 0.46260  0.65945  0.88960  Biso   1.000  O
  O11      1.0000 0.34055  0.80315  0.88960  Biso   1.000  O
  O12      1.0000 0.19685  0.53740  0.88960  Biso   1.000  O
  C19      1.0000 0.46740  0.40740  0.58490  Biso   1.000  C
  C20      1.0000 0.59260  0.06000  0.58490  Biso   1.000  C
  C21      1.0000 0.94000  0.53260  0.58490  Biso   1.000  C
  C22      1.0000 0.46740  0.06000  0.41510  Biso   1.000  C
  C23      1.0000 0.94000  0.40740  0.41510  Biso   1.000  C
  C24      1.0000 0.59260  0.53260  0.41510  Biso   1.000  C
  C25      1.0000 0.53260  0.59260  0.41510  Biso   1.000  C
  C26      1.0000 0.40740  0.94000  0.41510  Biso   1.000  C
  C27      1.0000 0.06000  0.46740  0.41510  Biso   1.000  C
  C28      1.0000 0.53260  0.94000  0.58490  Biso   1.000  C
  C29      1.0000 0.06000  0.59260  0.58490  Biso   1.000  C
  C30      1.0000 0.40740  0.46740  0.58490  Biso   1.000  C
  C31      1.0000 0.43020  0.31150  0.67580  Biso   1.000  C
  C32      1.0000 0.68850  0.11870  0.67580  Biso   1.000  C
  C33      1.0000 0.88130  0.56980  0.67580  Biso   1.000  C
  C34      1.0000 0.43020  0.11870  0.32420  Biso   1.000  C
  C35      1.0000 0.88130  0.31150  0.32420  Biso   1.000  C
  C36      1.0000 0.68850  0.56980  0.32420  Biso   1.000  C
  C37      1.0000 0.56980  0.68850  0.32420  Biso   1.000  C
  C38      1.0000 0.31150  0.88130  0.32420  Biso   1.000  C
  C39      1.0000 0.11870  0.43020  0.32420  Biso   1.000  C
  C40      1.0000 0.56980  0.88130  0.67580  Biso   1.000  C
  C41      1.0000 0.11870  0.68850  0.67580  Biso   1.000  C
  C42      1.0000 0.31150  0.43020  0.67580  Biso   1.000  C
  H1       1.0000 0.46810  0.27150  0.67670  Biso   1.000  H
  H2       1.0000 0.72850  0.19660  0.67670  Biso   1.000  H
  H3       1.0000 0.80340  0.53190  0.67670  Biso   1.000  H
  H4       1.0000 0.46810  0.19660  0.32330  Biso   1.000  H
  H5       1.0000 0.80340  0.27150  0.32330  Biso   1.000  H
  H6       1.0000 0.72850  0.53190  0.32330  Biso   1.000  H
  H7       1.0000 0.53190  0.72850  0.32330  Biso   1.000  H
  H8       1.0000 0.27150  0.80340  0.32330  Biso   1.000  H
  H9       1.0000 0.19660  0.46810  0.32330  Biso   1.000  H
  H10      1.0000 0.53190  0.80340  0.67670  Biso   1.000  H
  H11      1.0000 0.19660  0.72850  0.67670  Biso   1.000  H
  H12      1.0000 0.27150  0.46810  0.67670  Biso   1.000  H
  C43      1.0000 0.33830  0.27910  0.76160  Biso   1.000  C
  C44      1.0000 0.72090  0.05920  0.76160  Biso   1.000  C
  C45      1.0000 0.94080  0.66170  0.76160  Biso   1.000  C
  C46      1.0000 0.33830  0.05920  0.23840  Biso   1.000  C
  C47      1.0000 0.94080  0.27910  0.23840  Biso   1.000  C
  C48      1.0000 0.72090  0.66170  0.23840  Biso   1.000  C
  C49      1.0000 0.66170  0.72090  0.23840  Biso   1.000  C
  C50      1.0000 0.27910  0.94080  0.23840  Biso   1.000  C
  C51      1.0000 0.05920  0.33830  0.23840  Biso   1.000  C
  C52      1.0000 0.66170  0.94080  0.76160  Biso   1.000  C
  C53      1.0000 0.05920  0.72090  0.76160  Biso   1.000  C
  C54      1.0000 0.27910  0.33830  0.76160  Biso   1.000  C
  H13      1.0000 0.31400  0.21650  0.82150  Biso   1.000  H
  H14      1.0000 0.78350  0.09750  0.82150  Biso   1.000  H
  H15      1.0000 0.90250  0.68600  0.82150  Biso   1.000  H
  H16      1.0000 0.31400  0.09750  0.17850  Biso   1.000  H
  H17      1.0000 0.90250  0.21650  0.17850  Biso   1.000  H
  H18      1.0000 0.78350  0.68600  0.17850  Biso   1.000  H
  H19      1.0000 0.68600  0.78350  0.17850  Biso   1.000  H
  H20      1.0000 0.21650  0.90250  0.17850  Biso   1.000  H
  H21      1.0000 0.09750  0.31400  0.17850  Biso   1.000  H
  H22      1.0000 0.68600  0.90250  0.82150  Biso   1.000  H
  H23      1.0000 0.09750  0.78350  0.82150  Biso   1.000  H
  H24      1.0000 0.21650  0.31400  0.82150  Biso   1.000  H
  N1       1.0000 0.55828  0.44172  0.50000  Biso   1.000  N
  N2       1.0000 0.55828  0.11656  0.50000  Biso   1.000  N
  N3       1.0000 0.88344  0.44172  0.50000  Biso   1.000  N
  N4       1.0000 0.44172  0.55828  0.50000  Biso   1.000  N
  N5       1.0000 0.44172  0.88344  0.50000  Biso   1.000  N
  N6       1.0000 0.11656  0.55828  0.50000  Biso   1.000  N
  O13      1.0000 0.66670  0.33330  0.50000  Biso   1.000  O
  O14      1.0000 0.33330  0.66670  0.50000  Biso   1.000  O
  H25      1.0000 0.62500  0.37500  0.50000  Biso   1.000  H
  H26      1.0000 0.62500  0.25000  0.50000  Biso   1.000  H
  H27      1.0000 0.75000  0.37500  0.50000  Biso   1.000  H
  H28      1.0000 0.37500  0.62500  0.50000  Biso   1.000  H
  H29      1.0000 0.37500  0.75000  0.50000  Biso   1.000  H
  H30      1.0000 0.25000  0.62500  0.50000  Biso   1.000  H
