data_image0
_cell_length_a       8.553
_cell_length_b       9.114
_cell_length_c       10.399
_cell_angle_alpha    105.16
_cell_angle_beta     97.83
_cell_angle_gamma    114.41

_symmetry_space_group_name_H-M    "P 1"
_symmetry_int_tables_number       1

loop_
  _symmetry_equiv_pos_as_xyz
  'x, y, z'

loop_
  _atom_site_label
  _atom_site_occupancy
  _atom_site_fract_x
  _atom_site_fract_y
  _atom_site_fract_z
  _atom_site_thermal_displace_type
  _atom_site_B_iso_or_equiv
  _atom_site_type_symbol
  Cu1      1.0000 0.50000  0.50000  0.50000  Biso   1.000  Cu
  Cu2      1.0000 0.82825  0.95790  0.29730  Biso   1.000  Cu
  Cu3      1.0000 0.17175  0.04210  0.70270  Biso   1.000  Cu
  P1       1.0000 0.23604  0.09973  0.42397  Biso   1.000  P
  P2       1.0000 0.76396  0.90027  0.57603  Biso   1.000  P
  O1       1.0000 0.08050  0.12640  0.36490  Biso   1.000  O
  O2       1.0000 0.91950  0.87360  0.63510  Biso   1.000  O
  O3       1.0000 0.40100  0.27050  0.50450  Biso   1.000  O
  O4       1.0000 0.59900  0.72950  0.49550  Biso   1.000  O
  O5       1.0000 0.19320  0.98870  0.51390  Biso   1.000  O
  O6       1.0000 0.80680  0.01130  0.48610  Biso   1.000  O
  C1       1.0000 0.28740  0.98810  0.27990  Biso   1.000  C
  C2       1.0000 0.71260  0.01190  0.72010  Biso   1.000  C
  C3       1.0000 0.22950  0.98270  0.14660  Biso   1.000  C
  C4       1.0000 0.77050  0.01730  0.85340  Biso   1.000  C
  H1       1.0000 0.15830  0.03390  0.13040  Biso   1.000  H
  H2       1.0000 0.84170  0.96610  0.86960  Biso   1.000  H
  C5       1.0000 0.27580  0.90280  0.03800  Biso   1.000  C
  C6       1.0000 0.72420  0.09720  0.96200  Biso   1.000  C
  C7       1.0000 0.38210  0.82540  0.06180  Biso   1.000  C
  C8       1.0000 0.61790  0.17460  0.93820  Biso   1.000  C
  H3       1.0000 0.41140  0.76850  0.98850  Biso   1.000  H
  H4       1.0000 0.58860  0.23150  0.01150  Biso   1.000  H
  C9       1.0000 0.44340  0.83350  0.19380  Biso   1.000  C
  C10      1.0000 0.55660  0.16650  0.80620  Biso   1.000  C
  C11      1.0000 0.39400  0.91150  0.30200  Biso   1.000  C
  C12      1.0000 0.60600  0.08850  0.69800  Biso   1.000  C
  H5       1.0000 0.43250  0.91260  0.39050  Biso   1.000  H
  H6       1.0000 0.56750  0.08740  0.60950  Biso   1.000  H
  N1       1.0000 0.56720  0.76850  0.22300  Biso   1.000  N
  N2       1.0000 0.43280  0.23150  0.77700  Biso   1.000  N
  H7       1.0000 0.55500  0.68000  0.14500  Biso   1.000  H
  H8       1.0000 0.44500  0.32000  0.85500  Biso   1.000  H
  H9       1.0000 0.54000  0.71700  0.28600  Biso   1.000  H
  H10      1.0000 0.46000  0.28300  0.71400  Biso   1.000  H
  C13      1.0000 0.22190  0.90360  0.89520  Biso   1.000  C
  C14      1.0000 0.77810  0.09640  0.10480  Biso   1.000  C
  O7       1.0000 0.21730  0.79390  0.79370  Biso   1.000  O
  O8       1.0000 0.78270  0.20610  0.20630  Biso   1.000  O
  O9       1.0000 0.18620  0.02470  0.88740  Biso   1.000  O
  O10      1.0000 0.81380  0.97530  0.11260  Biso   1.000  O
  O11      1.0000 0.27300  0.45350  0.37800  Biso   1.000  O
  O12      1.0000 0.72700  0.54650  0.62200  Biso   1.000  O
  H11      1.0000 0.18240  0.36780  0.37120  Biso   1.000  H
  H12      1.0000 0.81760  0.63220  0.62880  Biso   1.000  H
  H13      1.0000 0.24690  0.47160  0.30710  Biso   1.000  H
  H14      1.0000 0.75310  0.52840  0.69290  Biso   1.000  H
  O13      1.0000 0.59620  0.41640  0.28600  Biso   1.000  O
  O14      1.0000 0.40380  0.58360  0.71400  Biso   1.000  O
  H15      1.0000 0.63300  0.34500  0.27000  Biso   1.000  H
  H16      1.0000 0.36700  0.65500  0.73000  Biso   1.000  H
  H17      1.0000 0.51900  0.38300  0.21400  Biso   1.000  H
  H18      1.0000 0.48100  0.61700  0.78600  Biso   1.000  H
  O15      1.0000 0.87460  0.71380  0.27360  Biso   1.000  O
  O16      1.0000 0.12540  0.28620  0.72640  Biso   1.000  O
  H19      1.0000 0.84800  0.66300  0.19110  Biso   1.000  H
  H20      1.0000 0.15200  0.33700  0.80890  Biso   1.000  H
  H21      1.0000 0.87800  0.64400  0.30700  Biso   1.000  H
  H22      1.0000 0.12200  0.35600  0.69300  Biso   1.000  H
  O17      1.0000 0.31370  0.36870  0.06710  Biso   1.000  O
  O18      1.0000 0.68630  0.63130  0.93290  Biso   1.000  O
  H23      1.0000 0.26000  0.42500  0.06600  Biso   1.000  H
  H24      1.0000 0.74000  0.57500  0.93400  Biso   1.000  H
  H25      1.0000 0.23300  0.26900  0.03100  Biso   1.000  H
  H26      1.0000 0.76700  0.73100  0.96900  Biso   1.000  H
  O19      1.0000 0.96040  0.49170  0.86450  Biso   1.000  O
  O20      1.0000 0.03960  0.50830  0.13550  Biso   1.000  O
  H27      1.0000 0.06700  0.56150  0.89180  Biso   1.000  H
  H28      1.0000 0.93300  0.43850  0.10820  Biso   1.000  H
  H29      1.0000 0.96300  0.40680  0.88080  Biso   1.000  H
  H30      1.0000 0.03700  0.59320  0.11920  Biso   1.000  H
  O21      1.0000 0.13370  0.65690  0.48940  Biso   1.000  O
  O22      1.0000 0.86630  0.34310  0.51060  Biso   1.000  O
  H31      1.0000 0.09100  0.65400  0.41500  Biso   1.000  H
  H32      1.0000 0.90900  0.34600  0.58500  Biso   1.000  H
  H33      1.0000 0.12400  0.56300  0.48100  Biso   1.000  H
  H34      1.0000 0.87600  0.43700  0.51900  Biso   1.000  H
