data_image0
_cell_length_a       8.6561
_cell_length_b       16.193
_cell_length_c       33.492
_cell_angle_alpha    90
_cell_angle_beta     90
_cell_angle_gamma    90

_symmetry_space_group_name_H-M    "P 1"
_symmetry_int_tables_number       1

loop_
  _symmetry_equiv_pos_as_xyz
  'x, y, z'

loop_
  _atom_site_label
  _atom_site_occupancy
  _atom_site_fract_x
  _atom_site_fract_y
  _atom_site_fract_z
  _atom_site_thermal_displace_type
  _atom_site_B_iso_or_equiv
  _atom_site_type_symbol
  C1       1.0000 0.13150  0.97570  0.08470  Biso   1.000  C
  C2       1.0000 0.36850  0.02430  0.58470  Biso   1.000  C
  C3       1.0000 0.86850  0.47570  0.41530  Biso   1.000  C
  C4       1.0000 0.63150  0.52430  0.91530  Biso   1.000  C
  H1       1.0000 0.08020  0.00460  0.10550  Biso   1.000  H
  H2       1.0000 0.41980  0.99540  0.60550  Biso   1.000  H
  H3       1.0000 0.91980  0.50460  0.39450  Biso   1.000  H
  H4       1.0000 0.58020  0.49540  0.89450  Biso   1.000  H
  C5       1.0000 0.11760  0.99540  0.04405  Biso   1.000  C
  C6       1.0000 0.38240  0.00460  0.54405  Biso   1.000  C
  C7       1.0000 0.88240  0.49540  0.45595  Biso   1.000  C
  C8       1.0000 0.61760  0.50460  0.95595  Biso   1.000  C
  H5       1.0000 0.05750  0.03860  0.03280  Biso   1.000  H
  H6       1.0000 0.44250  0.96140  0.53280  Biso   1.000  H
  H7       1.0000 0.94250  0.53860  0.46720  Biso   1.000  H
  H8       1.0000 0.55750  0.46140  0.96720  Biso   1.000  H
  C9       1.0000 0.20870  0.93940  0.02356  Biso   1.000  C
  C10      1.0000 0.29130  0.06060  0.52356  Biso   1.000  C
  C11      1.0000 0.79130  0.43940  0.47644  Biso   1.000  C
  C12      1.0000 0.70870  0.56060  0.97644  Biso   1.000  C
  H9       1.0000 0.22300  0.93670  0.99550  Biso   1.000  H
  H10      1.0000 0.27700  0.06330  0.49550  Biso   1.000  H
  H11      1.0000 0.77700  0.43670  0.50450  Biso   1.000  H
  H12      1.0000 0.72300  0.56330  0.00450  Biso   1.000  H
  C13      1.0000 0.27690  0.88690  0.05257  Biso   1.000  C
  C14      1.0000 0.22310  0.11310  0.55257  Biso   1.000  C
  C15      1.0000 0.72310  0.38690  0.44743  Biso   1.000  C
  C16      1.0000 0.77690  0.61310  0.94743  Biso   1.000  C
  C17      1.0000 0.37840  0.82050  0.04602  Biso   1.000  C
  C18      1.0000 0.12160  0.17950  0.54602  Biso   1.000  C
  C19      1.0000 0.62160  0.32050  0.45398  Biso   1.000  C
  C20      1.0000 0.87840  0.67950  0.95398  Biso   1.000  C
  C21      1.0000 0.43790  0.76850  0.07595  Biso   1.000  C
  C22      1.0000 0.06210  0.23150  0.57595  Biso   1.000  C
  C23      1.0000 0.56210  0.26850  0.42405  Biso   1.000  C
  C24      1.0000 0.93790  0.73150  0.92405  Biso   1.000  C
  C25      1.0000 0.55340  0.70630  0.07105  Biso   1.000  C
  C26      1.0000 0.94660  0.29370  0.57105  Biso   1.000  C
  C27      1.0000 0.44660  0.20630  0.42895  Biso   1.000  C
  C28      1.0000 0.05340  0.79370  0.92895  Biso   1.000  C
  H13      1.0000 0.60060  0.68980  0.04670  Biso   1.000  H
  H14      1.0000 0.89940  0.31020  0.54670  Biso   1.000  H
  H15      1.0000 0.39940  0.18980  0.45330  Biso   1.000  H
  H16      1.0000 0.10060  0.81020  0.95330  Biso   1.000  H
  C29      1.0000 0.58320  0.67480  0.10858  Biso   1.000  C
  C30      1.0000 0.91680  0.32520  0.60858  Biso   1.000  C
  C31      1.0000 0.41680  0.17480  0.39142  Biso   1.000  C
  C32      1.0000 0.08320  0.82520  0.89142  Biso   1.000  C
  H17      1.0000 0.65450  0.63220  0.11500  Biso   1.000  H
  H18      1.0000 0.84550  0.36780  0.61500  Biso   1.000  H
  H19      1.0000 0.34550  0.13220  0.38500  Biso   1.000  H
  H20      1.0000 0.15450  0.86780  0.88500  Biso   1.000  H
  C33      1.0000 0.48720  0.71820  0.13583  Biso   1.000  C
  C34      1.0000 0.01280  0.28180  0.63583  Biso   1.000  C
  C35      1.0000 0.51280  0.21820  0.36417  Biso   1.000  C
  C36      1.0000 0.98720  0.78180  0.86417  Biso   1.000  C
  H21      1.0000 0.48370  0.70860  0.16380  Biso   1.000  H
  H22      1.0000 0.01630  0.29140  0.66380  Biso   1.000  H
  H23      1.0000 0.51630  0.20860  0.33620  Biso   1.000  H
  H24      1.0000 0.98370  0.79140  0.83620  Biso   1.000  H
  C37      1.0000 0.42290  0.80380  0.00419  Biso   1.000  C
  C38      1.0000 0.07710  0.19620  0.50419  Biso   1.000  C
  C39      1.0000 0.57710  0.30380  0.49581  Biso   1.000  C
  C40      1.0000 0.92290  0.69620  0.99581  Biso   1.000  C
  C41      1.0000 0.49760  0.86350  0.98085  Biso   1.000  C
  C42      1.0000 0.00240  0.13650  0.48085  Biso   1.000  C
  C43      1.0000 0.50240  0.36350  0.51915  Biso   1.000  C
  C44      1.0000 0.99760  0.63650  0.01915  Biso   1.000  C
  H25      1.0000 0.52660  0.91460  0.99270  Biso   1.000  H
  H26      1.0000 0.97340  0.08540  0.49270  Biso   1.000  H
  H27      1.0000 0.47340  0.41460  0.50730  Biso   1.000  H
  H28      1.0000 0.02660  0.58540  0.00730  Biso   1.000  H
  C45      1.0000 0.52980  0.84980  0.94118  Biso   1.000  C
  C46      1.0000 0.97020  0.15020  0.44118  Biso   1.000  C
  C47      1.0000 0.47020  0.34980  0.55882  Biso   1.000  C
  C48      1.0000 0.02980  0.65020  0.05882  Biso   1.000  C
  H29      1.0000 0.57880  0.89170  0.92590  Biso   1.000  H
  H30      1.0000 0.92120  0.10830  0.42590  Biso   1.000  H
  H31      1.0000 0.42120  0.39170  0.57410  Biso   1.000  H
  H32      1.0000 0.07880  0.60830  0.07410  Biso   1.000  H
  C49      1.0000 0.49100  0.77500  0.92322  Biso   1.000  C
  C50      1.0000 0.00900  0.22500  0.42322  Biso   1.000  C
  C51      1.0000 0.50900  0.27500  0.57678  Biso   1.000  C
  C52      1.0000 0.99100  0.72500  0.07678  Biso   1.000  C
  C53      1.0000 0.42390  0.71270  0.94699  Biso   1.000  C
  C54      1.0000 0.07610  0.28730  0.44699  Biso   1.000  C
  C55      1.0000 0.57610  0.21270  0.55301  Biso   1.000  C
  C56      1.0000 0.92390  0.78730  0.05301  Biso   1.000  C
  H33      1.0000 0.40150  0.66040  0.93560  Biso   1.000  H
  H34      1.0000 0.09850  0.33960  0.43560  Biso   1.000  H
  H35      1.0000 0.59850  0.16040  0.56440  Biso   1.000  H
  H36      1.0000 0.90150  0.83960  0.06440  Biso   1.000  H
  C57      1.0000 0.39030  0.72700  0.98657  Biso   1.000  C
  C58      1.0000 0.10970  0.27300  0.48657  Biso   1.000  C
  C59      1.0000 0.60970  0.22700  0.51343  Biso   1.000  C
  C60      1.0000 0.89030  0.77300  0.01343  Biso   1.000  C
  H37      1.0000 0.34450  0.68450  0.00210  Biso   1.000  H
  H38      1.0000 0.15550  0.31550  0.50210  Biso   1.000  H
  H39      1.0000 0.65550  0.18450  0.49790  Biso   1.000  H
  H40      1.0000 0.84450  0.81550  0.99790  Biso   1.000  H
  C61      1.0000 0.58890  0.84770  0.85180  Biso   1.000  C
  C62      1.0000 0.91110  0.15230  0.35180  Biso   1.000  C
  C63      1.0000 0.41110  0.34770  0.64820  Biso   1.000  C
  C64      1.0000 0.08890  0.65230  0.14820  Biso   1.000  C
  H41      1.0000 0.52390  0.89470  0.85930  Biso   1.000  H
  H42      1.0000 0.97610  0.10530  0.35930  Biso   1.000  H
  H43      1.0000 0.47610  0.39470  0.64070  Biso   1.000  H
  H44      1.0000 0.02390  0.60530  0.14070  Biso   1.000  H
  H45      1.0000 0.59410  0.84360  0.82260  Biso   1.000  H
  H46      1.0000 0.90590  0.15640  0.32260  Biso   1.000  H
  H47      1.0000 0.40590  0.34360  0.67740  Biso   1.000  H
  H48      1.0000 0.09410  0.65640  0.17740  Biso   1.000  H
  H49      1.0000 0.69310  0.85550  0.86260  Biso   1.000  H
  H50      1.0000 0.80690  0.14450  0.36260  Biso   1.000  H
  H51      1.0000 0.30690  0.35550  0.63740  Biso   1.000  H
  H52      1.0000 0.19310  0.64450  0.13740  Biso   1.000  H
  C65      1.0000 0.02160  0.02300  0.21570  Biso   1.000  C
  C66      1.0000 0.47840  0.97700  0.71570  Biso   1.000  C
  C67      1.0000 0.97840  0.52300  0.28430  Biso   1.000  C
  C68      1.0000 0.52160  0.47700  0.78430  Biso   1.000  C
  C69      1.0000 0.12000  0.94660  0.20492  Biso   1.000  C
  C70      1.0000 0.38000  0.05340  0.70492  Biso   1.000  C
  C71      1.0000 0.88000  0.44660  0.29508  Biso   1.000  C
  C72      1.0000 0.62000  0.55340  0.79508  Biso   1.000  C
  C73      1.0000 0.18280  0.90200  0.23579  Biso   1.000  C
  C74      1.0000 0.31720  0.09800  0.73579  Biso   1.000  C
  C75      1.0000 0.81720  0.40200  0.26421  Biso   1.000  C
  C76      1.0000 0.68280  0.59800  0.76421  Biso   1.000  C
  H53      1.0000 0.17360  0.92040  0.26260  Biso   1.000  H
  H54      1.0000 0.32640  0.07960  0.76260  Biso   1.000  H
  H55      1.0000 0.82640  0.42040  0.23740  Biso   1.000  H
  H56      1.0000 0.67360  0.57960  0.73740  Biso   1.000  H
  C77      1.0000 0.26090  0.82860  0.22664  Biso   1.000  C
  C78      1.0000 0.23910  0.17140  0.72664  Biso   1.000  C
  C79      1.0000 0.73910  0.32860  0.27336  Biso   1.000  C
  C80      1.0000 0.76090  0.67140  0.77336  Biso   1.000  C
  C81      1.0000 0.31390  0.77500  0.26255  Biso   1.000  C
  C82      1.0000 0.18610  0.22500  0.76255  Biso   1.000  C
  C83      1.0000 0.68610  0.27500  0.23745  Biso   1.000  C
  C84      1.0000 0.81390  0.72500  0.73745  Biso   1.000  C
  C85      1.0000 0.83370  0.02210  0.91559  Biso   1.000  C
  C86      1.0000 0.66630  0.97790  0.41559  Biso   1.000  C
  C87      1.0000 0.16630  0.52210  0.58441  Biso   1.000  C
  C88      1.0000 0.33370  0.47790  0.08441  Biso   1.000  C
  H57      1.0000 0.88520  0.99300  0.89490  Biso   1.000  H
  H58      1.0000 0.61480  0.00700  0.39490  Biso   1.000  H
  H59      1.0000 0.11480  0.49300  0.60510  Biso   1.000  H
  H60      1.0000 0.38520  0.50700  0.10510  Biso   1.000  H
  C89      1.0000 0.84770  0.00340  0.95626  Biso   1.000  C
  C90      1.0000 0.65230  0.99660  0.45626  Biso   1.000  C
  C91      1.0000 0.15230  0.50340  0.54374  Biso   1.000  C
  C92      1.0000 0.34770  0.49660  0.04374  Biso   1.000  C
  H61      1.0000 0.90690  0.96010  0.96770  Biso   1.000  H
  H62      1.0000 0.59310  0.03990  0.46770  Biso   1.000  H
  H63      1.0000 0.09310  0.46010  0.53230  Biso   1.000  H
  H64      1.0000 0.40690  0.53990  0.03230  Biso   1.000  H
  C93      1.0000 0.75770  0.06090  0.97655  Biso   1.000  C
  C94      1.0000 0.74230  0.93910  0.47655  Biso   1.000  C
  C95      1.0000 0.24230  0.56090  0.52345  Biso   1.000  C
  C96      1.0000 0.25770  0.43910  0.02345  Biso   1.000  C
  H65      1.0000 0.74500  0.06520  0.00470  Biso   1.000  H
  H66      1.0000 0.75500  0.93480  0.50470  Biso   1.000  H
  H67      1.0000 0.25500  0.56520  0.49530  Biso   1.000  H
  H68      1.0000 0.24500  0.43480  0.99530  Biso   1.000  H
  C97      1.0000 0.68770  0.11240  0.94675  Biso   1.000  C
  C98      1.0000 0.81230  0.88760  0.44675  Biso   1.000  C
  C99      1.0000 0.31230  0.61240  0.55325  Biso   1.000  C
  C100     1.0000 0.18770  0.38760  0.05325  Biso   1.000  C
  C101     1.0000 0.58790  0.17840  0.95337  Biso   1.000  C
  C102     1.0000 0.91210  0.82160  0.45337  Biso   1.000  C
  C103     1.0000 0.41210  0.67840  0.54663  Biso   1.000  C
  C104     1.0000 0.08790  0.32160  0.04663  Biso   1.000  C
  C105     1.0000 0.52620  0.22940  0.92309  Biso   1.000  C
  C106     1.0000 0.97380  0.77060  0.42309  Biso   1.000  C
  C107     1.0000 0.47380  0.72940  0.57691  Biso   1.000  C
  C108     1.0000 0.02620  0.27060  0.07691  Biso   1.000  C
  C109     1.0000 0.41120  0.29210  0.92743  Biso   1.000  C
  C110     1.0000 0.08880  0.70790  0.42743  Biso   1.000  C
  C111     1.0000 0.58880  0.79210  0.57257  Biso   1.000  C
  C112     1.0000 0.91120  0.20790  0.07257  Biso   1.000  C
  H69      1.0000 0.36470  0.30960  0.95170  Biso   1.000  H
  H70      1.0000 0.13530  0.69040  0.45170  Biso   1.000  H
  H71      1.0000 0.63530  0.80960  0.54830  Biso   1.000  H
  H72      1.0000 0.86470  0.19040  0.04830  Biso   1.000  H
  C113     1.0000 0.38030  0.32230  0.88989  Biso   1.000  C
  C114     1.0000 0.11970  0.67770  0.38989  Biso   1.000  C
  C115     1.0000 0.61970  0.82230  0.61011  Biso   1.000  C
  C116     1.0000 0.88030  0.17770  0.11011  Biso   1.000  C
  H73      1.0000 0.30880  0.36460  0.88310  Biso   1.000  H
  H74      1.0000 0.19120  0.63540  0.38310  Biso   1.000  H
  H75      1.0000 0.69120  0.86460  0.61690  Biso   1.000  H
  H76      1.0000 0.80880  0.13540  0.11690  Biso   1.000  H
  C117     1.0000 0.47600  0.27800  0.86350  Biso   1.000  C
  C118     1.0000 0.02400  0.72200  0.36350  Biso   1.000  C
  C119     1.0000 0.52400  0.77800  0.63650  Biso   1.000  C
  C120     1.0000 0.97600  0.22200  0.13650  Biso   1.000  C
  H77      1.0000 0.47850  0.28610  0.83540  Biso   1.000  H
  H78      1.0000 0.02150  0.71390  0.33540  Biso   1.000  H
  H79      1.0000 0.52150  0.78610  0.66460  Biso   1.000  H
  H80      1.0000 0.97850  0.21390  0.16460  Biso   1.000  H
  C121     1.0000 0.54100  0.19630  0.99496  Biso   1.000  C
  C122     1.0000 0.95900  0.80370  0.49496  Biso   1.000  C
  C123     1.0000 0.45900  0.69630  0.50504  Biso   1.000  C
  C124     1.0000 0.04100  0.30370  0.00504  Biso   1.000  C
  C125     1.0000 0.46940  0.13670  0.01885  Biso   1.000  C
  C126     1.0000 0.03060  0.86330  0.51885  Biso   1.000  C
  C127     1.0000 0.53060  0.63670  0.48115  Biso   1.000  C
  C128     1.0000 0.96940  0.36330  0.98115  Biso   1.000  C
  H81      1.0000 0.44320  0.08490  0.00740  Biso   1.000  H
  H82      1.0000 0.05680  0.91510  0.50740  Biso   1.000  H
  H83      1.0000 0.55680  0.58490  0.49260  Biso   1.000  H
  H84      1.0000 0.94320  0.41510  0.99260  Biso   1.000  H
  C129     1.0000 0.43570  0.15070  0.05856  Biso   1.000  C
  C130     1.0000 0.06430  0.84930  0.55856  Biso   1.000  C
  C131     1.0000 0.56430  0.65070  0.44144  Biso   1.000  C
  C132     1.0000 0.93570  0.34930  0.94144  Biso   1.000  C
  H85      1.0000 0.38590  0.10930  0.07400  Biso   1.000  H
  H86      1.0000 0.11410  0.89070  0.57400  Biso   1.000  H
  H87      1.0000 0.61410  0.60930  0.42600  Biso   1.000  H
  H88      1.0000 0.88590  0.39070  0.92600  Biso   1.000  H
  C133     1.0000 0.47570  0.22690  0.07606  Biso   1.000  C
  C134     1.0000 0.02430  0.77310  0.57606  Biso   1.000  C
  C135     1.0000 0.52430  0.72690  0.42394  Biso   1.000  C
  C136     1.0000 0.97570  0.27310  0.92394  Biso   1.000  C
  C137     1.0000 0.54090  0.28770  0.05193  Biso   1.000  C
  C138     1.0000 0.95910  0.71230  0.55193  Biso   1.000  C
  C139     1.0000 0.45910  0.78770  0.44807  Biso   1.000  C
  C140     1.0000 0.04090  0.21230  0.94807  Biso   1.000  C
  H89      1.0000 0.56320  0.34030  0.06310  Biso   1.000  H
  H90      1.0000 0.93680  0.65970  0.56310  Biso   1.000  H
  H91      1.0000 0.43680  0.84030  0.43690  Biso   1.000  H
  H92      1.0000 0.06320  0.15970  0.93690  Biso   1.000  H
  C141     1.0000 0.57340  0.27350  0.01273  Biso   1.000  C
  C142     1.0000 0.92660  0.72650  0.51273  Biso   1.000  C
  C143     1.0000 0.42660  0.77350  0.48727  Biso   1.000  C
  C144     1.0000 0.07340  0.22650  0.98727  Biso   1.000  C
  H93      1.0000 0.61860  0.31610  0.99710  Biso   1.000  H
  H94      1.0000 0.88140  0.68390  0.49710  Biso   1.000  H
  H95      1.0000 0.38140  0.81610  0.50290  Biso   1.000  H
  H96      1.0000 0.11860  0.18390  0.00290  Biso   1.000  H
  C145     1.0000 0.38400  0.15460  0.14826  Biso   1.000  C
  C146     1.0000 0.11600  0.84540  0.64826  Biso   1.000  C
  C147     1.0000 0.61600  0.65460  0.35174  Biso   1.000  C
  C148     1.0000 0.88400  0.34540  0.85174  Biso   1.000  C
  H97      1.0000 0.28260  0.14280  0.13660  Biso   1.000  H
  H98      1.0000 0.21740  0.85720  0.63660  Biso   1.000  H
  H99      1.0000 0.71740  0.64280  0.36340  Biso   1.000  H
  H100     1.0000 0.78260  0.35720  0.86340  Biso   1.000  H
  H101     1.0000 0.37360  0.16060  0.17730  Biso   1.000  H
  H102     1.0000 0.12640  0.83940  0.67730  Biso   1.000  H
  H103     1.0000 0.62640  0.66060  0.32270  Biso   1.000  H
  H104     1.0000 0.87360  0.33940  0.82270  Biso   1.000  H
  H105     1.0000 0.45480  0.10900  0.14230  Biso   1.000  H
  H106     1.0000 0.04520  0.89100  0.64230  Biso   1.000  H
  H107     1.0000 0.54520  0.60900  0.35770  Biso   1.000  H
  H108     1.0000 0.95480  0.39100  0.85770  Biso   1.000  H
  C149     1.0000 0.94580  0.97220  0.78477  Biso   1.000  C
  C150     1.0000 0.55420  0.02780  0.28477  Biso   1.000  C
  C151     1.0000 0.05420  0.47220  0.71523  Biso   1.000  C
  C152     1.0000 0.44580  0.52780  0.21523  Biso   1.000  C
  C153     1.0000 0.85460  0.05130  0.79522  Biso   1.000  C
  C154     1.0000 0.64540  0.94870  0.29522  Biso   1.000  C
  C155     1.0000 0.14540  0.55130  0.70478  Biso   1.000  C
  C156     1.0000 0.35460  0.44870  0.20478  Biso   1.000  C
  C157     1.0000 0.81660  0.10530  0.76483  Biso   1.000  C
  C158     1.0000 0.68340  0.89470  0.26483  Biso   1.000  C
  C159     1.0000 0.18340  0.60530  0.73517  Biso   1.000  C
  C160     1.0000 0.31660  0.39470  0.23517  Biso   1.000  C
  H109     1.0000 0.84590  0.09300  0.73820  Biso   1.000  H
  H110     1.0000 0.65410  0.90700  0.23820  Biso   1.000  H
  H111     1.0000 0.15410  0.59300  0.76180  Biso   1.000  H
  H112     1.0000 0.34590  0.40700  0.26180  Biso   1.000  H
  C161     1.0000 0.73570  0.17780  0.77294  Biso   1.000  C
  C162     1.0000 0.76430  0.82220  0.27294  Biso   1.000  C
  C163     1.0000 0.26430  0.67780  0.72706  Biso   1.000  C
  C164     1.0000 0.23570  0.32220  0.22706  Biso   1.000  C
  C165     1.0000 0.70280  0.23720  0.73836  Biso   1.000  C
  C166     1.0000 0.79720  0.76280  0.23836  Biso   1.000  C
  C167     1.0000 0.29720  0.73720  0.76164  Biso   1.000  C
  C168     1.0000 0.20280  0.26280  0.26164  Biso   1.000  C
  C169     1.0000 0.69170  0.91310  0.12450  Biso   1.000  C
  C170     1.0000 0.80830  0.08690  0.62450  Biso   1.000  C
  C171     1.0000 0.30830  0.41310  0.37550  Biso   1.000  C
  C172     1.0000 0.19170  0.58690  0.87550  Biso   1.000  C
  H113     1.0000 0.67000  0.85440  0.11860  Biso   1.000  H
  H114     1.0000 0.83000  0.14560  0.61860  Biso   1.000  H
  H115     1.0000 0.33000  0.35440  0.38140  Biso   1.000  H
  H116     1.0000 0.17000  0.64560  0.88140  Biso   1.000  H
  H117     1.0000 0.79850  0.91710  0.13490  Biso   1.000  H
  H118     1.0000 0.70150  0.08290  0.63490  Biso   1.000  H
  H119     1.0000 0.20150  0.41710  0.36510  Biso   1.000  H
  H120     1.0000 0.29850  0.58290  0.86510  Biso   1.000  H
  C173     1.0000 0.26820  0.08490  0.87742  Biso   1.000  C
  C174     1.0000 0.23180  0.91510  0.37742  Biso   1.000  C
  C175     1.0000 0.73180  0.58490  0.62258  Biso   1.000  C
  C176     1.0000 0.76820  0.41510  0.12258  Biso   1.000  C
  H121     1.0000 0.28880  0.14410  0.88260  Biso   1.000  H
  H122     1.0000 0.21120  0.85590  0.38260  Biso   1.000  H
  H123     1.0000 0.71120  0.64410  0.61740  Biso   1.000  H
  H124     1.0000 0.78880  0.35590  0.11740  Biso   1.000  H
  H125     1.0000 0.16090  0.07970  0.86750  Biso   1.000  H
  H126     1.0000 0.33910  0.92030  0.36750  Biso   1.000  H
  H127     1.0000 0.83910  0.57970  0.63250  Biso   1.000  H
  H128     1.0000 0.66090  0.42030  0.13250  Biso   1.000  H
  Cl1      1.0000 0.67600  0.97207  0.07996  Biso   1.000  Cl
  Cl2      1.0000 0.82400  0.02793  0.57996  Biso   1.000  Cl
  Cl3      1.0000 0.32400  0.47207  0.42004  Biso   1.000  Cl
  Cl4      1.0000 0.17600  0.52793  0.92004  Biso   1.000  Cl
  Cl5      1.0000 0.56076  0.94914  0.16098  Biso   1.000  Cl
  Cl6      1.0000 0.93924  0.05086  0.66098  Biso   1.000  Cl
  Cl7      1.0000 0.43924  0.44914  0.33902  Biso   1.000  Cl
  Cl8      1.0000 0.06076  0.55086  0.83902  Biso   1.000  Cl
  Cl9      1.0000 0.39908  0.04770  0.84059  Biso   1.000  Cl
  Cl10     1.0000 0.10092  0.95230  0.34059  Biso   1.000  Cl
  Cl11     1.0000 0.60092  0.54770  0.65941  Biso   1.000  Cl
  Cl12     1.0000 0.89908  0.45230  0.15941  Biso   1.000  Cl
  Cl13     1.0000 0.28888  0.02812  0.92216  Biso   1.000  Cl
  Cl14     1.0000 0.21112  0.97188  0.42216  Biso   1.000  Cl
  Cl15     1.0000 0.71112  0.52812  0.57784  Biso   1.000  Cl
  Cl16     1.0000 0.78888  0.47188  0.07784  Biso   1.000  Cl
  Cu1      1.0000 0.25469  0.85076  0.14023  Biso   1.000  Cu
  Cu2      1.0000 0.24531  0.14924  0.64023  Biso   1.000  Cu
  Cu3      1.0000 0.74531  0.35076  0.35977  Biso   1.000  Cu
  Cu4      1.0000 0.75469  0.64924  0.85977  Biso   1.000  Cu
  Cu5      1.0000 0.70856  0.14549  0.85923  Biso   1.000  Cu
  Cu6      1.0000 0.79144  0.85451  0.35923  Biso   1.000  Cu
  Cu7      1.0000 0.29144  0.64549  0.64077  Biso   1.000  Cu
  Cu8      1.0000 0.20856  0.35451  0.14077  Biso   1.000  Cu
  F1       1.0000 0.00190  0.03431  0.25448  Biso   1.000  F
  F2       1.0000 0.49810  0.96569  0.75448  Biso   1.000  F
  F3       1.0000 0.99810  0.53431  0.24552  Biso   1.000  F
  F4       1.0000 0.50190  0.46569  0.74552  Biso   1.000  F
  F5       1.0000 0.88110  0.01720  0.19939  Biso   1.000  F
  F6       1.0000 0.61890  0.98280  0.69939  Biso   1.000  F
  F7       1.0000 0.11890  0.51720  0.30061  Biso   1.000  F
  F8       1.0000 0.38110  0.48280  0.80061  Biso   1.000  F
  F9       1.0000 0.08660  0.09100  0.20076  Biso   1.000  F
  F10      1.0000 0.41340  0.90900  0.70076  Biso   1.000  F
  F11      1.0000 0.91340  0.59100  0.29924  Biso   1.000  F
  F12      1.0000 0.58660  0.40900  0.79924  Biso   1.000  F
  F13      1.0000 0.21440  0.71501  0.26982  Biso   1.000  F
  F14      1.0000 0.28560  0.28499  0.76982  Biso   1.000  F
  F15      1.0000 0.78560  0.21501  0.23018  Biso   1.000  F
  F16      1.0000 0.71440  0.78499  0.73018  Biso   1.000  F
  F17      1.0000 0.33150  0.81959  0.29581  Biso   1.000  F
  F18      1.0000 0.16850  0.18041  0.79581  Biso   1.000  F
  F19      1.0000 0.66850  0.31959  0.20419  Biso   1.000  F
  F20      1.0000 0.83150  0.68041  0.70419  Biso   1.000  F
  F21      1.0000 0.45030  0.73942  0.25547  Biso   1.000  F
  F22      1.0000 0.04970  0.26058  0.75547  Biso   1.000  F
  F23      1.0000 0.54970  0.23942  0.24453  Biso   1.000  F
  F24      1.0000 0.95030  0.76058  0.74453  Biso   1.000  F
  F25      1.0000 0.85490  0.90689  0.79054  Biso   1.000  F
  F26      1.0000 0.64510  0.09311  0.29054  Biso   1.000  F
  F27      1.0000 0.14510  0.40689  0.70946  Biso   1.000  F
  F28      1.0000 0.35490  0.59311  0.20946  Biso   1.000  F
  F29      1.0000 0.99240  0.96985  0.74730  Biso   1.000  F
  F30      1.0000 0.50760  0.03015  0.24730  Biso   1.000  F
  F31      1.0000 0.00760  0.46985  0.75270  Biso   1.000  F
  F32      1.0000 0.49240  0.53015  0.25270  Biso   1.000  F
  F33      1.0000 0.06700  0.96367  0.80824  Biso   1.000  F
  F34      1.0000 0.43300  0.03633  0.30824  Biso   1.000  F
  F35      1.0000 0.93300  0.46367  0.69176  Biso   1.000  F
  F36      1.0000 0.56700  0.53633  0.19176  Biso   1.000  F
  F37      1.0000 0.76700  0.21322  0.70442  Biso   1.000  F
  F38      1.0000 0.73300  0.78678  0.20442  Biso   1.000  F
  F39      1.0000 0.23300  0.71322  0.79558  Biso   1.000  F
  F40      1.0000 0.26700  0.28678  0.29558  Biso   1.000  F
  F41      1.0000 0.76000  0.31231  0.74579  Biso   1.000  F
  F42      1.0000 0.74000  0.68769  0.24579  Biso   1.000  F
  F43      1.0000 0.24000  0.81231  0.75421  Biso   1.000  F
  F44      1.0000 0.26000  0.18769  0.25421  Biso   1.000  F
  F45      1.0000 0.55270  0.24759  0.73307  Biso   1.000  F
  F46      1.0000 0.94730  0.75241  0.23307  Biso   1.000  F
  F47      1.0000 0.44730  0.74759  0.76693  Biso   1.000  F
  F48      1.0000 0.05270  0.25241  0.26693  Biso   1.000  F
  N1       1.0000 0.22620  0.91103  0.09053  Biso   1.000  N
  N2       1.0000 0.27380  0.08897  0.59053  Biso   1.000  N
  N3       1.0000 0.77380  0.41103  0.40947  Biso   1.000  N
  N4       1.0000 0.72620  0.58897  0.90947  Biso   1.000  N
  N5       1.0000 0.40180  0.77466  0.11635  Biso   1.000  N
  N6       1.0000 0.09820  0.22534  0.61635  Biso   1.000  N
  N7       1.0000 0.59820  0.27466  0.38365  Biso   1.000  N
  N8       1.0000 0.90180  0.72534  0.88365  Biso   1.000  N
  N9       1.0000 0.73820  0.08648  0.90941  Biso   1.000  N
  N10      1.0000 0.76180  0.91352  0.40941  Biso   1.000  N
  N11      1.0000 0.26180  0.58648  0.59059  Biso   1.000  N
  N12      1.0000 0.23820  0.41352  0.09059  Biso   1.000  N
  N13      1.0000 0.56400  0.22244  0.88335  Biso   1.000  N
  N14      1.0000 0.93600  0.77756  0.38335  Biso   1.000  N
  N15      1.0000 0.43600  0.72244  0.61665  Biso   1.000  N
  N16      1.0000 0.06400  0.27756  0.11665  Biso   1.000  N
  O1       1.0000 0.12760  0.93497  0.16806  Biso   1.000  O
  O2       1.0000 0.37240  0.06503  0.66806  Biso   1.000  O
  O3       1.0000 0.87240  0.43497  0.33194  Biso   1.000  O
  O4       1.0000 0.62760  0.56503  0.83194  Biso   1.000  O
  O5       1.0000 0.29130  0.79832  0.19341  Biso   1.000  O
  O6       1.0000 0.20870  0.20168  0.69341  Biso   1.000  O
  O7       1.0000 0.70870  0.29832  0.30659  Biso   1.000  O
  O8       1.0000 0.79130  0.70168  0.80659  Biso   1.000  O
  O9       1.0000 0.82550  0.05745  0.83170  Biso   1.000  O
  O10      1.0000 0.67450  0.94255  0.33170  Biso   1.000  O
  O11      1.0000 0.17450  0.55745  0.66830  Biso   1.000  O
  O12      1.0000 0.32550  0.44255  0.16830  Biso   1.000  O
  O13      1.0000 0.68530  0.20161  0.80628  Biso   1.000  O
  O14      1.0000 0.81470  0.79839  0.30628  Biso   1.000  O
  O15      1.0000 0.31470  0.70161  0.69372  Biso   1.000  O
  O16      1.0000 0.18530  0.29839  0.19372  Biso   1.000  O
  S1       1.0000 0.50739  0.75435  0.87179  Biso   1.000  S
  S2       1.0000 0.99261  0.24565  0.37179  Biso   1.000  S
  S3       1.0000 0.49261  0.25435  0.62821  Biso   1.000  S
  S4       1.0000 0.00739  0.74565  0.12821  Biso   1.000  S
  S5       1.0000 0.45913  0.24862  0.12747  Biso   1.000  S
  S6       1.0000 0.04087  0.75138  0.62747  Biso   1.000  S
  S7       1.0000 0.54087  0.74862  0.37253  Biso   1.000  S
  S8       1.0000 0.95913  0.25138  0.87253  Biso   1.000  S
