data_image0
_cell_length_a       25.6114
_cell_length_b       18.3781
_cell_length_c       16.518
_cell_angle_alpha    90
_cell_angle_beta     124.061
_cell_angle_gamma    90

_symmetry_space_group_name_H-M    "P 1"
_symmetry_int_tables_number       1

loop_
  _symmetry_equiv_pos_as_xyz
  'x, y, z'

loop_
  _atom_site_label
  _atom_site_occupancy
  _atom_site_fract_x
  _atom_site_fract_y
  _atom_site_fract_z
  _atom_site_thermal_displace_type
  _atom_site_B_iso_or_equiv
  _atom_site_type_symbol
  Cu1      1.0000 0.11734  0.19556  0.61545  Biso   1.000  Cu
  Cu2      1.0000 0.61734  0.69556  0.61545  Biso   1.000  Cu
  Cu3      1.0000 0.11734  0.80444  0.11545  Biso   1.000  Cu
  Cu4      1.0000 0.61734  0.30444  0.11545  Biso   1.000  Cu
  Cu5      1.0000 0.88266  0.80444  0.38455  Biso   1.000  Cu
  Cu6      1.0000 0.38266  0.30444  0.38455  Biso   1.000  Cu
  Cu7      1.0000 0.88266  0.19556  0.88455  Biso   1.000  Cu
  Cu8      1.0000 0.38266  0.69556  0.88455  Biso   1.000  Cu
  N1       1.0000 0.10930  0.28790  0.67740  Biso   1.000  N
  N2       1.0000 0.60930  0.78790  0.67740  Biso   1.000  N
  N3       1.0000 0.10930  0.71210  0.17740  Biso   1.000  N
  N4       1.0000 0.60930  0.21210  0.17740  Biso   1.000  N
  N5       1.0000 0.89070  0.71210  0.32260  Biso   1.000  N
  N6       1.0000 0.39070  0.21210  0.32260  Biso   1.000  N
  N7       1.0000 0.89070  0.28790  0.82260  Biso   1.000  N
  N8       1.0000 0.39070  0.78790  0.82260  Biso   1.000  N
  N9       1.0000 0.10770  0.14890  0.71660  Biso   1.000  N
  N10      1.0000 0.60770  0.64890  0.71660  Biso   1.000  N
  N11      1.0000 0.10770  0.85110  0.21660  Biso   1.000  N
  N12      1.0000 0.60770  0.35110  0.21660  Biso   1.000  N
  N13      1.0000 0.89230  0.85110  0.28340  Biso   1.000  N
  N14      1.0000 0.39230  0.35110  0.28340  Biso   1.000  N
  N15      1.0000 0.89230  0.14890  0.78340  Biso   1.000  N
  N16      1.0000 0.39230  0.64890  0.78340  Biso   1.000  N
  P1       1.0000 0.16058  0.04872  0.55892  Biso   1.000  P
  P2       1.0000 0.66058  0.54872  0.55892  Biso   1.000  P
  P3       1.0000 0.16058  0.95128  0.05892  Biso   1.000  P
  P4       1.0000 0.66058  0.45128  0.05892  Biso   1.000  P
  P5       1.0000 0.83942  0.95128  0.44108  Biso   1.000  P
  P6       1.0000 0.33942  0.45128  0.44108  Biso   1.000  P
  P7       1.0000 0.83942  0.04872  0.94108  Biso   1.000  P
  P8       1.0000 0.33942  0.54872  0.94108  Biso   1.000  P
  P9       1.0000 0.97131  0.13397  0.41355  Biso   1.000  P
  P10      1.0000 0.47131  0.63397  0.41355  Biso   1.000  P
  P11      1.0000 0.97131  0.86603  0.91355  Biso   1.000  P
  P12      1.0000 0.47131  0.36603  0.91355  Biso   1.000  P
  P13      1.0000 0.02869  0.86603  0.58645  Biso   1.000  P
  P14      1.0000 0.52869  0.36603  0.58645  Biso   1.000  P
  P15      1.0000 0.02869  0.13397  0.08645  Biso   1.000  P
  P16      1.0000 0.52869  0.63397  0.08645  Biso   1.000  P
  P17      1.0000 0.82815  0.73488  0.50073  Biso   1.000  P
  P18      1.0000 0.32815  0.23488  0.50073  Biso   1.000  P
  P19      1.0000 0.82815  0.26512  0.00073  Biso   1.000  P
  P20      1.0000 0.32815  0.76512  0.00073  Biso   1.000  P
  P21      1.0000 0.17185  0.26512  0.49927  Biso   1.000  P
  P22      1.0000 0.67185  0.76512  0.49927  Biso   1.000  P
  P23      1.0000 0.17185  0.73488  0.99927  Biso   1.000  P
  P24      1.0000 0.67185  0.23488  0.99927  Biso   1.000  P
  O1       1.0000 0.17000  0.11430  0.62080  Biso   1.000  O
  O2       1.0000 0.67000  0.61430  0.62080  Biso   1.000  O
  O3       1.0000 0.17000  0.88570  0.12080  Biso   1.000  O
  O4       1.0000 0.67000  0.38570  0.12080  Biso   1.000  O
  O5       1.0000 0.83000  0.88570  0.37920  Biso   1.000  O
  O6       1.0000 0.33000  0.38570  0.37920  Biso   1.000  O
  O7       1.0000 0.83000  0.11430  0.87920  Biso   1.000  O
  O8       1.0000 0.33000  0.61430  0.87920  Biso   1.000  O
  O9       1.0000 0.16390  0.06900  0.47040  Biso   1.000  O
  O10      1.0000 0.66390  0.56900  0.47040  Biso   1.000  O
  O11      1.0000 0.16390  0.93100  0.97040  Biso   1.000  O
  O12      1.0000 0.66390  0.43100  0.97040  Biso   1.000  O
  O13      1.0000 0.83610  0.93100  0.52960  Biso   1.000  O
  O14      1.0000 0.33610  0.43100  0.52960  Biso   1.000  O
  O15      1.0000 0.83610  0.06900  0.02960  Biso   1.000  O
  O16      1.0000 0.33610  0.56900  0.02960  Biso   1.000  O
  H1       1.0000 0.16300  0.10700  0.46400  Biso   1.000  H
  H2       1.0000 0.66300  0.60700  0.46400  Biso   1.000  H
  H3       1.0000 0.16300  0.89300  0.96400  Biso   1.000  H
  H4       1.0000 0.66300  0.39300  0.96400  Biso   1.000  H
  H5       1.0000 0.83700  0.89300  0.53600  Biso   1.000  H
  H6       1.0000 0.33700  0.39300  0.53600  Biso   1.000  H
  H7       1.0000 0.83700  0.10700  0.03600  Biso   1.000  H
  H8       1.0000 0.33700  0.60700  0.03600  Biso   1.000  H
  O17      1.0000 0.09980  0.00660  0.52020  Biso   1.000  O
  O18      1.0000 0.59980  0.50660  0.52020  Biso   1.000  O
  O19      1.0000 0.09980  0.99340  0.02020  Biso   1.000  O
  O20      1.0000 0.59980  0.49340  0.02020  Biso   1.000  O
  O21      1.0000 0.90020  0.99340  0.47980  Biso   1.000  O
  O22      1.0000 0.40020  0.49340  0.47980  Biso   1.000  O
  O23      1.0000 0.90020  0.00660  0.97980  Biso   1.000  O
  O24      1.0000 0.40020  0.50660  0.97980  Biso   1.000  O
  O25      1.0000 0.01840  0.16100  0.51120  Biso   1.000  O
  O26      1.0000 0.51840  0.66100  0.51120  Biso   1.000  O
  O27      1.0000 0.01840  0.83900  0.01120  Biso   1.000  O
  O28      1.0000 0.51840  0.33900  0.01120  Biso   1.000  O
  O29      1.0000 0.98160  0.83900  0.48880  Biso   1.000  O
  O30      1.0000 0.48160  0.33900  0.48880  Biso   1.000  O
  O31      1.0000 0.98160  0.16100  0.98880  Biso   1.000  O
  O32      1.0000 0.48160  0.66100  0.98880  Biso   1.000  O
  O33      1.0000 0.99520  0.06880  0.38120  Biso   1.000  O
  O34      1.0000 0.49520  0.56880  0.38120  Biso   1.000  O
  O35      1.0000 0.99520  0.93120  0.88120  Biso   1.000  O
  O36      1.0000 0.49520  0.43120  0.88120  Biso   1.000  O
  O37      1.0000 0.00480  0.93120  0.61880  Biso   1.000  O
  O38      1.0000 0.50480  0.43120  0.61880  Biso   1.000  O
  O39      1.0000 0.00480  0.06880  0.11880  Biso   1.000  O
  O40      1.0000 0.50480  0.56880  0.11880  Biso   1.000  O
  H9       1.0000 0.02200  0.04900  0.42600  Biso   1.000  H
  H10      1.0000 0.52200  0.54900  0.42600  Biso   1.000  H
  H11      1.0000 0.02200  0.95100  0.92600  Biso   1.000  H
  H12      1.0000 0.52200  0.45100  0.92600  Biso   1.000  H
  H13      1.0000 0.97800  0.95100  0.57400  Biso   1.000  H
  H14      1.0000 0.47800  0.45100  0.57400  Biso   1.000  H
  H15      1.0000 0.97800  0.04900  0.07400  Biso   1.000  H
  H16      1.0000 0.47800  0.54900  0.07400  Biso   1.000  H
  O41      1.0000 0.90820  0.10940  0.39920  Biso   1.000  O
  O42      1.0000 0.40820  0.60940  0.39920  Biso   1.000  O
  O43      1.0000 0.90820  0.89060  0.89920  Biso   1.000  O
  O44      1.0000 0.40820  0.39060  0.89920  Biso   1.000  O
  O45      1.0000 0.09180  0.89060  0.60080  Biso   1.000  O
  O46      1.0000 0.59180  0.39060  0.60080  Biso   1.000  O
  O47      1.0000 0.09180  0.10940  0.10080  Biso   1.000  O
  O48      1.0000 0.59180  0.60940  0.10080  Biso   1.000  O
  H17      1.0000 0.90900  0.06200  0.43100  Biso   1.000  H
  H18      1.0000 0.40900  0.56200  0.43100  Biso   1.000  H
  H19      1.0000 0.90900  0.93800  0.93100  Biso   1.000  H
  H20      1.0000 0.40900  0.43800  0.93100  Biso   1.000  H
  H21      1.0000 0.09100  0.93800  0.56900  Biso   1.000  H
  H22      1.0000 0.59100  0.43800  0.56900  Biso   1.000  H
  H23      1.0000 0.09100  0.06200  0.06900  Biso   1.000  H
  H24      1.0000 0.59100  0.56200  0.06900  Biso   1.000  H
  O49      1.0000 0.87750  0.74640  0.47910  Biso   1.000  O
  O50      1.0000 0.37750  0.24640  0.47910  Biso   1.000  O
  O51      1.0000 0.87750  0.25360  0.97910  Biso   1.000  O
  O52      1.0000 0.37750  0.75360  0.97910  Biso   1.000  O
  O53      1.0000 0.12250  0.25360  0.52090  Biso   1.000  O
  O54      1.0000 0.62250  0.75360  0.52090  Biso   1.000  O
  O55      1.0000 0.12250  0.74640  0.02090  Biso   1.000  O
  O56      1.0000 0.62250  0.24640  0.02090  Biso   1.000  O
  O57      1.0000 0.82110  0.79530  0.55610  Biso   1.000  O
  O58      1.0000 0.32110  0.29530  0.55610  Biso   1.000  O
  O59      1.0000 0.82110  0.20470  0.05610  Biso   1.000  O
  O60      1.0000 0.32110  0.70470  0.05610  Biso   1.000  O
  O61      1.0000 0.17890  0.20470  0.44390  Biso   1.000  O
  O62      1.0000 0.67890  0.70470  0.44390  Biso   1.000  O
  O63      1.0000 0.17890  0.79530  0.94390  Biso   1.000  O
  O64      1.0000 0.67890  0.29530  0.94390  Biso   1.000  O
  H25      1.0000 0.82200  0.82600  0.54300  Biso   1.000  H
  H26      1.0000 0.32200  0.32600  0.54300  Biso   1.000  H
  H27      1.0000 0.82200  0.17400  0.04300  Biso   1.000  H
  H28      1.0000 0.32200  0.67400  0.04300  Biso   1.000  H
  H29      1.0000 0.17800  0.17400  0.45700  Biso   1.000  H
  H30      1.0000 0.67800  0.67400  0.45700  Biso   1.000  H
  H31      1.0000 0.17800  0.82600  0.95700  Biso   1.000  H
  H32      1.0000 0.67800  0.32600  0.95700  Biso   1.000  H
  O65      1.0000 0.76330  0.71910  0.40150  Biso   1.000  O
  O66      1.0000 0.26330  0.21910  0.40150  Biso   1.000  O
  O67      1.0000 0.76330  0.28090  0.90150  Biso   1.000  O
  O68      1.0000 0.26330  0.78090  0.90150  Biso   1.000  O
  O69      1.0000 0.23670  0.28090  0.59850  Biso   1.000  O
  O70      1.0000 0.73670  0.78090  0.59850  Biso   1.000  O
  O71      1.0000 0.23670  0.71910  0.09850  Biso   1.000  O
  O72      1.0000 0.73670  0.21910  0.09850  Biso   1.000  O
  C1       1.0000 0.11220  0.35710  0.65810  Biso   1.000  C
  C2       1.0000 0.61220  0.85710  0.65810  Biso   1.000  C
  C3       1.0000 0.11220  0.64290  0.15810  Biso   1.000  C
  C4       1.0000 0.61220  0.14290  0.15810  Biso   1.000  C
  C5       1.0000 0.88780  0.64290  0.34190  Biso   1.000  C
  C6       1.0000 0.38780  0.14290  0.34190  Biso   1.000  C
  C7       1.0000 0.88780  0.35710  0.84190  Biso   1.000  C
  C8       1.0000 0.38780  0.85710  0.84190  Biso   1.000  C
  H33      1.0000 0.11800  0.37300  0.61300  Biso   1.000  H
  H34      1.0000 0.61800  0.87300  0.61300  Biso   1.000  H
  H35      1.0000 0.11800  0.62700  0.11300  Biso   1.000  H
  H36      1.0000 0.61800  0.12700  0.11300  Biso   1.000  H
  H37      1.0000 0.88200  0.62700  0.38700  Biso   1.000  H
  H38      1.0000 0.38200  0.12700  0.38700  Biso   1.000  H
  H39      1.0000 0.88200  0.37300  0.88700  Biso   1.000  H
  H40      1.0000 0.38200  0.87300  0.88700  Biso   1.000  H
  C9       1.0000 0.10490  0.41390  0.70680  Biso   1.000  C
  C10      1.0000 0.60490  0.91390  0.70680  Biso   1.000  C
  C11      1.0000 0.10490  0.58610  0.20680  Biso   1.000  C
  C12      1.0000 0.60490  0.08610  0.20680  Biso   1.000  C
  C13      1.0000 0.89510  0.58610  0.29320  Biso   1.000  C
  C14      1.0000 0.39510  0.08610  0.29320  Biso   1.000  C
  C15      1.0000 0.89510  0.41390  0.79320  Biso   1.000  C
  C16      1.0000 0.39510  0.91390  0.79320  Biso   1.000  C
  H41      1.0000 0.10600  0.46100  0.69200  Biso   1.000  H
  H42      1.0000 0.60600  0.96100  0.69200  Biso   1.000  H
  H43      1.0000 0.10600  0.53900  0.19200  Biso   1.000  H
  H44      1.0000 0.60600  0.03900  0.19200  Biso   1.000  H
  H45      1.0000 0.89400  0.53900  0.30800  Biso   1.000  H
  H46      1.0000 0.39400  0.03900  0.30800  Biso   1.000  H
  H47      1.0000 0.89400  0.46100  0.80800  Biso   1.000  H
  H48      1.0000 0.39400  0.96100  0.80800  Biso   1.000  H
  C17      1.0000 0.09360  0.39910  0.77690  Biso   1.000  C
  C18      1.0000 0.59360  0.89910  0.77690  Biso   1.000  C
  C19      1.0000 0.09360  0.60090  0.27690  Biso   1.000  C
  C20      1.0000 0.59360  0.10090  0.27690  Biso   1.000  C
  C21      1.0000 0.90640  0.60090  0.22310  Biso   1.000  C
  C22      1.0000 0.40640  0.10090  0.22310  Biso   1.000  C
  C23      1.0000 0.90640  0.39910  0.72310  Biso   1.000  C
  C24      1.0000 0.40640  0.89910  0.72310  Biso   1.000  C
  H49      1.0000 0.08400  0.43400  0.80500  Biso   1.000  H
  H50      1.0000 0.58400  0.93400  0.80500  Biso   1.000  H
  H51      1.0000 0.08400  0.56600  0.30500  Biso   1.000  H
  H52      1.0000 0.58400  0.06600  0.30500  Biso   1.000  H
  H53      1.0000 0.91600  0.56600  0.19500  Biso   1.000  H
  H54      1.0000 0.41600  0.06600  0.19500  Biso   1.000  H
  H55      1.0000 0.91600  0.43400  0.69500  Biso   1.000  H
  H56      1.0000 0.41600  0.93400  0.69500  Biso   1.000  H
  C25      1.0000 0.08890  0.32690  0.79790  Biso   1.000  C
  C26      1.0000 0.58890  0.82690  0.79790  Biso   1.000  C
  C27      1.0000 0.08890  0.67310  0.29790  Biso   1.000  C
  C28      1.0000 0.58890  0.17310  0.29790  Biso   1.000  C
  C29      1.0000 0.91110  0.67310  0.20210  Biso   1.000  C
  C30      1.0000 0.41110  0.17310  0.20210  Biso   1.000  C
  C31      1.0000 0.91110  0.32690  0.70210  Biso   1.000  C
  C32      1.0000 0.41110  0.82690  0.70210  Biso   1.000  C
  C33      1.0000 0.07560  0.30410  0.86830  Biso   1.000  C
  C34      1.0000 0.57560  0.80410  0.86830  Biso   1.000  C
  C35      1.0000 0.07560  0.69590  0.36830  Biso   1.000  C
  C36      1.0000 0.57560  0.19590  0.36830  Biso   1.000  C
  C37      1.0000 0.92440  0.69590  0.13170  Biso   1.000  C
  C38      1.0000 0.42440  0.19590  0.13170  Biso   1.000  C
  C39      1.0000 0.92440  0.30410  0.63170  Biso   1.000  C
  C40      1.0000 0.42440  0.80410  0.63170  Biso   1.000  C
  H57      1.0000 0.07400  0.34500  0.90400  Biso   1.000  H
  H58      1.0000 0.57400  0.84500  0.90400  Biso   1.000  H
  H59      1.0000 0.07400  0.65500  0.40400  Biso   1.000  H
  H60      1.0000 0.57400  0.15500  0.40400  Biso   1.000  H
  H61      1.0000 0.92600  0.65500  0.09600  Biso   1.000  H
  H62      1.0000 0.42600  0.15500  0.09600  Biso   1.000  H
  H63      1.0000 0.92600  0.34500  0.59600  Biso   1.000  H
  H64      1.0000 0.42600  0.84500  0.59600  Biso   1.000  H
  C41      1.0000 0.07220  0.23410  0.88430  Biso   1.000  C
  C42      1.0000 0.57220  0.73410  0.88430  Biso   1.000  C
  C43      1.0000 0.07220  0.76590  0.38430  Biso   1.000  C
  C44      1.0000 0.57220  0.26590  0.38430  Biso   1.000  C
  C45      1.0000 0.92780  0.76590  0.11570  Biso   1.000  C
  C46      1.0000 0.42780  0.26590  0.11570  Biso   1.000  C
  C47      1.0000 0.92780  0.23410  0.61570  Biso   1.000  C
  C48      1.0000 0.42780  0.73410  0.61570  Biso   1.000  C
  H65      1.0000 0.07300  0.22100  0.92800  Biso   1.000  H
  H66      1.0000 0.57300  0.72100  0.92800  Biso   1.000  H
  H67      1.0000 0.07300  0.77900  0.42800  Biso   1.000  H
  H68      1.0000 0.57300  0.27900  0.42800  Biso   1.000  H
  H69      1.0000 0.92700  0.77900  0.07200  Biso   1.000  H
  H70      1.0000 0.42700  0.27900  0.07200  Biso   1.000  H
  H71      1.0000 0.92700  0.22100  0.57200  Biso   1.000  H
  H72      1.0000 0.42700  0.72100  0.57200  Biso   1.000  H
  C49      1.0000 0.08170  0.17680  0.83400  Biso   1.000  C
  C50      1.0000 0.58170  0.67680  0.83400  Biso   1.000  C
  C51      1.0000 0.08170  0.82320  0.33400  Biso   1.000  C
  C52      1.0000 0.58170  0.32320  0.33400  Biso   1.000  C
  C53      1.0000 0.91830  0.82320  0.16600  Biso   1.000  C
  C54      1.0000 0.41830  0.32320  0.16600  Biso   1.000  C
  C55      1.0000 0.91830  0.17680  0.66600  Biso   1.000  C
  C56      1.0000 0.41830  0.67680  0.66600  Biso   1.000  C
  C57      1.0000 0.07840  0.10210  0.84720  Biso   1.000  C
  C58      1.0000 0.57840  0.60210  0.84720  Biso   1.000  C
  C59      1.0000 0.07840  0.89790  0.34720  Biso   1.000  C
  C60      1.0000 0.57840  0.39790  0.34720  Biso   1.000  C
  C61      1.0000 0.92160  0.89790  0.15280  Biso   1.000  C
  C62      1.0000 0.42160  0.39790  0.15280  Biso   1.000  C
  C63      1.0000 0.92160  0.10210  0.65280  Biso   1.000  C
  C64      1.0000 0.42160  0.60210  0.65280  Biso   1.000  C
  H73      1.0000 0.07600  0.08900  0.90100  Biso   1.000  H
  H74      1.0000 0.57600  0.58900  0.90100  Biso   1.000  H
  H75      1.0000 0.07600  0.91100  0.40100  Biso   1.000  H
  H76      1.0000 0.57600  0.41100  0.40100  Biso   1.000  H
  H77      1.0000 0.92400  0.91100  0.09900  Biso   1.000  H
  H78      1.0000 0.42400  0.41100  0.09900  Biso   1.000  H
  H79      1.0000 0.92400  0.08900  0.59900  Biso   1.000  H
  H80      1.0000 0.42400  0.58900  0.59900  Biso   1.000  H
  C65      1.0000 0.08990  0.05400  0.79650  Biso   1.000  C
  C66      1.0000 0.58990  0.55400  0.79650  Biso   1.000  C
  C67      1.0000 0.08990  0.94600  0.29650  Biso   1.000  C
  C68      1.0000 0.58990  0.44600  0.29650  Biso   1.000  C
  C69      1.0000 0.91010  0.94600  0.20350  Biso   1.000  C
  C70      1.0000 0.41010  0.44600  0.20350  Biso   1.000  C
  C71      1.0000 0.91010  0.05400  0.70350  Biso   1.000  C
  C72      1.0000 0.41010  0.55400  0.70350  Biso   1.000  C
  H81      1.0000 0.08800  0.01200  0.80100  Biso   1.000  H
  H82      1.0000 0.58800  0.51200  0.80100  Biso   1.000  H
  H83      1.0000 0.08800  0.98800  0.30100  Biso   1.000  H
  H84      1.0000 0.58800  0.48800  0.30100  Biso   1.000  H
  H85      1.0000 0.91200  0.98800  0.19900  Biso   1.000  H
  H86      1.0000 0.41200  0.48800  0.19900  Biso   1.000  H
  H87      1.0000 0.91200  0.01200  0.69900  Biso   1.000  H
  H88      1.0000 0.41200  0.51200  0.69900  Biso   1.000  H
  C73      1.0000 0.10340  0.07800  0.73020  Biso   1.000  C
  C74      1.0000 0.60340  0.57800  0.73020  Biso   1.000  C
  C75      1.0000 0.10340  0.92200  0.23020  Biso   1.000  C
  C76      1.0000 0.60340  0.42200  0.23020  Biso   1.000  C
  C77      1.0000 0.89660  0.92200  0.26980  Biso   1.000  C
  C78      1.0000 0.39660  0.42200  0.26980  Biso   1.000  C
  C79      1.0000 0.89660  0.07800  0.76980  Biso   1.000  C
  C80      1.0000 0.39660  0.57800  0.76980  Biso   1.000  C
  H89      1.0000 0.10900  0.04300  0.69100  Biso   1.000  H
  H90      1.0000 0.60900  0.54300  0.69100  Biso   1.000  H
  H91      1.0000 0.10900  0.95700  0.19100  Biso   1.000  H
  H92      1.0000 0.60900  0.45700  0.19100  Biso   1.000  H
  H93      1.0000 0.89100  0.95700  0.30900  Biso   1.000  H
  H94      1.0000 0.39100  0.45700  0.30900  Biso   1.000  H
  H95      1.0000 0.89100  0.04300  0.80900  Biso   1.000  H
  H96      1.0000 0.39100  0.54300  0.80900  Biso   1.000  H
  C81      1.0000 0.09620  0.19750  0.76710  Biso   1.000  C
  C82      1.0000 0.59620  0.69750  0.76710  Biso   1.000  C
  C83      1.0000 0.09620  0.80250  0.26710  Biso   1.000  C
  C84      1.0000 0.59620  0.30250  0.26710  Biso   1.000  C
  C85      1.0000 0.90380  0.80250  0.23290  Biso   1.000  C
  C86      1.0000 0.40380  0.30250  0.23290  Biso   1.000  C
  C87      1.0000 0.90380  0.19750  0.73290  Biso   1.000  C
  C88      1.0000 0.40380  0.69750  0.73290  Biso   1.000  C
  C89      1.0000 0.09770  0.27280  0.74640  Biso   1.000  C
  C90      1.0000 0.59770  0.77280  0.74640  Biso   1.000  C
  C91      1.0000 0.09770  0.72720  0.24640  Biso   1.000  C
  C92      1.0000 0.59770  0.22720  0.24640  Biso   1.000  C
  C93      1.0000 0.90230  0.72720  0.25360  Biso   1.000  C
  C94      1.0000 0.40230  0.22720  0.25360  Biso   1.000  C
  C95      1.0000 0.90230  0.27280  0.75360  Biso   1.000  C
  C96      1.0000 0.40230  0.77280  0.75360  Biso   1.000  C
  C97      1.0000 0.22680  0.98880  0.63640  Biso   1.000  C
  C98      1.0000 0.72680  0.48880  0.63640  Biso   1.000  C
  C99      1.0000 0.22680  0.01120  0.13640  Biso   1.000  C
  C100     1.0000 0.72680  0.51120  0.13640  Biso   1.000  C
  C101     1.0000 0.77320  0.01120  0.36360  Biso   1.000  C
  C102     1.0000 0.27320  0.51120  0.36360  Biso   1.000  C
  C103     1.0000 0.77320  0.98880  0.86360  Biso   1.000  C
  C104     1.0000 0.27320  0.48880  0.86360  Biso   1.000  C
  H97      1.0000 0.25900  0.01600  0.65000  Biso   1.000  H
  H98      1.0000 0.75900  0.51600  0.65000  Biso   1.000  H
  H99      1.0000 0.25900  0.98400  0.15000  Biso   1.000  H
  H100     1.0000 0.75900  0.48400  0.15000  Biso   1.000  H
  H101     1.0000 0.74100  0.98400  0.35000  Biso   1.000  H
  H102     1.0000 0.24100  0.48400  0.35000  Biso   1.000  H
  H103     1.0000 0.74100  0.01600  0.85000  Biso   1.000  H
  H104     1.0000 0.24100  0.51600  0.85000  Biso   1.000  H
  H105     1.0000 0.22800  0.97600  0.69500  Biso   1.000  H
  H106     1.0000 0.72800  0.47600  0.69500  Biso   1.000  H
  H107     1.0000 0.22800  0.02400  0.19500  Biso   1.000  H
  H108     1.0000 0.72800  0.52400  0.19500  Biso   1.000  H
  H109     1.0000 0.77200  0.02400  0.30500  Biso   1.000  H
  H110     1.0000 0.27200  0.52400  0.30500  Biso   1.000  H
  H111     1.0000 0.77200  0.97600  0.80500  Biso   1.000  H
  H112     1.0000 0.27200  0.47600  0.80500  Biso   1.000  H
  C105     1.0000 0.23090  0.91780  0.59200  Biso   1.000  C
  C106     1.0000 0.73090  0.41780  0.59200  Biso   1.000  C
  C107     1.0000 0.23090  0.08220  0.09200  Biso   1.000  C
  C108     1.0000 0.73090  0.58220  0.09200  Biso   1.000  C
  C109     1.0000 0.76910  0.08220  0.40800  Biso   1.000  C
  C110     1.0000 0.26910  0.58220  0.40800  Biso   1.000  C
  C111     1.0000 0.76910  0.91780  0.90800  Biso   1.000  C
  C112     1.0000 0.26910  0.41780  0.90800  Biso   1.000  C
  C113     1.0000 0.24310  0.91660  0.52070  Biso   1.000  C
  C114     1.0000 0.74310  0.41660  0.52070  Biso   1.000  C
  C115     1.0000 0.24310  0.08340  0.02070  Biso   1.000  C
  C116     1.0000 0.74310  0.58340  0.02070  Biso   1.000  C
  C117     1.0000 0.75690  0.08340  0.47930  Biso   1.000  C
  C118     1.0000 0.25690  0.58340  0.47930  Biso   1.000  C
  C119     1.0000 0.75690  0.91660  0.97930  Biso   1.000  C
  C120     1.0000 0.25690  0.41660  0.97930  Biso   1.000  C
  H113     1.0000 0.24400  0.95500  0.49800  Biso   1.000  H
  H114     1.0000 0.74400  0.45500  0.49800  Biso   1.000  H
  H115     1.0000 0.24400  0.04500  0.99800  Biso   1.000  H
  H116     1.0000 0.74400  0.54500  0.99800  Biso   1.000  H
  H117     1.0000 0.75600  0.04500  0.50200  Biso   1.000  H
  H118     1.0000 0.25600  0.54500  0.50200  Biso   1.000  H
  H119     1.0000 0.75600  0.95500  0.00200  Biso   1.000  H
  H120     1.0000 0.25600  0.45500  0.00200  Biso   1.000  H
  C121     1.0000 0.25050  0.85260  0.48580  Biso   1.000  C
  C122     1.0000 0.75050  0.35260  0.48580  Biso   1.000  C
  C123     1.0000 0.25050  0.14740  0.98580  Biso   1.000  C
  C124     1.0000 0.75050  0.64740  0.98580  Biso   1.000  C
  C125     1.0000 0.74950  0.14740  0.51420  Biso   1.000  C
  C126     1.0000 0.24950  0.64740  0.51420  Biso   1.000  C
  C127     1.0000 0.74950  0.85260  0.01420  Biso   1.000  C
  C128     1.0000 0.24950  0.35260  0.01420  Biso   1.000  C
  H121     1.0000 0.25200  0.85400  0.43500  Biso   1.000  H
  H122     1.0000 0.75200  0.35400  0.43500  Biso   1.000  H
  H123     1.0000 0.25200  0.14600  0.93500  Biso   1.000  H
  H124     1.0000 0.75200  0.64600  0.93500  Biso   1.000  H
  H125     1.0000 0.74800  0.14600  0.56500  Biso   1.000  H
  H126     1.0000 0.24800  0.64600  0.56500  Biso   1.000  H
  H127     1.0000 0.74800  0.85400  0.06500  Biso   1.000  H
  H128     1.0000 0.24800  0.35400  0.06500  Biso   1.000  H
  C129     1.0000 0.24590  0.78490  0.51880  Biso   1.000  C
  C130     1.0000 0.74590  0.28490  0.51880  Biso   1.000  C
  C131     1.0000 0.24590  0.21510  0.01880  Biso   1.000  C
  C132     1.0000 0.74590  0.71510  0.01880  Biso   1.000  C
  C133     1.0000 0.75410  0.21510  0.48120  Biso   1.000  C
  C134     1.0000 0.25410  0.71510  0.48120  Biso   1.000  C
  C135     1.0000 0.75410  0.78490  0.98120  Biso   1.000  C
  C136     1.0000 0.25410  0.28490  0.98120  Biso   1.000  C
  C137     1.0000 0.23400  0.78790  0.59010  Biso   1.000  C
  C138     1.0000 0.73400  0.28790  0.59010  Biso   1.000  C
  C139     1.0000 0.23400  0.21210  0.09010  Biso   1.000  C
  C140     1.0000 0.73400  0.71210  0.09010  Biso   1.000  C
  C141     1.0000 0.76600  0.21210  0.40990  Biso   1.000  C
  C142     1.0000 0.26600  0.71210  0.40990  Biso   1.000  C
  C143     1.0000 0.76600  0.78790  0.90990  Biso   1.000  C
  C144     1.0000 0.26600  0.28790  0.90990  Biso   1.000  C
  H129     1.0000 0.23500  0.75200  0.61500  Biso   1.000  H
  H130     1.0000 0.73500  0.25200  0.61500  Biso   1.000  H
  H131     1.0000 0.23500  0.24800  0.11500  Biso   1.000  H
  H132     1.0000 0.73500  0.74800  0.11500  Biso   1.000  H
  H133     1.0000 0.76500  0.24800  0.38500  Biso   1.000  H
  H134     1.0000 0.26500  0.74800  0.38500  Biso   1.000  H
  H135     1.0000 0.76500  0.75200  0.88500  Biso   1.000  H
  H136     1.0000 0.26500  0.25200  0.88500  Biso   1.000  H
  C145     1.0000 0.22680  0.85240  0.62550  Biso   1.000  C
  C146     1.0000 0.72680  0.35240  0.62550  Biso   1.000  C
  C147     1.0000 0.22680  0.14760  0.12550  Biso   1.000  C
  C148     1.0000 0.72680  0.64760  0.12550  Biso   1.000  C
  C149     1.0000 0.77320  0.14760  0.37450  Biso   1.000  C
  C150     1.0000 0.27320  0.64760  0.37450  Biso   1.000  C
  C151     1.0000 0.77320  0.85240  0.87450  Biso   1.000  C
  C152     1.0000 0.27320  0.35240  0.87450  Biso   1.000  C
  H137     1.0000 0.23000  0.85100  0.67900  Biso   1.000  H
  H138     1.0000 0.73000  0.35100  0.67900  Biso   1.000  H
  H139     1.0000 0.23000  0.14900  0.17900  Biso   1.000  H
  H140     1.0000 0.73000  0.64900  0.17900  Biso   1.000  H
  H141     1.0000 0.77000  0.14900  0.32100  Biso   1.000  H
  H142     1.0000 0.27000  0.64900  0.32100  Biso   1.000  H
  H143     1.0000 0.77000  0.85100  0.82100  Biso   1.000  H
  H144     1.0000 0.27000  0.35100  0.82100  Biso   1.000  H
  C153     1.0000 0.84640  0.65330  0.57370  Biso   1.000  C
  C154     1.0000 0.34640  0.15330  0.57370  Biso   1.000  C
  C155     1.0000 0.84640  0.34670  0.07370  Biso   1.000  C
  C156     1.0000 0.34640  0.84670  0.07370  Biso   1.000  C
  C157     1.0000 0.15360  0.34670  0.42630  Biso   1.000  C
  C158     1.0000 0.65360  0.84670  0.42630  Biso   1.000  C
  C159     1.0000 0.15360  0.65330  0.92630  Biso   1.000  C
  C160     1.0000 0.65360  0.15330  0.92630  Biso   1.000  C
  H145     1.0000 0.81300  0.64700  0.57100  Biso   1.000  H
  H146     1.0000 0.31300  0.14700  0.57100  Biso   1.000  H
  H147     1.0000 0.81300  0.35300  0.07100  Biso   1.000  H
  H148     1.0000 0.31300  0.85300  0.07100  Biso   1.000  H
  H149     1.0000 0.18700  0.35300  0.42900  Biso   1.000  H
  H150     1.0000 0.68700  0.85300  0.42900  Biso   1.000  H
  H151     1.0000 0.18700  0.64700  0.92900  Biso   1.000  H
  H152     1.0000 0.68700  0.14700  0.92900  Biso   1.000  H
  H153     1.0000 0.88800  0.66600  0.64300  Biso   1.000  H
  H154     1.0000 0.38800  0.16600  0.64300  Biso   1.000  H
  H155     1.0000 0.88800  0.33400  0.14300  Biso   1.000  H
  H156     1.0000 0.38800  0.83400  0.14300  Biso   1.000  H
  H157     1.0000 0.11200  0.33400  0.35700  Biso   1.000  H
  H158     1.0000 0.61200  0.83400  0.35700  Biso   1.000  H
  H159     1.0000 0.11200  0.66600  0.85700  Biso   1.000  H
  H160     1.0000 0.61200  0.16600  0.85700  Biso   1.000  H
  C161     1.0000 0.85670  0.58560  0.53200  Biso   1.000  C
  C162     1.0000 0.35670  0.08560  0.53200  Biso   1.000  C
  C163     1.0000 0.85670  0.41440  0.03200  Biso   1.000  C
  C164     1.0000 0.35670  0.91440  0.03200  Biso   1.000  C
  C165     1.0000 0.14330  0.41440  0.46800  Biso   1.000  C
  C166     1.0000 0.64330  0.91440  0.46800  Biso   1.000  C
  C167     1.0000 0.14330  0.58560  0.96800  Biso   1.000  C
  C168     1.0000 0.64330  0.08560  0.96800  Biso   1.000  C
  C169     1.0000 0.80930  0.55190  0.44740  Biso   1.000  C
  C170     1.0000 0.30930  0.05190  0.44740  Biso   1.000  C
  C171     1.0000 0.80930  0.44810  0.94740  Biso   1.000  C
  C172     1.0000 0.30930  0.94810  0.94740  Biso   1.000  C
  C173     1.0000 0.19070  0.44810  0.55260  Biso   1.000  C
  C174     1.0000 0.69070  0.94810  0.55260  Biso   1.000  C
  C175     1.0000 0.19070  0.55190  0.05260  Biso   1.000  C
  C176     1.0000 0.69070  0.05190  0.05260  Biso   1.000  C
  H161     1.0000 0.77200  0.57000  0.41500  Biso   1.000  H
  H162     1.0000 0.27200  0.07000  0.41500  Biso   1.000  H
  H163     1.0000 0.77200  0.43000  0.91500  Biso   1.000  H
  H164     1.0000 0.27200  0.93000  0.91500  Biso   1.000  H
  H165     1.0000 0.22800  0.43000  0.58500  Biso   1.000  H
  H166     1.0000 0.72800  0.93000  0.58500  Biso   1.000  H
  H167     1.0000 0.22800  0.57000  0.08500  Biso   1.000  H
  H168     1.0000 0.72800  0.07000  0.08500  Biso   1.000  H
  C177     1.0000 0.82080  0.49160  0.40930  Biso   1.000  C
  C178     1.0000 0.32080  0.99160  0.40930  Biso   1.000  C
  C179     1.0000 0.82080  0.50840  0.90930  Biso   1.000  C
  C180     1.0000 0.32080  0.00840  0.90930  Biso   1.000  C
  C181     1.0000 0.17920  0.50840  0.59070  Biso   1.000  C
  C182     1.0000 0.67920  0.00840  0.59070  Biso   1.000  C
  C183     1.0000 0.17920  0.49160  0.09070  Biso   1.000  C
  C184     1.0000 0.67920  0.99160  0.09070  Biso   1.000  C
  H169     1.0000 0.78900  0.47300  0.35100  Biso   1.000  H
  H170     1.0000 0.28900  0.97300  0.35100  Biso   1.000  H
  H171     1.0000 0.78900  0.52700  0.85100  Biso   1.000  H
  H172     1.0000 0.28900  0.02700  0.85100  Biso   1.000  H
  H173     1.0000 0.21100  0.52700  0.64900  Biso   1.000  H
  H174     1.0000 0.71100  0.02700  0.64900  Biso   1.000  H
  H175     1.0000 0.21100  0.47300  0.14900  Biso   1.000  H
  H176     1.0000 0.71100  0.97300  0.14900  Biso   1.000  H
  C185     1.0000 0.91680  0.55660  0.57820  Biso   1.000  C
  C186     1.0000 0.41680  0.05660  0.57820  Biso   1.000  C
  C187     1.0000 0.91680  0.44340  0.07820  Biso   1.000  C
  C188     1.0000 0.41680  0.94340  0.07820  Biso   1.000  C
  C189     1.0000 0.08320  0.44340  0.42180  Biso   1.000  C
  C190     1.0000 0.58320  0.94340  0.42180  Biso   1.000  C
  C191     1.0000 0.08320  0.55660  0.92180  Biso   1.000  C
  C192     1.0000 0.58320  0.05660  0.92180  Biso   1.000  C
  H177     1.0000 0.95200  0.58000  0.63900  Biso   1.000  H
  H178     1.0000 0.45200  0.08000  0.63900  Biso   1.000  H
  H179     1.0000 0.95200  0.42000  0.13900  Biso   1.000  H
  H180     1.0000 0.45200  0.92000  0.13900  Biso   1.000  H
  H181     1.0000 0.04800  0.42000  0.36100  Biso   1.000  H
  H182     1.0000 0.54800  0.92000  0.36100  Biso   1.000  H
  H183     1.0000 0.04800  0.58000  0.86100  Biso   1.000  H
  H184     1.0000 0.54800  0.08000  0.86100  Biso   1.000  H
  C193     1.0000 0.92830  0.49650  0.53950  Biso   1.000  C
  C194     1.0000 0.42830  0.99650  0.53950  Biso   1.000  C
  C195     1.0000 0.92830  0.50350  0.03950  Biso   1.000  C
  C196     1.0000 0.42830  0.00350  0.03950  Biso   1.000  C
  C197     1.0000 0.07170  0.50350  0.46050  Biso   1.000  C
  C198     1.0000 0.57170  0.00350  0.46050  Biso   1.000  C
  C199     1.0000 0.07170  0.49650  0.96050  Biso   1.000  C
  C200     1.0000 0.57170  0.99650  0.96050  Biso   1.000  C
  H185     1.0000 0.96700  0.47900  0.57400  Biso   1.000  H
  H186     1.0000 0.46700  0.97900  0.57400  Biso   1.000  H
  H187     1.0000 0.96700  0.52100  0.07400  Biso   1.000  H
  H188     1.0000 0.46700  0.02100  0.07400  Biso   1.000  H
  H189     1.0000 0.03300  0.52100  0.42600  Biso   1.000  H
  H190     1.0000 0.53300  0.02100  0.42600  Biso   1.000  H
  H191     1.0000 0.03300  0.47900  0.92600  Biso   1.000  H
  H192     1.0000 0.53300  0.97900  0.92600  Biso   1.000  H
  C201     1.0000 0.88140  0.46280  0.45390  Biso   1.000  C
  C202     1.0000 0.38140  0.96280  0.45390  Biso   1.000  C
  C203     1.0000 0.88140  0.53720  0.95390  Biso   1.000  C
  C204     1.0000 0.38140  0.03720  0.95390  Biso   1.000  C
  C205     1.0000 0.11860  0.53720  0.54610  Biso   1.000  C
  C206     1.0000 0.61860  0.03720  0.54610  Biso   1.000  C
  C207     1.0000 0.11860  0.46280  0.04610  Biso   1.000  C
  C208     1.0000 0.61860  0.96280  0.04610  Biso   1.000  C
  C209     1.0000 0.89510  0.39790  0.41340  Biso   1.000  C
  C210     1.0000 0.39510  0.89790  0.41340  Biso   1.000  C
  C211     1.0000 0.89510  0.60210  0.91340  Biso   1.000  C
  C212     1.0000 0.39510  0.10210  0.91340  Biso   1.000  C
  C213     1.0000 0.10490  0.60210  0.58660  Biso   1.000  C
  C214     1.0000 0.60490  0.10210  0.58660  Biso   1.000  C
  C215     1.0000 0.10490  0.39790  0.08660  Biso   1.000  C
  C216     1.0000 0.60490  0.89790  0.08660  Biso   1.000  C
  C217     1.0000 0.84950  0.35110  0.34540  Biso   1.000  C
  C218     1.0000 0.34950  0.85110  0.34540  Biso   1.000  C
  C219     1.0000 0.84950  0.64890  0.84540  Biso   1.000  C
  C220     1.0000 0.34950  0.14890  0.84540  Biso   1.000  C
  C221     1.0000 0.15050  0.64890  0.65460  Biso   1.000  C
  C222     1.0000 0.65050  0.14890  0.65460  Biso   1.000  C
  C223     1.0000 0.15050  0.35110  0.15460  Biso   1.000  C
  C224     1.0000 0.65050  0.85110  0.15460  Biso   1.000  C
  H193     1.0000 0.81300  0.35800  0.32000  Biso   1.000  H
  H194     1.0000 0.31300  0.85800  0.32000  Biso   1.000  H
  H195     1.0000 0.81300  0.64200  0.82000  Biso   1.000  H
  H196     1.0000 0.31300  0.14200  0.82000  Biso   1.000  H
  H197     1.0000 0.18700  0.64200  0.68000  Biso   1.000  H
  H198     1.0000 0.68700  0.14200  0.68000  Biso   1.000  H
  H199     1.0000 0.18700  0.35800  0.18000  Biso   1.000  H
  H200     1.0000 0.68700  0.85800  0.18000  Biso   1.000  H
  C225     1.0000 0.86440  0.28950  0.31510  Biso   1.000  C
  C226     1.0000 0.36440  0.78950  0.31510  Biso   1.000  C
  C227     1.0000 0.86440  0.71050  0.81510  Biso   1.000  C
  C228     1.0000 0.36440  0.21050  0.81510  Biso   1.000  C
  C229     1.0000 0.13560  0.71050  0.68490  Biso   1.000  C
  C230     1.0000 0.63560  0.21050  0.68490  Biso   1.000  C
  C231     1.0000 0.13560  0.28950  0.18490  Biso   1.000  C
  C232     1.0000 0.63560  0.78950  0.18490  Biso   1.000  C
  H201     1.0000 0.84200  0.26300  0.27500  Biso   1.000  H
  H202     1.0000 0.34200  0.76300  0.27500  Biso   1.000  H
  H203     1.0000 0.84200  0.73700  0.77500  Biso   1.000  H
  H204     1.0000 0.34200  0.23700  0.77500  Biso   1.000  H
  H205     1.0000 0.15800  0.73700  0.72500  Biso   1.000  H
  H206     1.0000 0.65800  0.23700  0.72500  Biso   1.000  H
  H207     1.0000 0.15800  0.26300  0.22500  Biso   1.000  H
  H208     1.0000 0.65800  0.76300  0.22500  Biso   1.000  H
  C233     1.0000 0.95680  0.38240  0.44380  Biso   1.000  C
  C234     1.0000 0.45680  0.88240  0.44380  Biso   1.000  C
  C235     1.0000 0.95680  0.61760  0.94380  Biso   1.000  C
  C236     1.0000 0.45680  0.11760  0.94380  Biso   1.000  C
  C237     1.0000 0.04320  0.61760  0.55620  Biso   1.000  C
  C238     1.0000 0.54320  0.11760  0.55620  Biso   1.000  C
  C239     1.0000 0.04320  0.38240  0.05620  Biso   1.000  C
  C240     1.0000 0.54320  0.88240  0.05620  Biso   1.000  C
  H209     1.0000 0.99200  0.41500  0.49600  Biso   1.000  H
  H210     1.0000 0.49200  0.91500  0.49600  Biso   1.000  H
  H211     1.0000 0.99200  0.58500  0.99600  Biso   1.000  H
  H212     1.0000 0.49200  0.08500  0.99600  Biso   1.000  H
  H213     1.0000 0.00800  0.58500  0.50400  Biso   1.000  H
  H214     1.0000 0.50800  0.08500  0.50400  Biso   1.000  H
  H215     1.0000 0.00800  0.41500  0.00400  Biso   1.000  H
  H216     1.0000 0.50800  0.91500  0.00400  Biso   1.000  H
  C241     1.0000 0.97140  0.32070  0.41220  Biso   1.000  C
  C242     1.0000 0.47140  0.82070  0.41220  Biso   1.000  C
  C243     1.0000 0.97140  0.67930  0.91220  Biso   1.000  C
  C244     1.0000 0.47140  0.17930  0.91220  Biso   1.000  C
  C245     1.0000 0.02860  0.67930  0.58780  Biso   1.000  C
  C246     1.0000 0.52860  0.17930  0.58780  Biso   1.000  C
  C247     1.0000 0.02860  0.32070  0.08780  Biso   1.000  C
  C248     1.0000 0.52860  0.82070  0.08780  Biso   1.000  C
  H217     1.0000 0.01300  0.31100  0.44700  Biso   1.000  H
  H218     1.0000 0.51300  0.81100  0.44700  Biso   1.000  H
  H219     1.0000 0.01300  0.68900  0.94700  Biso   1.000  H
  H220     1.0000 0.51300  0.18900  0.94700  Biso   1.000  H
  H221     1.0000 0.98700  0.68900  0.55300  Biso   1.000  H
  H222     1.0000 0.48700  0.18900  0.55300  Biso   1.000  H
  H223     1.0000 0.98700  0.31100  0.05300  Biso   1.000  H
  H224     1.0000 0.48700  0.81100  0.05300  Biso   1.000  H
  C249     1.0000 0.92600  0.27270  0.34760  Biso   1.000  C
  C250     1.0000 0.42600  0.77270  0.34760  Biso   1.000  C
  C251     1.0000 0.92600  0.72730  0.84760  Biso   1.000  C
  C252     1.0000 0.42600  0.22730  0.84760  Biso   1.000  C
  C253     1.0000 0.07400  0.72730  0.65240  Biso   1.000  C
  C254     1.0000 0.57400  0.22730  0.65240  Biso   1.000  C
  C255     1.0000 0.07400  0.27270  0.15240  Biso   1.000  C
  C256     1.0000 0.57400  0.77270  0.15240  Biso   1.000  C
  C257     1.0000 0.94550  0.20270  0.32110  Biso   1.000  C
  C258     1.0000 0.44550  0.70270  0.32110  Biso   1.000  C
  C259     1.0000 0.94550  0.79730  0.82110  Biso   1.000  C
  C260     1.0000 0.44550  0.29730  0.82110  Biso   1.000  C
  C261     1.0000 0.05450  0.79730  0.67890  Biso   1.000  C
  C262     1.0000 0.55450  0.29730  0.67890  Biso   1.000  C
  C263     1.0000 0.05450  0.20270  0.17890  Biso   1.000  C
  C264     1.0000 0.55450  0.70270  0.17890  Biso   1.000  C
  H225     1.0000 0.98000  0.21700  0.31500  Biso   1.000  H
  H226     1.0000 0.48000  0.71700  0.31500  Biso   1.000  H
  H227     1.0000 0.98000  0.78300  0.81500  Biso   1.000  H
  H228     1.0000 0.48000  0.28300  0.81500  Biso   1.000  H
  H229     1.0000 0.02000  0.78300  0.68500  Biso   1.000  H
  H230     1.0000 0.52000  0.28300  0.68500  Biso   1.000  H
  H231     1.0000 0.02000  0.21700  0.18500  Biso   1.000  H
  H232     1.0000 0.52000  0.71700  0.18500  Biso   1.000  H
  H233     1.0000 0.91400  0.18500  0.27100  Biso   1.000  H
  H234     1.0000 0.41400  0.68500  0.27100  Biso   1.000  H
  H235     1.0000 0.91400  0.81500  0.77100  Biso   1.000  H
  H236     1.0000 0.41400  0.31500  0.77100  Biso   1.000  H
  H237     1.0000 0.08600  0.81500  0.72900  Biso   1.000  H
  H238     1.0000 0.58600  0.31500  0.72900  Biso   1.000  H
  H239     1.0000 0.08600  0.18500  0.22900  Biso   1.000  H
  H240     1.0000 0.58600  0.68500  0.22900  Biso   1.000  H
