data_image0
_cell_length_a       16.624
_cell_length_b       8.108
_cell_length_c       22.699
_cell_angle_alpha    90
_cell_angle_beta     90
_cell_angle_gamma    90

_symmetry_space_group_name_H-M    "P 1"
_symmetry_int_tables_number       1

loop_
  _symmetry_equiv_pos_as_xyz
  'x, y, z'

loop_
  _atom_site_label
  _atom_site_occupancy
  _atom_site_fract_x
  _atom_site_fract_y
  _atom_site_fract_z
  _atom_site_thermal_displace_type
  _atom_site_B_iso_or_equiv
  _atom_site_type_symbol
  C1       1.0000 0.57880  0.29530  0.01484  Biso   1.000  C
  C2       1.0000 0.92120  0.20470  0.51484  Biso   1.000  C
  C3       1.0000 0.07880  0.20470  0.98516  Biso   1.000  C
  C4       1.0000 0.42120  0.29530  0.48516  Biso   1.000  C
  C5       1.0000 0.42120  0.70470  0.98516  Biso   1.000  C
  C6       1.0000 0.07880  0.79530  0.48516  Biso   1.000  C
  C7       1.0000 0.92120  0.79530  0.01484  Biso   1.000  C
  C8       1.0000 0.57880  0.70470  0.51484  Biso   1.000  C
  H1       1.0000 0.59570  0.24050  0.98000  Biso   1.000  H
  H2       1.0000 0.90430  0.25950  0.48000  Biso   1.000  H
  H3       1.0000 0.09570  0.25950  0.02000  Biso   1.000  H
  H4       1.0000 0.40430  0.24050  0.52000  Biso   1.000  H
  H5       1.0000 0.40430  0.75950  0.02000  Biso   1.000  H
  H6       1.0000 0.09570  0.74050  0.52000  Biso   1.000  H
  H7       1.0000 0.90430  0.74050  0.98000  Biso   1.000  H
  H8       1.0000 0.59570  0.75950  0.48000  Biso   1.000  H
  C9       1.0000 0.49690  0.30890  0.02590  Biso   1.000  C
  C10      1.0000 0.00310  0.19110  0.52590  Biso   1.000  C
  C11      1.0000 0.99690  0.19110  0.97410  Biso   1.000  C
  C12      1.0000 0.50310  0.30890  0.47410  Biso   1.000  C
  C13      1.0000 0.50310  0.69110  0.97410  Biso   1.000  C
  C14      1.0000 0.99690  0.80890  0.47410  Biso   1.000  C
  C15      1.0000 0.00310  0.80890  0.02590  Biso   1.000  C
  C16      1.0000 0.49690  0.69110  0.52590  Biso   1.000  C
  H9       1.0000 0.45840  0.26430  0.99940  Biso   1.000  H
  H10      1.0000 0.04160  0.23570  0.49940  Biso   1.000  H
  H11      1.0000 0.95840  0.23570  0.00060  Biso   1.000  H
  H12      1.0000 0.54160  0.26430  0.50060  Biso   1.000  H
  H13      1.0000 0.54160  0.73570  0.00060  Biso   1.000  H
  H14      1.0000 0.95840  0.76430  0.50060  Biso   1.000  H
  H15      1.0000 0.04160  0.76430  0.99940  Biso   1.000  H
  H16      1.0000 0.45840  0.73570  0.49940  Biso   1.000  H
  C17      1.0000 0.47280  0.38980  0.07700  Biso   1.000  C
  C18      1.0000 0.02720  0.11020  0.57700  Biso   1.000  C
  C19      1.0000 0.97280  0.11020  0.92300  Biso   1.000  C
  C20      1.0000 0.52720  0.38980  0.42300  Biso   1.000  C
  C21      1.0000 0.52720  0.61020  0.92300  Biso   1.000  C
  C22      1.0000 0.97280  0.88980  0.42300  Biso   1.000  C
  C23      1.0000 0.02720  0.88980  0.07700  Biso   1.000  C
  C24      1.0000 0.47280  0.61020  0.57700  Biso   1.000  C
  H17      1.0000 0.41730  0.40510  0.08510  Biso   1.000  H
  H18      1.0000 0.08270  0.09490  0.58510  Biso   1.000  H
  H19      1.0000 0.91730  0.09490  0.91490  Biso   1.000  H
  H20      1.0000 0.58270  0.40510  0.41490  Biso   1.000  H
  H21      1.0000 0.58270  0.59490  0.91490  Biso   1.000  H
  H22      1.0000 0.91730  0.90510  0.41490  Biso   1.000  H
  H23      1.0000 0.08270  0.90510  0.08510  Biso   1.000  H
  H24      1.0000 0.41730  0.59490  0.58510  Biso   1.000  H
  C25      1.0000 0.53050  0.44820  0.11600  Biso   1.000  C
  C26      1.0000 0.96950  0.05180  0.61600  Biso   1.000  C
  C27      1.0000 0.03050  0.05180  0.88400  Biso   1.000  C
  C28      1.0000 0.46950  0.44820  0.38400  Biso   1.000  C
  C29      1.0000 0.46950  0.55180  0.88400  Biso   1.000  C
  C30      1.0000 0.03050  0.94820  0.38400  Biso   1.000  C
  C31      1.0000 0.96950  0.94820  0.11600  Biso   1.000  C
  C32      1.0000 0.53050  0.55180  0.61600  Biso   1.000  C
  H25      1.0000 0.51470  0.50020  0.15170  Biso   1.000  H
  H26      1.0000 0.98530  0.99980  0.65170  Biso   1.000  H
  H27      1.0000 0.01470  0.99980  0.84830  Biso   1.000  H
  H28      1.0000 0.48530  0.50020  0.34830  Biso   1.000  H
  H29      1.0000 0.48530  0.49980  0.84830  Biso   1.000  H
  H30      1.0000 0.01470  0.00020  0.34830  Biso   1.000  H
  H31      1.0000 0.98530  0.00020  0.15170  Biso   1.000  H
  H32      1.0000 0.51470  0.49980  0.65170  Biso   1.000  H
  C33      1.0000 0.61080  0.43010  0.10237  Biso   1.000  C
  C34      1.0000 0.88920  0.06990  0.60237  Biso   1.000  C
  C35      1.0000 0.11080  0.06990  0.89763  Biso   1.000  C
  C36      1.0000 0.38920  0.43010  0.39763  Biso   1.000  C
  C37      1.0000 0.38920  0.56990  0.89763  Biso   1.000  C
  C38      1.0000 0.11080  0.93010  0.39763  Biso   1.000  C
  C39      1.0000 0.88920  0.93010  0.10237  Biso   1.000  C
  C40      1.0000 0.61080  0.56990  0.60237  Biso   1.000  C
  C41      1.0000 0.67860  0.48220  0.14060  Biso   1.000  C
  C42      1.0000 0.82140  0.01780  0.64060  Biso   1.000  C
  C43      1.0000 0.17860  0.01780  0.85940  Biso   1.000  C
  C44      1.0000 0.32140  0.48220  0.35940  Biso   1.000  C
  C45      1.0000 0.32140  0.51780  0.85940  Biso   1.000  C
  C46      1.0000 0.17860  0.98220  0.35940  Biso   1.000  C
  C47      1.0000 0.82140  0.98220  0.14060  Biso   1.000  C
  C48      1.0000 0.67860  0.51780  0.64060  Biso   1.000  C
  C49      1.0000 0.66820  0.53290  0.20290  Biso   1.000  C
  C50      1.0000 0.83180  0.96710  0.70290  Biso   1.000  C
  C51      1.0000 0.16820  0.96710  0.79710  Biso   1.000  C
  C52      1.0000 0.33180  0.53290  0.29710  Biso   1.000  C
  C53      1.0000 0.33180  0.46710  0.79710  Biso   1.000  C
  C54      1.0000 0.16820  0.03290  0.29710  Biso   1.000  C
  C55      1.0000 0.83180  0.03290  0.20290  Biso   1.000  C
  C56      1.0000 0.66820  0.46710  0.70290  Biso   1.000  C
  C57      1.0000 0.61600  0.65990  0.21900  Biso   1.000  C
  C58      1.0000 0.88400  0.84010  0.71900  Biso   1.000  C
  C59      1.0000 0.11600  0.84010  0.78100  Biso   1.000  C
  C60      1.0000 0.38400  0.65990  0.28100  Biso   1.000  C
  C61      1.0000 0.38400  0.34010  0.78100  Biso   1.000  C
  C62      1.0000 0.11600  0.15990  0.28100  Biso   1.000  C
  C63      1.0000 0.88400  0.15990  0.21900  Biso   1.000  C
  C64      1.0000 0.61600  0.34010  0.71900  Biso   1.000  C
  H33      1.0000 0.58580  0.71630  0.18980  Biso   1.000  H
  H34      1.0000 0.91420  0.78370  0.68980  Biso   1.000  H
  H35      1.0000 0.08580  0.78370  0.81020  Biso   1.000  H
  H36      1.0000 0.41420  0.71630  0.31020  Biso   1.000  H
  H37      1.0000 0.41420  0.28370  0.81020  Biso   1.000  H
  H38      1.0000 0.08580  0.21630  0.31020  Biso   1.000  H
  H39      1.0000 0.91420  0.21630  0.18980  Biso   1.000  H
  H40      1.0000 0.58580  0.28370  0.68980  Biso   1.000  H
  C65      1.0000 0.60820  0.70380  0.27820  Biso   1.000  C
  C66      1.0000 0.89180  0.79620  0.77820  Biso   1.000  C
  C67      1.0000 0.10820  0.79620  0.72180  Biso   1.000  C
  C68      1.0000 0.39180  0.70380  0.22180  Biso   1.000  C
  C69      1.0000 0.39180  0.29620  0.72180  Biso   1.000  C
  C70      1.0000 0.10820  0.20380  0.22180  Biso   1.000  C
  C71      1.0000 0.89180  0.20380  0.27820  Biso   1.000  C
  C72      1.0000 0.60820  0.29620  0.77820  Biso   1.000  C
  H41      1.0000 0.57280  0.79050  0.28920  Biso   1.000  H
  H42      1.0000 0.92720  0.70950  0.78920  Biso   1.000  H
  H43      1.0000 0.07280  0.70950  0.71080  Biso   1.000  H
  H44      1.0000 0.42720  0.79050  0.21080  Biso   1.000  H
  H45      1.0000 0.42720  0.20950  0.71080  Biso   1.000  H
  H46      1.0000 0.07280  0.29050  0.21080  Biso   1.000  H
  H47      1.0000 0.92720  0.29050  0.28920  Biso   1.000  H
  H48      1.0000 0.57280  0.20950  0.78920  Biso   1.000  H
  C73      1.0000 0.65210  0.62090  0.32090  Biso   1.000  C
  C74      1.0000 0.84790  0.87910  0.82090  Biso   1.000  C
  C75      1.0000 0.15210  0.87910  0.67910  Biso   1.000  C
  C76      1.0000 0.34790  0.62090  0.17910  Biso   1.000  C
  C77      1.0000 0.34790  0.37910  0.67910  Biso   1.000  C
  C78      1.0000 0.15210  0.12090  0.17910  Biso   1.000  C
  C79      1.0000 0.84790  0.12090  0.32090  Biso   1.000  C
  C80      1.0000 0.65210  0.37910  0.82090  Biso   1.000  C
  H49      1.0000 0.64740  0.65230  0.36110  Biso   1.000  H
  H50      1.0000 0.85260  0.84770  0.86110  Biso   1.000  H
  H51      1.0000 0.14740  0.84770  0.63890  Biso   1.000  H
  H52      1.0000 0.35260  0.65230  0.13890  Biso   1.000  H
  H53      1.0000 0.35260  0.34770  0.63890  Biso   1.000  H
  H54      1.0000 0.14740  0.15230  0.13890  Biso   1.000  H
  H55      1.0000 0.85260  0.15230  0.36110  Biso   1.000  H
  H56      1.0000 0.64740  0.34770  0.86110  Biso   1.000  H
  C81      1.0000 0.70290  0.49220  0.30520  Biso   1.000  C
  C82      1.0000 0.79710  0.00780  0.80520  Biso   1.000  C
  C83      1.0000 0.20290  0.00780  0.69480  Biso   1.000  C
  C84      1.0000 0.29710  0.49220  0.19480  Biso   1.000  C
  C85      1.0000 0.29710  0.50780  0.69480  Biso   1.000  C
  C86      1.0000 0.20290  0.99220  0.19480  Biso   1.000  C
  C87      1.0000 0.79710  0.99220  0.30520  Biso   1.000  C
  C88      1.0000 0.70290  0.50780  0.80520  Biso   1.000  C
  H57      1.0000 0.73180  0.43400  0.33480  Biso   1.000  H
  H58      1.0000 0.76820  0.06600  0.83480  Biso   1.000  H
  H59      1.0000 0.23180  0.06600  0.66520  Biso   1.000  H
  H60      1.0000 0.26820  0.43400  0.16520  Biso   1.000  H
  H61      1.0000 0.26820  0.56600  0.66520  Biso   1.000  H
  H62      1.0000 0.23180  0.93400  0.16520  Biso   1.000  H
  H63      1.0000 0.76820  0.93400  0.33480  Biso   1.000  H
  H64      1.0000 0.73180  0.56600  0.83480  Biso   1.000  H
  C89      1.0000 0.71140  0.44850  0.24641  Biso   1.000  C
  C90      1.0000 0.78860  0.05150  0.74641  Biso   1.000  C
  C91      1.0000 0.21140  0.05150  0.75359  Biso   1.000  C
  C92      1.0000 0.28860  0.44850  0.25359  Biso   1.000  C
  C93      1.0000 0.28860  0.55150  0.75359  Biso   1.000  C
  C94      1.0000 0.21140  0.94850  0.25359  Biso   1.000  C
  C95      1.0000 0.78860  0.94850  0.24641  Biso   1.000  C
  C96      1.0000 0.71140  0.55150  0.74641  Biso   1.000  C
  H65      1.0000 0.74670  0.36130  0.23570  Biso   1.000  H
  H66      1.0000 0.75330  0.13870  0.73570  Biso   1.000  H
  H67      1.0000 0.24670  0.13870  0.76430  Biso   1.000  H
  H68      1.0000 0.25330  0.36130  0.26430  Biso   1.000  H
  H69      1.0000 0.25330  0.63870  0.76430  Biso   1.000  H
  H70      1.0000 0.24670  0.86130  0.26430  Biso   1.000  H
  H71      1.0000 0.75330  0.86130  0.23570  Biso   1.000  H
  H72      1.0000 0.74670  0.63870  0.73570  Biso   1.000  H
  C97      1.0000 0.87800  0.46510  0.10447  Biso   1.000  C
  C98      1.0000 0.62200  0.03490  0.60447  Biso   1.000  C
  C99      1.0000 0.37800  0.03490  0.89553  Biso   1.000  C
  C100     1.0000 0.12200  0.46510  0.39553  Biso   1.000  C
  C101     1.0000 0.12200  0.53490  0.89553  Biso   1.000  C
  C102     1.0000 0.37800  0.96510  0.39553  Biso   1.000  C
  C103     1.0000 0.62200  0.96510  0.10447  Biso   1.000  C
  C104     1.0000 0.87800  0.53490  0.60447  Biso   1.000  C
  C105     1.0000 0.95960  0.50620  0.12364  Biso   1.000  C
  C106     1.0000 0.54040  0.99380  0.62364  Biso   1.000  C
  C107     1.0000 0.45960  0.99380  0.87636  Biso   1.000  C
  C108     1.0000 0.04040  0.50620  0.37636  Biso   1.000  C
  C109     1.0000 0.04040  0.49380  0.87636  Biso   1.000  C
  C110     1.0000 0.45960  0.00620  0.37636  Biso   1.000  C
  C111     1.0000 0.54040  0.00620  0.12364  Biso   1.000  C
  C112     1.0000 0.95960  0.49380  0.62364  Biso   1.000  C
  C113     1.0000 0.09020  0.52330  0.11380  Biso   1.000  C
  C114     1.0000 0.40980  0.97670  0.61380  Biso   1.000  C
  C115     1.0000 0.59020  0.97670  0.88620  Biso   1.000  C
  C116     1.0000 0.90980  0.52330  0.38620  Biso   1.000  C
  C117     1.0000 0.90980  0.47670  0.88620  Biso   1.000  C
  C118     1.0000 0.59020  0.02330  0.38620  Biso   1.000  C
  C119     1.0000 0.40980  0.02330  0.11380  Biso   1.000  C
  C120     1.0000 0.09020  0.47670  0.61380  Biso   1.000  C
  H73      1.0000 0.14280  0.51390  0.09770  Biso   1.000  H
  H74      1.0000 0.35720  0.98610  0.59770  Biso   1.000  H
  H75      1.0000 0.64280  0.98610  0.90230  Biso   1.000  H
  H76      1.0000 0.85720  0.51390  0.40230  Biso   1.000  H
  H77      1.0000 0.85720  0.48610  0.90230  Biso   1.000  H
  H78      1.0000 0.64280  0.01390  0.40230  Biso   1.000  H
  H79      1.0000 0.35720  0.01390  0.09770  Biso   1.000  H
  H80      1.0000 0.14280  0.48610  0.59770  Biso   1.000  H
  C121     1.0000 0.07290  0.59660  0.16580  Biso   1.000  C
  C122     1.0000 0.42710  0.90340  0.66580  Biso   1.000  C
  C123     1.0000 0.57290  0.90340  0.83420  Biso   1.000  C
  C124     1.0000 0.92710  0.59660  0.33420  Biso   1.000  C
  C125     1.0000 0.92710  0.40340  0.83420  Biso   1.000  C
  C126     1.0000 0.57290  0.09660  0.33420  Biso   1.000  C
  C127     1.0000 0.42710  0.09660  0.16580  Biso   1.000  C
  C128     1.0000 0.07290  0.40340  0.66580  Biso   1.000  C
  H81      1.0000 0.10980  0.64540  0.19260  Biso   1.000  H
  H82      1.0000 0.39020  0.85460  0.69260  Biso   1.000  H
  H83      1.0000 0.60980  0.85460  0.80740  Biso   1.000  H
  H84      1.0000 0.89020  0.64540  0.30740  Biso   1.000  H
  H85      1.0000 0.89020  0.35460  0.80740  Biso   1.000  H
  H86      1.0000 0.60980  0.14540  0.30740  Biso   1.000  H
  H87      1.0000 0.39020  0.14540  0.19260  Biso   1.000  H
  H88      1.0000 0.10980  0.35460  0.69260  Biso   1.000  H
  C129     1.0000 0.98790  0.58530  0.17190  Biso   1.000  C
  C130     1.0000 0.51210  0.91470  0.67190  Biso   1.000  C
  C131     1.0000 0.48790  0.91470  0.82810  Biso   1.000  C
  C132     1.0000 0.01210  0.58530  0.32810  Biso   1.000  C
  C133     1.0000 0.01210  0.41470  0.82810  Biso   1.000  C
  C134     1.0000 0.48790  0.08530  0.32810  Biso   1.000  C
  C135     1.0000 0.51210  0.08530  0.17190  Biso   1.000  C
  C136     1.0000 0.98790  0.41470  0.67190  Biso   1.000  C
  H89      1.0000 0.95680  0.62570  0.20390  Biso   1.000  H
  H90      1.0000 0.54320  0.87430  0.70390  Biso   1.000  H
  H91      1.0000 0.45680  0.87430  0.79610  Biso   1.000  H
  H92      1.0000 0.04320  0.62570  0.29610  Biso   1.000  H
  H93      1.0000 0.04320  0.37430  0.79610  Biso   1.000  H
  H94      1.0000 0.45680  0.12570  0.29610  Biso   1.000  H
  H95      1.0000 0.54320  0.12570  0.20390  Biso   1.000  H
  H96      1.0000 0.95680  0.37430  0.70390  Biso   1.000  H
  Cl1      1.0000 0.76313  0.15740  0.97070  Biso   1.000  Cl
  Cl2      1.0000 0.73687  0.34260  0.47070  Biso   1.000  Cl
  Cl3      1.0000 0.26313  0.34260  0.02930  Biso   1.000  Cl
  Cl4      1.0000 0.23687  0.15740  0.52930  Biso   1.000  Cl
  Cl5      1.0000 0.23687  0.84260  0.02930  Biso   1.000  Cl
  Cl6      1.0000 0.26313  0.65740  0.52930  Biso   1.000  Cl
  Cl7      1.0000 0.73687  0.65740  0.97070  Biso   1.000  Cl
  Cl8      1.0000 0.76313  0.84260  0.47070  Biso   1.000  Cl
  Cu1      1.0000 0.75357  0.35544  0.03929  Biso   1.000  Cu
  Cu2      1.0000 0.74643  0.14456  0.53929  Biso   1.000  Cu
  Cu3      1.0000 0.25357  0.14456  0.96071  Biso   1.000  Cu
  Cu4      1.0000 0.24643  0.35544  0.46071  Biso   1.000  Cu
  Cu5      1.0000 0.24643  0.64456  0.96071  Biso   1.000  Cu
  Cu6      1.0000 0.25357  0.85544  0.46071  Biso   1.000  Cu
  Cu7      1.0000 0.74643  0.85544  0.03929  Biso   1.000  Cu
  Cu8      1.0000 0.75357  0.64456  0.53929  Biso   1.000  Cu
  N1       1.0000 0.63470  0.35550  0.05096  Biso   1.000  N
  N2       1.0000 0.86530  0.14450  0.55096  Biso   1.000  N
  N3       1.0000 0.13470  0.14450  0.94904  Biso   1.000  N
  N4       1.0000 0.36530  0.35550  0.44904  Biso   1.000  N
  N5       1.0000 0.36530  0.64450  0.94904  Biso   1.000  N
  N6       1.0000 0.13470  0.85550  0.44904  Biso   1.000  N
  N7       1.0000 0.86530  0.85550  0.05096  Biso   1.000  N
  N8       1.0000 0.63470  0.64450  0.55096  Biso   1.000  N
  N9       1.0000 0.74810  0.46830  0.11488  Biso   1.000  N
  N10      1.0000 0.75190  0.03170  0.61488  Biso   1.000  N
  N11      1.0000 0.24810  0.03170  0.88512  Biso   1.000  N
  N12      1.0000 0.25190  0.46830  0.38512  Biso   1.000  N
  N13      1.0000 0.25190  0.53170  0.88512  Biso   1.000  N
  N14      1.0000 0.24810  0.96830  0.38512  Biso   1.000  N
  N15      1.0000 0.75190  0.96830  0.11488  Biso   1.000  N
  N16      1.0000 0.74810  0.53170  0.61488  Biso   1.000  N
  N17      1.0000 0.81970  0.51340  0.14051  Biso   1.000  N
  N18      1.0000 0.68030  0.98660  0.64051  Biso   1.000  N
  N19      1.0000 0.31970  0.98660  0.85949  Biso   1.000  N
  N20      1.0000 0.18030  0.51340  0.35949  Biso   1.000  N
  N21      1.0000 0.18030  0.48660  0.85949  Biso   1.000  N
  N22      1.0000 0.31970  0.01340  0.35949  Biso   1.000  N
  N23      1.0000 0.68030  0.01340  0.14051  Biso   1.000  N
  N24      1.0000 0.81970  0.48660  0.64051  Biso   1.000  N
  O1       1.0000 0.86882  0.38720  0.05545  Biso   1.000  O
  O2       1.0000 0.63118  0.11280  0.55545  Biso   1.000  O
  O3       1.0000 0.36882  0.11280  0.94455  Biso   1.000  O
  O4       1.0000 0.13118  0.38720  0.44455  Biso   1.000  O
  O5       1.0000 0.13118  0.61280  0.94455  Biso   1.000  O
  O6       1.0000 0.36882  0.88720  0.44455  Biso   1.000  O
  O7       1.0000 0.63118  0.88720  0.05545  Biso   1.000  O
  O8       1.0000 0.86882  0.61280  0.55545  Biso   1.000  O
  O9       1.0000 0.02203  0.46430  0.08721  Biso   1.000  O
  O10      1.0000 0.47797  0.03570  0.58721  Biso   1.000  O
  O11      1.0000 0.52203  0.03570  0.91279  Biso   1.000  O
  O12      1.0000 0.97797  0.46430  0.41279  Biso   1.000  O
  O13      1.0000 0.97797  0.53570  0.91279  Biso   1.000  O
  O14      1.0000 0.52203  0.96430  0.41279  Biso   1.000  O
  O15      1.0000 0.47797  0.96430  0.08721  Biso   1.000  O
  O16      1.0000 0.02203  0.53570  0.58721  Biso   1.000  O
