data_image0
_cell_length_a       6.962
_cell_length_b       15.5
_cell_length_c       7.627
_cell_angle_alpha    90
_cell_angle_beta     90
_cell_angle_gamma    90

_symmetry_space_group_name_H-M    "P 1"
_symmetry_int_tables_number       1

loop_
  _symmetry_equiv_pos_as_xyz
  'x, y, z'

loop_
  _atom_site_label
  _atom_site_occupancy
  _atom_site_fract_x
  _atom_site_fract_y
  _atom_site_fract_z
  _atom_site_thermal_displace_type
  _atom_site_B_iso_or_equiv
  _atom_site_type_symbol
  Cu1      1.0000 0.50000  0.69148  0.50210  Biso   1.000  Cu
  Cu2      1.0000 0.50000  0.30852  0.50210  Biso   1.000  Cu
  Cu3      1.0000 0.00000  0.19148  0.00210  Biso   1.000  Cu
  Cu4      1.0000 0.00000  0.80852  0.00210  Biso   1.000  Cu
  O1       1.0000 0.71980  0.63510  0.64640  Biso   1.000  O
  O2       1.0000 0.28020  0.36490  0.64640  Biso   1.000  O
  O3       1.0000 0.71980  0.36490  0.64640  Biso   1.000  O
  O4       1.0000 0.28020  0.63510  0.64640  Biso   1.000  O
  O5       1.0000 0.21980  0.13510  0.14640  Biso   1.000  O
  O6       1.0000 0.78020  0.86490  0.14640  Biso   1.000  O
  O7       1.0000 0.21980  0.86490  0.14640  Biso   1.000  O
  O8       1.0000 0.78020  0.13510  0.14640  Biso   1.000  O
  O9       1.0000 0.81010  0.74100  0.83830  Biso   1.000  O
  O10      1.0000 0.18990  0.25900  0.83830  Biso   1.000  O
  O11      1.0000 0.81010  0.25900  0.83830  Biso   1.000  O
  O12      1.0000 0.18990  0.74100  0.83830  Biso   1.000  O
  O13      1.0000 0.31010  0.24100  0.33830  Biso   1.000  O
  O14      1.0000 0.68990  0.75900  0.33830  Biso   1.000  O
  O15      1.0000 0.31010  0.75900  0.33830  Biso   1.000  O
  O16      1.0000 0.68990  0.24100  0.33830  Biso   1.000  O
  C1       1.0000 0.83500  0.66990  0.75290  Biso   1.000  C
  C2       1.0000 0.16500  0.33010  0.75290  Biso   1.000  C
  C3       1.0000 0.83500  0.33010  0.75290  Biso   1.000  C
  C4       1.0000 0.16500  0.66990  0.75290  Biso   1.000  C
  C5       1.0000 0.33500  0.16990  0.25290  Biso   1.000  C
  C6       1.0000 0.66500  0.83010  0.25290  Biso   1.000  C
  C7       1.0000 0.33500  0.83010  0.25290  Biso   1.000  C
  C8       1.0000 0.66500  0.16990  0.25290  Biso   1.000  C
  C9       1.0000 0.00000  0.61970  0.78200  Biso   1.000  C
  C10      1.0000 0.00000  0.38030  0.78200  Biso   1.000  C
  C11      1.0000 0.50000  0.11970  0.28200  Biso   1.000  C
  C12      1.0000 0.50000  0.88030  0.28200  Biso   1.000  C
  H1       1.0000 0.00000  0.59810  0.90090  Biso   1.000  H
  H2       1.0000 0.00000  0.40190  0.90090  Biso   1.000  H
  H3       1.0000 0.50000  0.09810  0.40090  Biso   1.000  H
  H4       1.0000 0.50000  0.90190  0.40090  Biso   1.000  H
  H5       1.0000 0.00000  0.57070  0.70250  Biso   1.000  H
  H6       1.0000 0.00000  0.42930  0.70250  Biso   1.000  H
  H7       1.0000 0.50000  0.07070  0.20250  Biso   1.000  H
  H8       1.0000 0.50000  0.92930  0.20250  Biso   1.000  H
  O17      1.0000 0.50000  0.78840  0.69800  Biso   1.000  O
  O18      1.0000 0.50000  0.21160  0.69800  Biso   1.000  O
  O19      1.0000 0.00000  0.28840  0.19800  Biso   1.000  O
  O20      1.0000 0.00000  0.71160  0.19800  Biso   1.000  O
  H9       1.0000 0.61200  0.77000  0.73200  Biso   1.000  H
  H10      1.0000 0.38800  0.23000  0.73200  Biso   1.000  H
  H11      1.0000 0.61200  0.23000  0.73200  Biso   1.000  H
  H12      1.0000 0.38800  0.77000  0.73200  Biso   1.000  H
  H13      1.0000 0.11200  0.27000  0.23200  Biso   1.000  H
  H14      1.0000 0.88800  0.73000  0.23200  Biso   1.000  H
  H15      1.0000 0.11200  0.73000  0.23200  Biso   1.000  H
  H16      1.0000 0.88800  0.27000  0.23200  Biso   1.000  H
  N1       1.0000 0.50000  0.57950  0.32960  Biso   1.000  N
  N2       1.0000 0.50000  0.42050  0.32960  Biso   1.000  N
  N3       1.0000 0.00000  0.07950  0.82960  Biso   1.000  N
  N4       1.0000 0.00000  0.92050  0.82960  Biso   1.000  N
  C13      1.0000 0.50000  0.50000  0.45100  Biso   1.000  C
  C14      1.0000 0.00000  0.00000  0.95100  Biso   1.000  C
  H17      1.0000 0.57800  0.50000  0.53900  Biso   1.000  H
  H18      1.0000 0.42200  0.50000  0.53900  Biso   1.000  H
  H19      1.0000 0.07800  0.00000  0.03900  Biso   1.000  H
  H20      1.0000 0.92200  0.00000  0.03900  Biso   1.000  H
  C15      1.0000 0.65890  0.57590  0.20370  Biso   1.000  C
  C16      1.0000 0.34110  0.42410  0.20370  Biso   1.000  C
  C17      1.0000 0.65890  0.42410  0.20370  Biso   1.000  C
  C18      1.0000 0.34110  0.57590  0.20370  Biso   1.000  C
  C19      1.0000 0.15890  0.07590  0.70370  Biso   1.000  C
  C20      1.0000 0.84110  0.92410  0.70370  Biso   1.000  C
  C21      1.0000 0.15890  0.92410  0.70370  Biso   1.000  C
  C22      1.0000 0.84110  0.07590  0.70370  Biso   1.000  C
  H21      1.0000 0.77880  0.57550  0.26840  Biso   1.000  H
  H22      1.0000 0.22120  0.42450  0.26840  Biso   1.000  H
  H23      1.0000 0.77880  0.42450  0.26840  Biso   1.000  H
  H24      1.0000 0.22120  0.57550  0.26840  Biso   1.000  H
  H25      1.0000 0.27880  0.07550  0.76840  Biso   1.000  H
  H26      1.0000 0.72120  0.92450  0.76840  Biso   1.000  H
  H27      1.0000 0.27880  0.92450  0.76840  Biso   1.000  H
  H28      1.0000 0.72120  0.07550  0.76840  Biso   1.000  H
  H29      1.0000 0.65660  0.62820  0.13370  Biso   1.000  H
  H30      1.0000 0.34340  0.37180  0.13370  Biso   1.000  H
  H31      1.0000 0.65660  0.37180  0.13370  Biso   1.000  H
  H32      1.0000 0.34340  0.62820  0.13370  Biso   1.000  H
  H33      1.0000 0.15660  0.12820  0.63370  Biso   1.000  H
  H34      1.0000 0.84340  0.87180  0.63370  Biso   1.000  H
  H35      1.0000 0.15660  0.87180  0.63370  Biso   1.000  H
  H36      1.0000 0.84340  0.12820  0.63370  Biso   1.000  H
  N5       1.0000 0.65680  0.50000  0.08270  Biso   1.000  N
  N6       1.0000 0.34320  0.50000  0.08270  Biso   1.000  N
  N7       1.0000 0.15680  0.00000  0.58270  Biso   1.000  N
  N8       1.0000 0.84320  0.00000  0.58270  Biso   1.000  N
  C23      1.0000 0.50000  0.50000  0.96500  Biso   1.000  C
  C24      1.0000 0.00000  0.00000  0.46500  Biso   1.000  C
  H37      1.0000 0.50000  0.56600  0.87000  Biso   1.000  H
  H38      1.0000 0.50000  0.43400  0.87000  Biso   1.000  H
  H39      1.0000 0.00000  0.06600  0.37000  Biso   1.000  H
  H40      1.0000 0.00000  0.93400  0.37000  Biso   1.000  H
