data_image0
_cell_length_a       7.6236
_cell_length_b       15.488
_cell_length_c       6.9565
_cell_angle_alpha    90
_cell_angle_beta     90
_cell_angle_gamma    90

_symmetry_space_group_name_H-M    "P 1"
_symmetry_int_tables_number       1

loop_
  _symmetry_equiv_pos_as_xyz
  'x, y, z'

loop_
  _atom_site_label
  _atom_site_occupancy
  _atom_site_fract_x
  _atom_site_fract_y
  _atom_site_fract_z
  _atom_site_thermal_displace_type
  _atom_site_B_iso_or_equiv
  _atom_site_type_symbol
  Cu1      1.0000 0.00000  0.19143  0.97954  Biso   1.000  Cu
  Cu2      1.0000 0.00000  0.80857  0.97954  Biso   1.000  Cu
  Cu3      1.0000 0.50000  0.69143  0.47954  Biso   1.000  Cu
  Cu4      1.0000 0.50000  0.30857  0.47954  Biso   1.000  Cu
  C1       1.0000 0.16710  0.33160  0.73010  Biso   1.000  C
  C2       1.0000 0.83290  0.66840  0.73010  Biso   1.000  C
  C3       1.0000 0.16710  0.66840  0.73010  Biso   1.000  C
  C4       1.0000 0.83290  0.33160  0.73010  Biso   1.000  C
  C5       1.0000 0.66710  0.83160  0.23010  Biso   1.000  C
  C6       1.0000 0.33290  0.16840  0.23010  Biso   1.000  C
  C7       1.0000 0.66710  0.16840  0.23010  Biso   1.000  C
  C8       1.0000 0.33290  0.83160  0.23010  Biso   1.000  C
  C9       1.0000 0.00000  0.38060  0.76110  Biso   1.000  C
  C10      1.0000 0.00000  0.61940  0.76110  Biso   1.000  C
  C11      1.0000 0.50000  0.88060  0.26110  Biso   1.000  C
  C12      1.0000 0.50000  0.11940  0.26110  Biso   1.000  C
  H1       1.0000 0.00000  0.40260  0.89180  Biso   1.000  H
  H2       1.0000 0.00000  0.59740  0.89180  Biso   1.000  H
  H3       1.0000 0.50000  0.90260  0.39180  Biso   1.000  H
  H4       1.0000 0.50000  0.09740  0.39180  Biso   1.000  H
  H5       1.0000 0.00000  0.43010  0.67560  Biso   1.000  H
  H6       1.0000 0.00000  0.56990  0.67560  Biso   1.000  H
  H7       1.0000 0.50000  0.93010  0.17560  Biso   1.000  H
  H8       1.0000 0.50000  0.06990  0.17560  Biso   1.000  H
  C13      1.0000 0.00000  0.00000  0.92960  Biso   1.000  C
  C14      1.0000 0.50000  0.50000  0.42960  Biso   1.000  C
  H9       1.0000 0.10310  0.00000  0.01140  Biso   1.000  H
  H10      1.0000 0.89690  0.00000  0.01140  Biso   1.000  H
  H11      1.0000 0.60310  0.50000  0.51140  Biso   1.000  H
  H12      1.0000 0.39690  0.50000  0.51140  Biso   1.000  H
  C15      1.0000 0.16070  0.07740  0.68080  Biso   1.000  C
  C16      1.0000 0.83930  0.92260  0.68080  Biso   1.000  C
  C17      1.0000 0.16070  0.92260  0.68080  Biso   1.000  C
  C18      1.0000 0.83930  0.07740  0.68080  Biso   1.000  C
  C19      1.0000 0.66070  0.57740  0.18080  Biso   1.000  C
  C20      1.0000 0.33930  0.42260  0.18080  Biso   1.000  C
  C21      1.0000 0.66070  0.42260  0.18080  Biso   1.000  C
  C22      1.0000 0.33930  0.57740  0.18080  Biso   1.000  C
  H13      1.0000 0.16410  0.12840  0.60000  Biso   1.000  H
  H14      1.0000 0.83590  0.87160  0.60000  Biso   1.000  H
  H15      1.0000 0.16410  0.87160  0.60000  Biso   1.000  H
  H16      1.0000 0.83590  0.12840  0.60000  Biso   1.000  H
  H17      1.0000 0.66410  0.62840  0.10000  Biso   1.000  H
  H18      1.0000 0.33590  0.37160  0.10000  Biso   1.000  H
  H19      1.0000 0.66410  0.37160  0.10000  Biso   1.000  H
  H20      1.0000 0.33590  0.62840  0.10000  Biso   1.000  H
  H21      1.0000 0.26480  0.07740  0.76100  Biso   1.000  H
  H22      1.0000 0.73520  0.92260  0.76100  Biso   1.000  H
  H23      1.0000 0.26480  0.92260  0.76100  Biso   1.000  H
  H24      1.0000 0.73520  0.07740  0.76100  Biso   1.000  H
  H25      1.0000 0.76480  0.57740  0.26100  Biso   1.000  H
  H26      1.0000 0.23520  0.42260  0.26100  Biso   1.000  H
  H27      1.0000 0.76480  0.42260  0.26100  Biso   1.000  H
  H28      1.0000 0.23520  0.57740  0.26100  Biso   1.000  H
  C23      1.0000 0.00000  0.00000  0.44280  Biso   1.000  C
  C24      1.0000 0.50000  0.50000  0.94280  Biso   1.000  C
  H29      1.0000 0.00000  0.94940  0.36070  Biso   1.000  H
  H30      1.0000 0.00000  0.05060  0.36070  Biso   1.000  H
  H31      1.0000 0.50000  0.44940  0.86070  Biso   1.000  H
  H32      1.0000 0.50000  0.55060  0.86070  Biso   1.000  H
  N1       1.0000 0.00000  0.07980  0.80530  Biso   1.000  N
  N2       1.0000 0.00000  0.92020  0.80530  Biso   1.000  N
  N3       1.0000 0.50000  0.57980  0.30530  Biso   1.000  N
  N4       1.0000 0.50000  0.42020  0.30530  Biso   1.000  N
  N5       1.0000 0.15950  0.00000  0.56030  Biso   1.000  N
  N6       1.0000 0.84050  0.00000  0.56030  Biso   1.000  N
  N7       1.0000 0.65950  0.50000  0.06030  Biso   1.000  N
  N8       1.0000 0.34050  0.50000  0.06030  Biso   1.000  N
  O1       1.0000 0.19040  0.25960  0.81270  Biso   1.000  O
  O2       1.0000 0.80960  0.74040  0.81270  Biso   1.000  O
  O3       1.0000 0.19040  0.74040  0.81270  Biso   1.000  O
  O4       1.0000 0.80960  0.25960  0.81270  Biso   1.000  O
  O5       1.0000 0.69040  0.75960  0.31270  Biso   1.000  O
  O6       1.0000 0.30960  0.24040  0.31270  Biso   1.000  O
  O7       1.0000 0.69040  0.24040  0.31270  Biso   1.000  O
  O8       1.0000 0.30960  0.75960  0.31270  Biso   1.000  O
  O9       1.0000 0.27720  0.36500  0.62100  Biso   1.000  O
  O10      1.0000 0.72280  0.63500  0.62100  Biso   1.000  O
  O11      1.0000 0.27720  0.63500  0.62100  Biso   1.000  O
  O12      1.0000 0.72280  0.36500  0.62100  Biso   1.000  O
  O13      1.0000 0.77720  0.86500  0.12100  Biso   1.000  O
  O14      1.0000 0.22280  0.13500  0.12100  Biso   1.000  O
  O15      1.0000 0.77720  0.13500  0.12100  Biso   1.000  O
  O16      1.0000 0.22280  0.86500  0.12100  Biso   1.000  O
  O17      1.0000 0.00000  0.28660  0.17130  Biso   1.000  O
  O18      1.0000 0.00000  0.71340  0.17130  Biso   1.000  O
  O19      1.0000 0.50000  0.78660  0.67130  Biso   1.000  O
  O20      1.0000 0.50000  0.21340  0.67130  Biso   1.000  O
  H33      1.0000 0.90970  0.28450  0.23510  Biso   1.000  H
  H34      1.0000 0.09030  0.71550  0.23510  Biso   1.000  H
  H35      1.0000 0.90970  0.71550  0.23510  Biso   1.000  H
  H36      1.0000 0.09030  0.28450  0.23510  Biso   1.000  H
  H37      1.0000 0.40970  0.78450  0.73510  Biso   1.000  H
  H38      1.0000 0.59030  0.21550  0.73510  Biso   1.000  H
  H39      1.0000 0.40970  0.21550  0.73510  Biso   1.000  H
  H40      1.0000 0.59030  0.78450  0.73510  Biso   1.000  H
