data_image0
_cell_length_a       17.1136
_cell_length_b       12.5802
_cell_length_c       8.5708
_cell_angle_alpha    90
_cell_angle_beta     116.85
_cell_angle_gamma    90

_symmetry_space_group_name_H-M    "P 1"
_symmetry_int_tables_number       1

loop_
  _symmetry_equiv_pos_as_xyz
  'x, y, z'

loop_
  _atom_site_label
  _atom_site_occupancy
  _atom_site_fract_x
  _atom_site_fract_y
  _atom_site_fract_z
  _atom_site_thermal_displace_type
  _atom_site_B_iso_or_equiv
  _atom_site_type_symbol
  Cu1      1.0000 0.00000  0.00000  0.00000  Biso   1.000  Cu
  Cu2      1.0000 0.50000  0.50000  0.00000  Biso   1.000  Cu
  N1       1.0000 0.06400  0.11100  0.17300  Biso   1.000  N
  N2       1.0000 0.93600  0.11100  0.82700  Biso   1.000  N
  N3       1.0000 0.56400  0.61100  0.17300  Biso   1.000  N
  N4       1.0000 0.43600  0.61100  0.82700  Biso   1.000  N
  F1       1.0000 0.89710  0.00280  0.12210  Biso   1.000  F
  F2       1.0000 0.10290  0.00280  0.87790  Biso   1.000  F
  F3       1.0000 0.39710  0.50280  0.12210  Biso   1.000  F
  F4       1.0000 0.60290  0.50280  0.87790  Biso   1.000  F
  N5       1.0000 0.06800  0.88800  0.17800  Biso   1.000  N
  N6       1.0000 0.93200  0.88800  0.82200  Biso   1.000  N
  N7       1.0000 0.56800  0.38800  0.17800  Biso   1.000  N
  N8       1.0000 0.43200  0.38800  0.82200  Biso   1.000  N
  C1       1.0000 0.06200  0.13700  0.32900  Biso   1.000  C
  C2       1.0000 0.93800  0.13700  0.67100  Biso   1.000  C
  C3       1.0000 0.56200  0.63700  0.32900  Biso   1.000  C
  C4       1.0000 0.43800  0.63700  0.67100  Biso   1.000  C
  C5       1.0000 0.10800  0.18100  0.11500  Biso   1.000  C
  C6       1.0000 0.89200  0.18100  0.88500  Biso   1.000  C
  C7       1.0000 0.60800  0.68100  0.11500  Biso   1.000  C
  C8       1.0000 0.39200  0.68100  0.88500  Biso   1.000  C
  B1       1.0000 0.83400  0.99700  0.18560  Biso   1.000  B
  B2       1.0000 0.16600  0.99700  0.81440  Biso   1.000  B
  B3       1.0000 0.33400  0.49700  0.18560  Biso   1.000  B
  B4       1.0000 0.66600  0.49700  0.81440  Biso   1.000  B
  C9       1.0000 0.12400  0.82200  0.14800  Biso   1.000  C
  C10      1.0000 0.87600  0.82200  0.85200  Biso   1.000  C
  C11      1.0000 0.62400  0.32200  0.14800  Biso   1.000  C
  C12      1.0000 0.37600  0.32200  0.85200  Biso   1.000  C
  C13      1.0000 0.04800  0.86000  0.31100  Biso   1.000  C
  C14      1.0000 0.95200  0.86000  0.68900  Biso   1.000  C
  C15      1.0000 0.54800  0.36000  0.31100  Biso   1.000  C
  C16      1.0000 0.45200  0.36000  0.68900  Biso   1.000  C
  C17      1.0000 0.10200  0.22700  0.42200  Biso   1.000  C
  C18      1.0000 0.89800  0.22700  0.57800  Biso   1.000  C
  C19      1.0000 0.60200  0.72700  0.42200  Biso   1.000  C
  C20      1.0000 0.39800  0.72700  0.57800  Biso   1.000  C
  C21      1.0000 0.14900  0.27200  0.20700  Biso   1.000  C
  C22      1.0000 0.85100  0.27200  0.79300  Biso   1.000  C
  C23      1.0000 0.64900  0.77200  0.20700  Biso   1.000  C
  C24      1.0000 0.35100  0.77200  0.79300  Biso   1.000  C
  F5       1.0000 0.86760  0.03910  0.34700  Biso   1.000  F
  F6       1.0000 0.13240  0.03910  0.65300  Biso   1.000  F
  F7       1.0000 0.36760  0.53910  0.34700  Biso   1.000  F
  F8       1.0000 0.63240  0.53910  0.65300  Biso   1.000  F
  F9       1.0000 0.81800  0.89440  0.20000  Biso   1.000  F
  F10      1.0000 0.18200  0.89440  0.80000  Biso   1.000  F
  F11      1.0000 0.31800  0.39440  0.20000  Biso   1.000  F
  F12      1.0000 0.68200  0.39440  0.80000  Biso   1.000  F
  F13      1.0000 0.75850  0.04100  0.07600  Biso   1.000  F
  F14      1.0000 0.24150  0.04100  0.92400  Biso   1.000  F
  F15      1.0000 0.25850  0.54100  0.07600  Biso   1.000  F
  F16      1.0000 0.74150  0.54100  0.92400  Biso   1.000  F
  C25      1.0000 0.16000  0.73100  0.24500  Biso   1.000  C
  C26      1.0000 0.84000  0.73100  0.75500  Biso   1.000  C
  C27      1.0000 0.66000  0.23100  0.24500  Biso   1.000  C
  C28      1.0000 0.34000  0.23100  0.75500  Biso   1.000  C
  C29      1.0000 0.08200  0.76900  0.41000  Biso   1.000  C
  C30      1.0000 0.91800  0.76900  0.59000  Biso   1.000  C
  C31      1.0000 0.58200  0.26900  0.41000  Biso   1.000  C
  C32      1.0000 0.41800  0.26900  0.59000  Biso   1.000  C
  C33      1.0000 0.14600  0.29500  0.36100  Biso   1.000  C
  C34      1.0000 0.85400  0.29500  0.63900  Biso   1.000  C
  C35      1.0000 0.64600  0.79500  0.36100  Biso   1.000  C
  C36      1.0000 0.35400  0.79500  0.63900  Biso   1.000  C
  C37      1.0000 0.13900  0.70400  0.37800  Biso   1.000  C
  C38      1.0000 0.86100  0.70400  0.62200  Biso   1.000  C
  C39      1.0000 0.63900  0.20400  0.37800  Biso   1.000  C
  C40      1.0000 0.36100  0.20400  0.62200  Biso   1.000  C
  C41      1.0000 0.18800  0.39700  0.46400  Biso   1.000  C
  C42      1.0000 0.81200  0.39700  0.53600  Biso   1.000  C
  C43      1.0000 0.68800  0.89700  0.46400  Biso   1.000  C
  C44      1.0000 0.31200  0.89700  0.53600  Biso   1.000  C
  C45      1.0000 0.17600  0.60100  0.48400  Biso   1.000  C
  C46      1.0000 0.82400  0.60100  0.51600  Biso   1.000  C
  C47      1.0000 0.67600  0.10100  0.48400  Biso   1.000  C
  C48      1.0000 0.32400  0.10100  0.51600  Biso   1.000  C
  C49      1.0000 0.13580  0.49900  0.37490  Biso   1.000  C
  C50      1.0000 0.86420  0.49900  0.62510  Biso   1.000  C
  C51      1.0000 0.63580  0.99900  0.37490  Biso   1.000  C
  C52      1.0000 0.36420  0.99900  0.62510  Biso   1.000  C
