data_image0
_cell_length_a       17.2504
_cell_length_b       12.4653
_cell_length_c       8.7595
_cell_angle_alpha    90
_cell_angle_beta     115.516
_cell_angle_gamma    90

_symmetry_space_group_name_H-M    "P 1"
_symmetry_int_tables_number       1

loop_
  _symmetry_equiv_pos_as_xyz
  'x, y, z'

loop_
  _atom_site_label
  _atom_site_occupancy
  _atom_site_fract_x
  _atom_site_fract_y
  _atom_site_fract_z
  _atom_site_thermal_displace_type
  _atom_site_B_iso_or_equiv
  _atom_site_type_symbol
  Cu1      1.0000 0.00000  0.00000  0.00000  Biso   1.000  Cu
  Cu2      1.0000 0.50000  0.50000  0.00000  Biso   1.000  Cu
  N1       1.0000 0.05600  0.11300  0.17800  Biso   1.000  N
  N2       1.0000 0.94400  0.11300  0.82200  Biso   1.000  N
  N3       1.0000 0.55600  0.61300  0.17800  Biso   1.000  N
  N4       1.0000 0.44400  0.61300  0.82200  Biso   1.000  N
  N5       1.0000 0.07300  0.88400  0.15100  Biso   1.000  N
  N6       1.0000 0.92700  0.88400  0.84900  Biso   1.000  N
  N7       1.0000 0.57300  0.38400  0.15100  Biso   1.000  N
  N8       1.0000 0.42700  0.38400  0.84900  Biso   1.000  N
  C1       1.0000 0.12400  0.81800  0.11100  Biso   1.000  C
  C2       1.0000 0.87600  0.81800  0.88900  Biso   1.000  C
  C3       1.0000 0.62400  0.31800  0.11100  Biso   1.000  C
  C4       1.0000 0.37600  0.31800  0.88900  Biso   1.000  C
  C5       1.0000 0.19400  0.59800  0.43300  Biso   1.000  C
  C6       1.0000 0.80600  0.59800  0.56700  Biso   1.000  C
  C7       1.0000 0.69400  0.09800  0.43300  Biso   1.000  C
  C8       1.0000 0.30600  0.09800  0.56700  Biso   1.000  C
  C9       1.0000 0.05900  0.85600  0.28500  Biso   1.000  C
  C10      1.0000 0.94100  0.85600  0.71500  Biso   1.000  C
  C11      1.0000 0.55900  0.35600  0.28500  Biso   1.000  C
  C12      1.0000 0.44100  0.35600  0.71500  Biso   1.000  C
  C13      1.0000 0.14600  0.70000  0.33800  Biso   1.000  C
  C14      1.0000 0.85400  0.70000  0.66200  Biso   1.000  C
  C15      1.0000 0.64600  0.20000  0.33800  Biso   1.000  C
  C16      1.0000 0.35400  0.20000  0.66200  Biso   1.000  C
  C17      1.0000 0.15100  0.28700  0.36100  Biso   1.000  C
  C18      1.0000 0.84900  0.28700  0.63900  Biso   1.000  C
  C19      1.0000 0.65100  0.78700  0.36100  Biso   1.000  C
  C20      1.0000 0.34900  0.78700  0.63900  Biso   1.000  C
  C21      1.0000 0.10800  0.16700  0.12900  Biso   1.000  C
  C22      1.0000 0.89200  0.16700  0.87100  Biso   1.000  C
  C23      1.0000 0.60800  0.66700  0.12900  Biso   1.000  C
  C24      1.0000 0.39200  0.66700  0.87100  Biso   1.000  C
  C25      1.0000 0.09300  0.76500  0.38000  Biso   1.000  C
  C26      1.0000 0.90700  0.76500  0.62000  Biso   1.000  C
  C27      1.0000 0.59300  0.26500  0.38000  Biso   1.000  C
  C28      1.0000 0.40700  0.26500  0.62000  Biso   1.000  C
  C29      1.0000 0.09900  0.23400  0.41200  Biso   1.000  C
  C30      1.0000 0.90100  0.23400  0.58800  Biso   1.000  C
  C31      1.0000 0.59900  0.73400  0.41200  Biso   1.000  C
  C32      1.0000 0.40100  0.73400  0.58800  Biso   1.000  C
  C33      1.0000 0.15600  0.25400  0.21600  Biso   1.000  C
  C34      1.0000 0.84400  0.25400  0.78400  Biso   1.000  C
  C35      1.0000 0.65600  0.75400  0.21600  Biso   1.000  C
  C36      1.0000 0.34400  0.75400  0.78400  Biso   1.000  C
  C37      1.0000 0.16100  0.72700  0.20000  Biso   1.000  C
  C38      1.0000 0.83900  0.72700  0.80000  Biso   1.000  C
  C39      1.0000 0.66100  0.22700  0.20000  Biso   1.000  C
  C40      1.0000 0.33900  0.22700  0.80000  Biso   1.000  C
  C41      1.0000 0.05300  0.14700  0.31900  Biso   1.000  C
  C42      1.0000 0.94700  0.14700  0.68100  Biso   1.000  C
  C43      1.0000 0.55300  0.64700  0.31900  Biso   1.000  C
  C44      1.0000 0.44700  0.64700  0.68100  Biso   1.000  C
  C45      1.0000 0.13950  0.49400  0.35800  Biso   1.000  C
  C46      1.0000 0.86050  0.49400  0.64200  Biso   1.000  C
  C47      1.0000 0.63950  0.99400  0.35800  Biso   1.000  C
  C48      1.0000 0.36050  0.99400  0.64200  Biso   1.000  C
  C49      1.0000 0.17700  0.39100  0.46700  Biso   1.000  C
  C50      1.0000 0.82300  0.39100  0.53300  Biso   1.000  C
  C51      1.0000 0.67700  0.89100  0.46700  Biso   1.000  C
  C52      1.0000 0.32300  0.89100  0.53300  Biso   1.000  C
  F1       1.0000 0.89770  0.00100  0.12800  Biso   1.000  F
  F2       1.0000 0.10230  0.00100  0.87200  Biso   1.000  F
  F3       1.0000 0.39770  0.50100  0.12800  Biso   1.000  F
  F4       1.0000 0.60230  0.50100  0.87200  Biso   1.000  F
  F5       1.0000 0.77500  0.04300  0.12800  Biso   1.000  F
  F6       1.0000 0.22500  0.04300  0.87200  Biso   1.000  F
  F7       1.0000 0.27500  0.54300  0.12800  Biso   1.000  F
  F8       1.0000 0.72500  0.54300  0.87200  Biso   1.000  F
  F9       1.0000 0.89190  0.03200  0.37100  Biso   1.000  F
  F10      1.0000 0.10810  0.03200  0.62900  Biso   1.000  F
  F11      1.0000 0.39190  0.53200  0.37100  Biso   1.000  F
  F12      1.0000 0.60810  0.53200  0.62900  Biso   1.000  F
  F13      1.0000 0.83130  0.88600  0.21700  Biso   1.000  F
  F14      1.0000 0.16870  0.88600  0.78300  Biso   1.000  F
  F15      1.0000 0.33130  0.38600  0.21700  Biso   1.000  F
  F16      1.0000 0.66870  0.38600  0.78300  Biso   1.000  F
  B1       1.0000 0.84960  0.99000  0.21190  Biso   1.000  B
  B2       1.0000 0.15040  0.99000  0.78810  Biso   1.000  B
  B3       1.0000 0.34960  0.49000  0.21190  Biso   1.000  B
  B4       1.0000 0.65040  0.49000  0.78810  Biso   1.000  B
  O1       1.0000 0.80100  0.60700  0.15900  Biso   1.000  O
  O2       1.0000 0.19900  0.60700  0.84100  Biso   1.000  O
  O3       1.0000 0.30100  0.10700  0.15900  Biso   1.000  O
  O4       1.0000 0.69900  0.10700  0.84100  Biso   1.000  O
  C53      1.0000 0.86500  0.57300  0.15000  Biso   1.000  C
  C54      1.0000 0.13500  0.57300  0.85000  Biso   1.000  C
  C55      1.0000 0.36500  0.07300  0.15000  Biso   1.000  C
  C56      1.0000 0.63500  0.07300  0.85000  Biso   1.000  C
  O5       1.0000 0.92700  0.53800  0.13800  Biso   1.000  O
  O6       1.0000 0.07300  0.53800  0.86200  Biso   1.000  O
  O7       1.0000 0.42700  0.03800  0.13800  Biso   1.000  O
  O8       1.0000 0.57300  0.03800  0.86200  Biso   1.000  O
