data_image0
_cell_length_a       17.9512
_cell_length_b       12.1908
_cell_length_c       9.06
_cell_angle_alpha    90
_cell_angle_beta     114.702
_cell_angle_gamma    90

_symmetry_space_group_name_H-M    "P 1"
_symmetry_int_tables_number       1

loop_
  _symmetry_equiv_pos_as_xyz
  'x, y, z'

loop_
  _atom_site_label
  _atom_site_occupancy
  _atom_site_fract_x
  _atom_site_fract_y
  _atom_site_fract_z
  _atom_site_thermal_displace_type
  _atom_site_B_iso_or_equiv
  _atom_site_type_symbol
  N1       1.0000 0.08000  0.88100  0.12500  Biso   1.000  N
  N2       1.0000 0.92000  0.88100  0.87500  Biso   1.000  N
  N3       1.0000 0.58000  0.38100  0.12500  Biso   1.000  N
  N4       1.0000 0.42000  0.38100  0.87500  Biso   1.000  N
  N5       1.0000 0.06300  0.11200  0.16300  Biso   1.000  N
  N6       1.0000 0.93700  0.11200  0.83700  Biso   1.000  N
  N7       1.0000 0.56300  0.61200  0.16300  Biso   1.000  N
  N8       1.0000 0.43700  0.61200  0.83700  Biso   1.000  N
  C1       1.0000 0.11600  0.17100  0.12500  Biso   1.000  C
  C2       1.0000 0.88400  0.17100  0.87500  Biso   1.000  C
  C3       1.0000 0.61600  0.67100  0.12500  Biso   1.000  C
  C4       1.0000 0.38400  0.67100  0.87500  Biso   1.000  C
  C5       1.0000 0.16100  0.25700  0.22200  Biso   1.000  C
  C6       1.0000 0.83900  0.25700  0.77800  Biso   1.000  C
  C7       1.0000 0.66100  0.75700  0.22200  Biso   1.000  C
  C8       1.0000 0.33900  0.75700  0.77800  Biso   1.000  C
  C9       1.0000 0.15200  0.28300  0.36300  Biso   1.000  C
  C10      1.0000 0.84800  0.28300  0.63700  Biso   1.000  C
  C11      1.0000 0.65200  0.78300  0.36300  Biso   1.000  C
  C12      1.0000 0.34800  0.78300  0.63700  Biso   1.000  C
  C13      1.0000 0.09800  0.22400  0.40500  Biso   1.000  C
  C14      1.0000 0.90200  0.22400  0.59500  Biso   1.000  C
  C15      1.0000 0.59800  0.72400  0.40500  Biso   1.000  C
  C16      1.0000 0.40200  0.72400  0.59500  Biso   1.000  C
  C17      1.0000 0.05500  0.14000  0.30500  Biso   1.000  C
  C18      1.0000 0.94500  0.14000  0.69500  Biso   1.000  C
  C19      1.0000 0.55500  0.64000  0.30500  Biso   1.000  C
  C20      1.0000 0.44500  0.64000  0.69500  Biso   1.000  C
  C21      1.0000 0.13500  0.81500  0.10600  Biso   1.000  C
  C22      1.0000 0.86500  0.81500  0.89400  Biso   1.000  C
  C23      1.0000 0.63500  0.31500  0.10600  Biso   1.000  C
  C24      1.0000 0.36500  0.31500  0.89400  Biso   1.000  C
  C25      1.0000 0.16900  0.72600  0.20500  Biso   1.000  C
  C26      1.0000 0.83100  0.72600  0.79500  Biso   1.000  C
  C27      1.0000 0.66900  0.22600  0.20500  Biso   1.000  C
  C28      1.0000 0.33100  0.22600  0.79500  Biso   1.000  C
  C29      1.0000 0.14700  0.70300  0.32700  Biso   1.000  C
  C30      1.0000 0.85300  0.70300  0.67300  Biso   1.000  C
  C31      1.0000 0.64700  0.20300  0.32700  Biso   1.000  C
  C32      1.0000 0.35300  0.20300  0.67300  Biso   1.000  C
  C33      1.0000 0.09100  0.76700  0.34900  Biso   1.000  C
  C34      1.0000 0.90900  0.76700  0.65100  Biso   1.000  C
  C35      1.0000 0.59100  0.26700  0.34900  Biso   1.000  C
  C36      1.0000 0.40900  0.26700  0.65100  Biso   1.000  C
  C37      1.0000 0.05800  0.85500  0.24700  Biso   1.000  C
  C38      1.0000 0.94200  0.85500  0.75300  Biso   1.000  C
  C39      1.0000 0.55800  0.35500  0.24700  Biso   1.000  C
  C40      1.0000 0.44200  0.35500  0.75300  Biso   1.000  C
  C41      1.0000 0.18600  0.39100  0.44800  Biso   1.000  C
  C42      1.0000 0.81400  0.39100  0.55200  Biso   1.000  C
  C43      1.0000 0.68600  0.89100  0.44800  Biso   1.000  C
  C44      1.0000 0.31400  0.89100  0.55200  Biso   1.000  C
  C45      1.0000 0.14800  0.49300  0.34100  Biso   1.000  C
  C46      1.0000 0.85200  0.49300  0.65900  Biso   1.000  C
  C47      1.0000 0.64800  0.99300  0.34100  Biso   1.000  C
  C48      1.0000 0.35200  0.99300  0.65900  Biso   1.000  C
  C49      1.0000 0.20100  0.59800  0.40000  Biso   1.000  C
  C50      1.0000 0.79900  0.59800  0.60000  Biso   1.000  C
  C51      1.0000 0.70100  0.09800  0.40000  Biso   1.000  C
  C52      1.0000 0.29900  0.09800  0.60000  Biso   1.000  C
  F1       1.0000 0.08880  0.00800  0.85100  Biso   1.000  F
  F2       1.0000 0.91120  0.00800  0.14900  Biso   1.000  F
  F3       1.0000 0.58880  0.50800  0.85100  Biso   1.000  F
  F4       1.0000 0.41120  0.50800  0.14900  Biso   1.000  F
  B1       1.0000 0.14170  0.99600  0.77900  Biso   1.000  B
  B2       1.0000 0.85830  0.99600  0.22100  Biso   1.000  B
  B3       1.0000 0.64170  0.49600  0.77900  Biso   1.000  B
  B4       1.0000 0.35830  0.49600  0.22100  Biso   1.000  B
  F5       1.0000 0.20950  0.05700  0.85900  Biso   1.000  F
  F6       1.0000 0.79050  0.05700  0.14100  Biso   1.000  F
  F7       1.0000 0.70950  0.55700  0.85900  Biso   1.000  F
  F8       1.0000 0.29050  0.55700  0.14100  Biso   1.000  F
  F9       1.0000 0.10480  0.02900  0.62400  Biso   1.000  F
  F10      1.0000 0.89520  0.02900  0.37600  Biso   1.000  F
  F11      1.0000 0.60480  0.52900  0.62400  Biso   1.000  F
  F12      1.0000 0.39520  0.52900  0.37600  Biso   1.000  F
  F13      1.0000 0.16010  0.89000  0.78300  Biso   1.000  F
  F14      1.0000 0.83990  0.89000  0.21700  Biso   1.000  F
  F15      1.0000 0.66010  0.39000  0.78300  Biso   1.000  F
  F16      1.0000 0.33990  0.39000  0.21700  Biso   1.000  F
  Cu1      1.0000 0.00000  0.00000  0.00000  Biso   1.000  Cu
  Cu2      1.0000 0.50000  0.50000  0.00000  Biso   1.000  Cu
  O1       1.0000 0.83000  0.60400  0.15200  Biso   1.000  O
  O2       1.0000 0.17000  0.60400  0.84800  Biso   1.000  O
  O3       1.0000 0.33000  0.10400  0.15200  Biso   1.000  O
  O4       1.0000 0.67000  0.10400  0.84800  Biso   1.000  O
  C53      1.0000 0.91200  0.57100  0.24800  Biso   1.000  C
  C54      1.0000 0.08800  0.57100  0.75200  Biso   1.000  C
  C55      1.0000 0.41200  0.07100  0.24800  Biso   1.000  C
  C56      1.0000 0.58800  0.07100  0.75200  Biso   1.000  C
  C57      1.0000 0.91300  0.45000  0.23900  Biso   1.000  C
  C58      1.0000 0.08700  0.45000  0.76100  Biso   1.000  C
  C59      1.0000 0.41300  0.95000  0.23900  Biso   1.000  C
  C60      1.0000 0.58700  0.95000  0.76100  Biso   1.000  C
