data_image0
_cell_length_a       8.6614
_cell_length_b       13.6399
_cell_length_c       14.5832
_cell_angle_alpha    90
_cell_angle_beta     90.882
_cell_angle_gamma    90

_symmetry_space_group_name_H-M    "P 1"
_symmetry_int_tables_number       1

loop_
  _symmetry_equiv_pos_as_xyz
  'x, y, z'

loop_
  _atom_site_label
  _atom_site_occupancy
  _atom_site_fract_x
  _atom_site_fract_y
  _atom_site_fract_z
  _atom_site_thermal_displace_type
  _atom_site_B_iso_or_equiv
  _atom_site_type_symbol
  Cu1      1.0000 0.50000  0.50000  0.50000  Biso   1.000  Cu
  Cu2      1.0000 0.50000  0.50000  0.00000  Biso   1.000  Cu
  Cu3      1.0000 0.00000  0.00000  0.50000  Biso   1.000  Cu
  Cu4      1.0000 0.00000  0.00000  0.00000  Biso   1.000  Cu
  Cu5      1.0000 0.00000  0.67668  0.75000  Biso   1.000  Cu
  Cu6      1.0000 0.50000  0.17668  0.75000  Biso   1.000  Cu
  Cu7      1.0000 0.00000  0.32332  0.25000  Biso   1.000  Cu
  Cu8      1.0000 0.50000  0.82332  0.25000  Biso   1.000  Cu
  O1       1.0000 0.41496  0.61081  0.57032  Biso   1.000  O
  O2       1.0000 0.58504  0.61081  0.92968  Biso   1.000  O
  O3       1.0000 0.91496  0.11081  0.57032  Biso   1.000  O
  O4       1.0000 0.08504  0.11081  0.92968  Biso   1.000  O
  O5       1.0000 0.58504  0.38919  0.42968  Biso   1.000  O
  O6       1.0000 0.41496  0.38919  0.07032  Biso   1.000  O
  O7       1.0000 0.08504  0.88919  0.42968  Biso   1.000  O
  O8       1.0000 0.91496  0.88919  0.07032  Biso   1.000  O
  O9       1.0000 0.24414  0.68237  0.65880  Biso   1.000  O
  O10      1.0000 0.75586  0.68237  0.84120  Biso   1.000  O
  O11      1.0000 0.74414  0.18237  0.65880  Biso   1.000  O
  O12      1.0000 0.25586  0.18237  0.84120  Biso   1.000  O
  O13      1.0000 0.75586  0.31763  0.34120  Biso   1.000  O
  O14      1.0000 0.24414  0.31763  0.15880  Biso   1.000  O
  O15      1.0000 0.25586  0.81763  0.34120  Biso   1.000  O
  O16      1.0000 0.74414  0.81763  0.15880  Biso   1.000  O
  O17      1.0000 0.60306  0.59724  0.42080  Biso   1.000  O
  O18      1.0000 0.39694  0.59724  0.07920  Biso   1.000  O
  O19      1.0000 0.10306  0.09724  0.42080  Biso   1.000  O
  O20      1.0000 0.89694  0.09724  0.07920  Biso   1.000  O
  O21      1.0000 0.39694  0.40276  0.57920  Biso   1.000  O
  O22      1.0000 0.60306  0.40276  0.92080  Biso   1.000  O
  O23      1.0000 0.89694  0.90276  0.57920  Biso   1.000  O
  O24      1.0000 0.10306  0.90276  0.92080  Biso   1.000  O
  O25      1.0000 0.60132  0.72434  0.32771  Biso   1.000  O
  O26      1.0000 0.39868  0.72434  0.17229  Biso   1.000  O
  O27      1.0000 0.10132  0.22434  0.32771  Biso   1.000  O
  O28      1.0000 0.89868  0.22434  0.17229  Biso   1.000  O
  O29      1.0000 0.39868  0.27566  0.67229  Biso   1.000  O
  O30      1.0000 0.60132  0.27566  0.82771  Biso   1.000  O
  O31      1.0000 0.89868  0.77566  0.67229  Biso   1.000  O
  O32      1.0000 0.10132  0.77566  0.82771  Biso   1.000  O
  O33      1.0000 0.08564  0.42994  0.32562  Biso   1.000  O
  O34      1.0000 0.91436  0.42994  0.17438  Biso   1.000  O
  O35      1.0000 0.58564  0.92994  0.32562  Biso   1.000  O
  O36      1.0000 0.41436  0.92994  0.17438  Biso   1.000  O
  O37      1.0000 0.91436  0.57006  0.67438  Biso   1.000  O
  O38      1.0000 0.08564  0.57006  0.82562  Biso   1.000  O
  O39      1.0000 0.41436  0.07006  0.67438  Biso   1.000  O
  O40      1.0000 0.58564  0.07006  0.82562  Biso   1.000  O
  O41      1.0000 0.27123  0.50447  0.40347  Biso   1.000  O
  O42      1.0000 0.72877  0.50447  0.09653  Biso   1.000  O
  O43      1.0000 0.77123  0.00447  0.40347  Biso   1.000  O
  O44      1.0000 0.22877  0.00447  0.09653  Biso   1.000  O
  O45      1.0000 0.72877  0.49553  0.59653  Biso   1.000  O
  O46      1.0000 0.27123  0.49553  0.90347  Biso   1.000  O
  O47      1.0000 0.22877  0.99553  0.59653  Biso   1.000  O
  O48      1.0000 0.77123  0.99553  0.90347  Biso   1.000  O
  C1       1.0000 0.30030  0.60940  0.62028  Biso   1.000  C
  C2       1.0000 0.69970  0.60940  0.87972  Biso   1.000  C
  C3       1.0000 0.80030  0.10940  0.62028  Biso   1.000  C
  C4       1.0000 0.19970  0.10940  0.87972  Biso   1.000  C
  C5       1.0000 0.69970  0.39060  0.37972  Biso   1.000  C
  C6       1.0000 0.30030  0.39060  0.12028  Biso   1.000  C
  C7       1.0000 0.19970  0.89060  0.37972  Biso   1.000  C
  C8       1.0000 0.80030  0.89060  0.12028  Biso   1.000  C
  H1       1.0000 0.25270  0.54920  0.62970  Biso   1.000  H
  H2       1.0000 0.74730  0.54920  0.87030  Biso   1.000  H
  H3       1.0000 0.75270  0.04920  0.62970  Biso   1.000  H
  H4       1.0000 0.24730  0.04920  0.87030  Biso   1.000  H
  H5       1.0000 0.74730  0.45080  0.37030  Biso   1.000  H
  H6       1.0000 0.25270  0.45080  0.12970  Biso   1.000  H
  H7       1.0000 0.24730  0.95080  0.37030  Biso   1.000  H
  H8       1.0000 0.75270  0.95080  0.12970  Biso   1.000  H
  C9       1.0000 0.53650  0.65861  0.37126  Biso   1.000  C
  C10      1.0000 0.46350  0.65861  0.12874  Biso   1.000  C
  C11      1.0000 0.03650  0.15861  0.37126  Biso   1.000  C
  C12      1.0000 0.96350  0.15861  0.12874  Biso   1.000  C
  C13      1.0000 0.46350  0.34139  0.62874  Biso   1.000  C
  C14      1.0000 0.53650  0.34139  0.87126  Biso   1.000  C
  C15      1.0000 0.96350  0.84139  0.62874  Biso   1.000  C
  C16      1.0000 0.03650  0.84139  0.87126  Biso   1.000  C
  H9       1.0000 0.42950  0.65490  0.36650  Biso   1.000  H
  H10      1.0000 0.57050  0.65490  0.13350  Biso   1.000  H
  H11      1.0000 0.92950  0.15490  0.36650  Biso   1.000  H
  H12      1.0000 0.07050  0.15490  0.13350  Biso   1.000  H
  H13      1.0000 0.57050  0.34510  0.63350  Biso   1.000  H
  H14      1.0000 0.42950  0.34510  0.86650  Biso   1.000  H
  H15      1.0000 0.07050  0.84510  0.63350  Biso   1.000  H
  H16      1.0000 0.92950  0.84510  0.86650  Biso   1.000  H
  C17      1.0000 0.21670  0.43184  0.36277  Biso   1.000  C
  C18      1.0000 0.78330  0.43184  0.13723  Biso   1.000  C
  C19      1.0000 0.71670  0.93184  0.36277  Biso   1.000  C
  C20      1.0000 0.28330  0.93184  0.13723  Biso   1.000  C
  C21      1.0000 0.78330  0.56816  0.63723  Biso   1.000  C
  C22      1.0000 0.21670  0.56816  0.86277  Biso   1.000  C
  C23      1.0000 0.28330  0.06816  0.63723  Biso   1.000  C
  C24      1.0000 0.71670  0.06816  0.86277  Biso   1.000  C
  H17      1.0000 0.27710  0.37560  0.35980  Biso   1.000  H
  H18      1.0000 0.72290  0.37560  0.14020  Biso   1.000  H
  H19      1.0000 0.77710  0.87560  0.35980  Biso   1.000  H
  H20      1.0000 0.22290  0.87560  0.14020  Biso   1.000  H
  H21      1.0000 0.72290  0.62440  0.64020  Biso   1.000  H
  H22      1.0000 0.27710  0.62440  0.85980  Biso   1.000  H
  H23      1.0000 0.22290  0.12440  0.64020  Biso   1.000  H
  H24      1.0000 0.77710  0.12440  0.85980  Biso   1.000  H
  N1       1.0000 0.44000  0.84248  0.62617  Biso   1.000  N
  N2       1.0000 0.56000  0.84248  0.87383  Biso   1.000  N
  N3       1.0000 0.94000  0.34248  0.62617  Biso   1.000  N
  N4       1.0000 0.06000  0.34248  0.87383  Biso   1.000  N
  N5       1.0000 0.56000  0.15752  0.37383  Biso   1.000  N
  N6       1.0000 0.44000  0.15752  0.12617  Biso   1.000  N
  N7       1.0000 0.06000  0.65752  0.37383  Biso   1.000  N
  N8       1.0000 0.94000  0.65752  0.12617  Biso   1.000  N
  H25      1.0000 0.37620  0.89460  0.62610  Biso   1.000  H
  H26      1.0000 0.62380  0.89460  0.87390  Biso   1.000  H
  H27      1.0000 0.87620  0.39460  0.62610  Biso   1.000  H
  H28      1.0000 0.12380  0.39460  0.87390  Biso   1.000  H
  H29      1.0000 0.62380  0.10540  0.37390  Biso   1.000  H
  H30      1.0000 0.37620  0.10540  0.12610  Biso   1.000  H
  H31      1.0000 0.12380  0.60540  0.37390  Biso   1.000  H
  H32      1.0000 0.87620  0.60540  0.12610  Biso   1.000  H
  H33      1.0000 0.38180  0.78810  0.63060  Biso   1.000  H
  H34      1.0000 0.61820  0.78810  0.86940  Biso   1.000  H
  H35      1.0000 0.88180  0.28810  0.63060  Biso   1.000  H
  H36      1.0000 0.11820  0.28810  0.86940  Biso   1.000  H
  H37      1.0000 0.61820  0.21190  0.36940  Biso   1.000  H
  H38      1.0000 0.38180  0.21190  0.13060  Biso   1.000  H
  H39      1.0000 0.11820  0.71190  0.36940  Biso   1.000  H
  H40      1.0000 0.88180  0.71190  0.13060  Biso   1.000  H
  C25      1.0000 0.54490  0.84849  0.70716  Biso   1.000  C
  C26      1.0000 0.45510  0.84849  0.79284  Biso   1.000  C
  C27      1.0000 0.04490  0.34849  0.70716  Biso   1.000  C
  C28      1.0000 0.95510  0.34849  0.79284  Biso   1.000  C
  C29      1.0000 0.45510  0.15151  0.29284  Biso   1.000  C
  C30      1.0000 0.54490  0.15151  0.20716  Biso   1.000  C
  C31      1.0000 0.95510  0.65151  0.29284  Biso   1.000  C
  C32      1.0000 0.04490  0.65151  0.20716  Biso   1.000  C
  H41      1.0000 0.60600  0.90800  0.70390  Biso   1.000  H
  H42      1.0000 0.39400  0.90800  0.79610  Biso   1.000  H
  H43      1.0000 0.10600  0.40800  0.70390  Biso   1.000  H
  H44      1.0000 0.89400  0.40800  0.79610  Biso   1.000  H
  H45      1.0000 0.39400  0.09200  0.29610  Biso   1.000  H
  H46      1.0000 0.60600  0.09200  0.20390  Biso   1.000  H
  H47      1.0000 0.89400  0.59200  0.29610  Biso   1.000  H
  H48      1.0000 0.10600  0.59200  0.20390  Biso   1.000  H
  H49      1.0000 0.61510  0.79300  0.70730  Biso   1.000  H
  H50      1.0000 0.38490  0.79300  0.79270  Biso   1.000  H
  H51      1.0000 0.11510  0.29300  0.70730  Biso   1.000  H
  H52      1.0000 0.88490  0.29300  0.79270  Biso   1.000  H
  H53      1.0000 0.38490  0.20700  0.29270  Biso   1.000  H
  H54      1.0000 0.61510  0.20700  0.20730  Biso   1.000  H
  H55      1.0000 0.88490  0.70700  0.29270  Biso   1.000  H
  H56      1.0000 0.11510  0.70700  0.20730  Biso   1.000  H
  C33      1.0000 0.52390  0.84004  0.53834  Biso   1.000  C
  C34      1.0000 0.47610  0.84004  0.96166  Biso   1.000  C
  C35      1.0000 0.02390  0.34004  0.53834  Biso   1.000  C
  C36      1.0000 0.97610  0.34004  0.96166  Biso   1.000  C
  C37      1.0000 0.47610  0.15996  0.46166  Biso   1.000  C
  C38      1.0000 0.52390  0.15996  0.03834  Biso   1.000  C
  C39      1.0000 0.97610  0.65996  0.46166  Biso   1.000  C
  C40      1.0000 0.02390  0.65996  0.03834  Biso   1.000  C
  H57      1.0000 0.45100  0.83660  0.48820  Biso   1.000  H
  H58      1.0000 0.54900  0.83660  0.01180  Biso   1.000  H
  H59      1.0000 0.95100  0.33660  0.48820  Biso   1.000  H
  H60      1.0000 0.04900  0.33660  0.01180  Biso   1.000  H
  H61      1.0000 0.54900  0.16340  0.51180  Biso   1.000  H
  H62      1.0000 0.45100  0.16340  0.98820  Biso   1.000  H
  H63      1.0000 0.04900  0.66340  0.51180  Biso   1.000  H
  H64      1.0000 0.95100  0.66340  0.98820  Biso   1.000  H
  H65      1.0000 0.59010  0.78360  0.53720  Biso   1.000  H
  H66      1.0000 0.40990  0.78360  0.96280  Biso   1.000  H
  H67      1.0000 0.09010  0.28360  0.53720  Biso   1.000  H
  H68      1.0000 0.90990  0.28360  0.96280  Biso   1.000  H
  H69      1.0000 0.40990  0.21640  0.46280  Biso   1.000  H
  H70      1.0000 0.59010  0.21640  0.03720  Biso   1.000  H
  H71      1.0000 0.90990  0.71640  0.46280  Biso   1.000  H
  H72      1.0000 0.09010  0.71640  0.03720  Biso   1.000  H
  H73      1.0000 0.58510  0.89840  0.53270  Biso   1.000  H
  H74      1.0000 0.41490  0.89840  0.96730  Biso   1.000  H
  H75      1.0000 0.08510  0.39840  0.53270  Biso   1.000  H
  H76      1.0000 0.91490  0.39840  0.96730  Biso   1.000  H
  H77      1.0000 0.41490  0.10160  0.46730  Biso   1.000  H
  H78      1.0000 0.58510  0.10160  0.03270  Biso   1.000  H
  H79      1.0000 0.91490  0.60160  0.46730  Biso   1.000  H
  H80      1.0000 0.08510  0.60160  0.03270  Biso   1.000  H
