data_image0
_cell_length_a       6.692
_cell_length_b       7.647
_cell_length_c       12.997
_cell_angle_alpha    83.72
_cell_angle_beta     77.11
_cell_angle_gamma    80.69

_symmetry_space_group_name_H-M    "P 1"
_symmetry_int_tables_number       1

loop_
  _symmetry_equiv_pos_as_xyz
  'x, y, z'

loop_
  _atom_site_label
  _atom_site_occupancy
  _atom_site_fract_x
  _atom_site_fract_y
  _atom_site_fract_z
  _atom_site_thermal_displace_type
  _atom_site_B_iso_or_equiv
  _atom_site_type_symbol
  Cu1      1.0000 0.00000  0.00000  0.00000  Biso   1.000  Cu
  O1       1.0000 0.79019  0.02994  0.13387  Biso   1.000  O
  O2       1.0000 0.20981  0.97006  0.86613  Biso   1.000  O
  O3       1.0000 0.89910  0.24340  0.20548  Biso   1.000  O
  O4       1.0000 0.10090  0.75660  0.79452  Biso   1.000  O
  O5       1.0000 0.80990  0.78375  0.96643  Biso   1.000  O
  O6       1.0000 0.19010  0.21625  0.03357  Biso   1.000  O
  O7       1.0000 0.57360  0.34880  0.57250  Biso   1.000  O
  O8       1.0000 0.42640  0.65120  0.42750  Biso   1.000  O
  O9       1.0000 0.24560  0.33830  0.62520  Biso   1.000  O
  O10      1.0000 0.75440  0.66170  0.37480  Biso   1.000  O
  N1       1.0000 0.40970  0.31100  0.56077  Biso   1.000  N
  N2       1.0000 0.59030  0.68900  0.43923  Biso   1.000  N
  N3       1.0000 0.18460  0.82192  0.07894  Biso   1.000  N
  N4       1.0000 0.81540  0.17808  0.92106  Biso   1.000  N
  C1       1.0000 0.77700  0.13750  0.20391  Biso   1.000  C
  C2       1.0000 0.22300  0.86250  0.79609  Biso   1.000  C
  C3       1.0000 0.58790  0.13790  0.29334  Biso   1.000  C
  C4       1.0000 0.41210  0.86210  0.70666  Biso   1.000  C
  C5       1.0000 0.58600  0.21930  0.38455  Biso   1.000  C
  C6       1.0000 0.41400  0.78070  0.61545  Biso   1.000  C
  C7       1.0000 0.40850  0.22790  0.46367  Biso   1.000  C
  C8       1.0000 0.59150  0.77210  0.53633  Biso   1.000  C
  C9       1.0000 0.23200  0.16380  0.45455  Biso   1.000  C
  C10      1.0000 0.76800  0.83620  0.54545  Biso   1.000  C
  C11      1.0000 0.23580  0.08250  0.36381  Biso   1.000  C
  C12      1.0000 0.76420  0.91750  0.63619  Biso   1.000  C
  C13      1.0000 0.41440  0.06730  0.28352  Biso   1.000  C
  C14      1.0000 0.58560  0.93270  0.71648  Biso   1.000  C
  C15      1.0000 0.38910  0.78940  0.03762  Biso   1.000  C
  C16      1.0000 0.61090  0.21060  0.96238  Biso   1.000  C
  C17      1.0000 0.52500  0.66790  0.08491  Biso   1.000  C
  C18      1.0000 0.47500  0.33210  0.91509  Biso   1.000  C
  C19      1.0000 0.44680  0.57930  0.18103  Biso   1.000  C
  C20      1.0000 0.55320  0.42070  0.81897  Biso   1.000  C
  C21      1.0000 0.23630  0.61130  0.22432  Biso   1.000  C
  C22      1.0000 0.76370  0.38870  0.77568  Biso   1.000  C
  C23      1.0000 0.11010  0.73300  0.17124  Biso   1.000  C
  C24      1.0000 0.88990  0.26700  0.82876  Biso   1.000  C
  C25      1.0000 0.75010  0.63130  0.03120  Biso   1.000  C
  C26      1.0000 0.24990  0.36870  0.96880  Biso   1.000  C
  H1       1.0000 0.69700  0.27000  0.39000  Biso   1.000  H
  H2       1.0000 0.30300  0.73000  0.61000  Biso   1.000  H
  H3       1.0000 0.11600  0.17400  0.51090  Biso   1.000  H
  H4       1.0000 0.88400  0.82600  0.48910  Biso   1.000  H
  H5       1.0000 0.12000  0.03600  0.35540  Biso   1.000  H
  H6       1.0000 0.88000  0.96400  0.64460  Biso   1.000  H
  H7       1.0000 0.41900  0.01400  0.22060  Biso   1.000  H
  H8       1.0000 0.58100  0.98600  0.77940  Biso   1.000  H
  H9       1.0000 0.43900  0.85800  0.97420  Biso   1.000  H
  H10      1.0000 0.56100  0.14200  0.02580  Biso   1.000  H
  H11      1.0000 0.53600  0.50000  0.21690  Biso   1.000  H
  H12      1.0000 0.46400  0.50000  0.78310  Biso   1.000  H
  H13      1.0000 0.17700  0.55200  0.28830  Biso   1.000  H
  H14      1.0000 0.82300  0.44800  0.71170  Biso   1.000  H
  H15      1.0000 0.96500  0.75700  0.20040  Biso   1.000  H
  H16      1.0000 0.03500  0.24300  0.79960  Biso   1.000  H
  H17      1.0000 0.76900  0.53000  0.99040  Biso   1.000  H
  H18      1.0000 0.23100  0.47000  0.00960  Biso   1.000  H
  H19      1.0000 0.83000  0.59600  0.08640  Biso   1.000  H
  H20      1.0000 0.17000  0.40400  0.91360  Biso   1.000  H
  H21      1.0000 0.88800  0.75400  0.91500  Biso   1.000  H
  H22      1.0000 0.11200  0.24600  0.08500  Biso   1.000  H
