data_image0
_cell_length_a       6.9836
_cell_length_b       15.597
_cell_length_c       17.506
_cell_angle_alpha    90
_cell_angle_beta     90
_cell_angle_gamma    90

_symmetry_space_group_name_H-M    "P 1"
_symmetry_int_tables_number       1

loop_
  _symmetry_equiv_pos_as_xyz
  'x, y, z'

loop_
  _atom_site_label
  _atom_site_occupancy
  _atom_site_fract_x
  _atom_site_fract_y
  _atom_site_fract_z
  _atom_site_thermal_displace_type
  _atom_site_B_iso_or_equiv
  _atom_site_type_symbol
  Cu1      1.0000 0.92487  0.37035  0.65767  Biso   1.000  Cu
  Cu2      1.0000 0.57513  0.62965  0.15767  Biso   1.000  Cu
  Cu3      1.0000 0.07513  0.87035  0.84233  Biso   1.000  Cu
  Cu4      1.0000 0.42487  0.12965  0.34233  Biso   1.000  Cu
  N1       1.0000 0.96910  0.35920  0.54454  Biso   1.000  N
  N2       1.0000 0.53090  0.64080  0.04454  Biso   1.000  N
  N3       1.0000 0.03090  0.85920  0.95546  Biso   1.000  N
  N4       1.0000 0.46910  0.14080  0.45546  Biso   1.000  N
  N5       1.0000 0.96470  0.24231  0.64950  Biso   1.000  N
  N6       1.0000 0.53530  0.75769  0.14950  Biso   1.000  N
  N7       1.0000 0.03530  0.74231  0.85050  Biso   1.000  N
  N8       1.0000 0.46470  0.25769  0.35050  Biso   1.000  N
  O1       1.0000 0.84200  0.49070  0.65260  Biso   1.000  O
  O2       1.0000 0.65800  0.50930  0.15260  Biso   1.000  O
  O3       1.0000 0.15800  0.99070  0.84740  Biso   1.000  O
  O4       1.0000 0.34200  0.00930  0.34740  Biso   1.000  O
  O5       1.0000 0.55480  0.45832  0.60405  Biso   1.000  O
  O6       1.0000 0.94520  0.54168  0.10405  Biso   1.000  O
  O7       1.0000 0.44520  0.95832  0.89595  Biso   1.000  O
  O8       1.0000 0.05480  0.04168  0.39595  Biso   1.000  O
  O9       1.0000 0.40640  0.61112  0.64953  Biso   1.000  O
  O10      1.0000 0.09360  0.38888  0.14953  Biso   1.000  O
  O11      1.0000 0.59360  0.11112  0.85047  Biso   1.000  O
  O12      1.0000 0.90640  0.88888  0.35047  Biso   1.000  O
  O13      1.0000 0.64890  0.63590  0.26580  Biso   1.000  O
  O14      1.0000 0.85110  0.36410  0.76580  Biso   1.000  O
  O15      1.0000 0.35110  0.13590  0.23420  Biso   1.000  O
  O16      1.0000 0.14890  0.86410  0.73420  Biso   1.000  O
  O17      1.0000 0.93520  0.68230  0.22836  Biso   1.000  O
  O18      1.0000 0.56480  0.31770  0.72836  Biso   1.000  O
  O19      1.0000 0.06480  0.18230  0.27164  Biso   1.000  O
  O20      1.0000 0.43520  0.81770  0.77164  Biso   1.000  O
  O21      1.0000 0.07600  0.66950  0.36762  Biso   1.000  O
  O22      1.0000 0.42400  0.33050  0.86762  Biso   1.000  O
  O23      1.0000 0.92400  0.16950  0.13238  Biso   1.000  O
  O24      1.0000 0.57600  0.83050  0.63238  Biso   1.000  O
  O25      1.0000 0.22370  0.40760  0.69050  Biso   1.000  O
  O26      1.0000 0.27630  0.59240  0.19050  Biso   1.000  O
  O27      1.0000 0.77630  0.90760  0.80950  Biso   1.000  O
  O28      1.0000 0.72370  0.09240  0.30950  Biso   1.000  O
  C1       1.0000 0.67030  0.50650  0.63580  Biso   1.000  C
  C2       1.0000 0.82970  0.49350  0.13580  Biso   1.000  C
  C3       1.0000 0.32970  0.00650  0.86420  Biso   1.000  C
  C4       1.0000 0.17030  0.99350  0.36420  Biso   1.000  C
  C5       1.0000 0.60580  0.59690  0.65880  Biso   1.000  C
  C6       1.0000 0.89420  0.40310  0.15880  Biso   1.000  C
  C7       1.0000 0.39420  0.09690  0.84120  Biso   1.000  C
  C8       1.0000 0.10580  0.90310  0.34120  Biso   1.000  C
  C9       1.0000 0.33450  0.62430  0.57730  Biso   1.000  C
  C10      1.0000 0.16550  0.37570  0.07730  Biso   1.000  C
  C11      1.0000 0.66550  0.12430  0.92270  Biso   1.000  C
  C12      1.0000 0.83450  0.87570  0.42270  Biso   1.000  C
  C13      1.0000 0.14010  0.63740  0.57420  Biso   1.000  C
  C14      1.0000 0.35990  0.36260  0.07420  Biso   1.000  C
  C15      1.0000 0.85990  0.13740  0.92580  Biso   1.000  C
  C16      1.0000 0.64010  0.86260  0.42580  Biso   1.000  C
  C17      1.0000 0.43830  0.62840  0.51040  Biso   1.000  C
  C18      1.0000 0.06170  0.37160  0.01040  Biso   1.000  C
  C19      1.0000 0.56170  0.12840  0.98960  Biso   1.000  C
  C20      1.0000 0.93830  0.87160  0.48960  Biso   1.000  C
  C21      1.0000 0.82080  0.65870  0.27730  Biso   1.000  C
  C22      1.0000 0.67920  0.34130  0.77730  Biso   1.000  C
  C23      1.0000 0.17920  0.15870  0.22270  Biso   1.000  C
  C24      1.0000 0.32080  0.84130  0.72270  Biso   1.000  C
  C25      1.0000 0.87590  0.65710  0.36040  Biso   1.000  C
  C26      1.0000 0.62410  0.34290  0.86040  Biso   1.000  C
  C27      1.0000 0.12410  0.15710  0.13960  Biso   1.000  C
  C28      1.0000 0.37590  0.84290  0.63960  Biso   1.000  C
  C29      1.0000 0.15370  0.65610  0.43850  Biso   1.000  C
  C30      1.0000 0.34630  0.34390  0.93850  Biso   1.000  C
  C31      1.0000 0.84630  0.15610  0.06150  Biso   1.000  C
  C32      1.0000 0.65370  0.84390  0.56150  Biso   1.000  C
  C33      1.0000 0.05030  0.65250  0.50620  Biso   1.000  C
  C34      1.0000 0.44970  0.34750  0.00620  Biso   1.000  C
  C35      1.0000 0.94970  0.15250  0.99380  Biso   1.000  C
  C36      1.0000 0.55030  0.84750  0.49380  Biso   1.000  C
  C37      1.0000 0.34870  0.64510  0.44180  Biso   1.000  C
  C38      1.0000 0.15130  0.35490  0.94180  Biso   1.000  C
  C39      1.0000 0.65130  0.14510  0.05820  Biso   1.000  C
  C40      1.0000 0.84870  0.85490  0.55820  Biso   1.000  C
  C41      1.0000 0.97720  0.42360  0.49500  Biso   1.000  C
  C42      1.0000 0.52280  0.57640  0.99500  Biso   1.000  C
  C43      1.0000 0.02280  0.92360  0.00500  Biso   1.000  C
  C44      1.0000 0.47720  0.07640  0.50500  Biso   1.000  C
  C45      1.0000 0.99570  0.41110  0.41770  Biso   1.000  C
  C46      1.0000 0.50430  0.58890  0.91770  Biso   1.000  C
  C47      1.0000 0.00430  0.91110  0.08230  Biso   1.000  C
  C48      1.0000 0.49570  0.08890  0.58230  Biso   1.000  C
  C49      1.0000 0.00240  0.32830  0.39030  Biso   1.000  C
  C50      1.0000 0.49760  0.67170  0.89030  Biso   1.000  C
  C51      1.0000 0.99760  0.82830  0.10970  Biso   1.000  C
  C52      1.0000 0.50240  0.17170  0.60970  Biso   1.000  C
  C53      1.0000 0.99620  0.26100  0.44080  Biso   1.000  C
  C54      1.0000 0.50380  0.73900  0.94080  Biso   1.000  C
  C55      1.0000 0.00380  0.76100  0.05920  Biso   1.000  C
  C56      1.0000 0.49620  0.23900  0.55920  Biso   1.000  C
  C57      1.0000 0.98140  0.27780  0.51790  Biso   1.000  C
  C58      1.0000 0.51860  0.72220  0.01790  Biso   1.000  C
  C59      1.0000 0.01860  0.77780  0.98210  Biso   1.000  C
  C60      1.0000 0.48140  0.22220  0.48210  Biso   1.000  C
  C61      1.0000 0.98000  0.21180  0.57820  Biso   1.000  C
  C62      1.0000 0.52000  0.78820  0.07820  Biso   1.000  C
  C63      1.0000 0.02000  0.71180  0.92180  Biso   1.000  C
  C64      1.0000 0.48000  0.28820  0.42180  Biso   1.000  C
  C65      1.0000 0.99640  0.12410  0.56400  Biso   1.000  C
  C66      1.0000 0.50360  0.87590  0.06400  Biso   1.000  C
  C67      1.0000 0.00360  0.62410  0.93600  Biso   1.000  C
  C68      1.0000 0.49640  0.37590  0.43600  Biso   1.000  C
  C69      1.0000 0.99690  0.06880  0.62510  Biso   1.000  C
  C70      1.0000 0.50310  0.93120  0.12510  Biso   1.000  C
  C71      1.0000 0.00310  0.56880  0.87490  Biso   1.000  C
  C72      1.0000 0.49690  0.43120  0.37490  Biso   1.000  C
  C73      1.0000 0.98020  0.10010  0.69820  Biso   1.000  C
  C74      1.0000 0.51980  0.89990  0.19820  Biso   1.000  C
  C75      1.0000 0.01980  0.60010  0.80180  Biso   1.000  C
  C76      1.0000 0.48020  0.39990  0.30180  Biso   1.000  C
  C77      1.0000 0.96600  0.18690  0.70790  Biso   1.000  C
  C78      1.0000 0.53400  0.81310  0.20790  Biso   1.000  C
  C79      1.0000 0.03400  0.68690  0.79210  Biso   1.000  C
  C80      1.0000 0.46600  0.31310  0.29210  Biso   1.000  C
  H1       1.0000 0.29200  0.37400  0.71600  Biso   1.000  H
  H2       1.0000 0.20800  0.62600  0.21600  Biso   1.000  H
  H3       1.0000 0.70800  0.87400  0.78400  Biso   1.000  H
  H4       1.0000 0.79200  0.12600  0.28400  Biso   1.000  H
  H5       1.0000 0.29100  0.43300  0.65800  Biso   1.000  H
  H6       1.0000 0.20900  0.56700  0.15800  Biso   1.000  H
  H7       1.0000 0.70900  0.93300  0.84200  Biso   1.000  H
  H8       1.0000 0.79100  0.06700  0.34200  Biso   1.000  H
  H9       1.0000 0.63940  0.60650  0.71190  Biso   1.000  H
  H10      1.0000 0.86060  0.39350  0.21190  Biso   1.000  H
  H11      1.0000 0.36060  0.10650  0.78810  Biso   1.000  H
  H12      1.0000 0.13940  0.89350  0.28810  Biso   1.000  H
  H13      1.0000 0.67530  0.63840  0.62830  Biso   1.000  H
  H14      1.0000 0.82470  0.36160  0.12830  Biso   1.000  H
  H15      1.0000 0.32470  0.13840  0.87170  Biso   1.000  H
  H16      1.0000 0.17530  0.86160  0.37170  Biso   1.000  H
  H17      1.0000 0.06870  0.63610  0.61900  Biso   1.000  H
  H18      1.0000 0.43130  0.36390  0.11900  Biso   1.000  H
  H19      1.0000 0.93130  0.13610  0.88100  Biso   1.000  H
  H20      1.0000 0.56870  0.86390  0.38100  Biso   1.000  H
  H21      1.0000 0.57000  0.61980  0.51160  Biso   1.000  H
  H22      1.0000 0.93000  0.38020  0.01160  Biso   1.000  H
  H23      1.0000 0.43000  0.11980  0.98840  Biso   1.000  H
  H24      1.0000 0.07000  0.88020  0.48840  Biso   1.000  H
  H25      1.0000 0.80820  0.70210  0.38760  Biso   1.000  H
  H26      1.0000 0.69180  0.29790  0.88760  Biso   1.000  H
  H27      1.0000 0.19180  0.20210  0.11240  Biso   1.000  H
  H28      1.0000 0.30820  0.79790  0.61240  Biso   1.000  H
  H29      1.0000 0.84020  0.60250  0.38270  Biso   1.000  H
  H30      1.0000 0.65980  0.39750  0.88270  Biso   1.000  H
  H31      1.0000 0.15980  0.10250  0.11730  Biso   1.000  H
  H32      1.0000 0.34020  0.89750  0.61730  Biso   1.000  H
  H33      1.0000 0.91840  0.66050  0.50520  Biso   1.000  H
  H34      1.0000 0.58160  0.33950  0.00520  Biso   1.000  H
  H35      1.0000 0.08160  0.16050  0.99480  Biso   1.000  H
  H36      1.0000 0.41840  0.83950  0.49480  Biso   1.000  H
  H37      1.0000 0.42100  0.64900  0.39730  Biso   1.000  H
  H38      1.0000 0.07900  0.35100  0.89730  Biso   1.000  H
  H39      1.0000 0.57900  0.14900  0.10270  Biso   1.000  H
  H40      1.0000 0.92100  0.85100  0.60270  Biso   1.000  H
  H41      1.0000 0.97010  0.47950  0.51340  Biso   1.000  H
  H42      1.0000 0.52990  0.52050  0.01340  Biso   1.000  H
  H43      1.0000 0.02990  0.97950  0.98660  Biso   1.000  H
  H44      1.0000 0.47010  0.02050  0.48660  Biso   1.000  H
  H45      1.0000 0.00340  0.45750  0.38450  Biso   1.000  H
  H46      1.0000 0.49660  0.54250  0.88450  Biso   1.000  H
  H47      1.0000 0.99660  0.95750  0.11550  Biso   1.000  H
  H48      1.0000 0.50340  0.04250  0.61550  Biso   1.000  H
  H49      1.0000 0.01120  0.31810  0.33810  Biso   1.000  H
  H50      1.0000 0.48880  0.68190  0.83810  Biso   1.000  H
  H51      1.0000 0.98880  0.81810  0.16190  Biso   1.000  H
  H52      1.0000 0.51120  0.18190  0.66190  Biso   1.000  H
  H53      1.0000 0.00180  0.20480  0.42330  Biso   1.000  H
  H54      1.0000 0.49820  0.79520  0.92330  Biso   1.000  H
  H55      1.0000 0.99820  0.70480  0.07670  Biso   1.000  H
  H56      1.0000 0.50180  0.29520  0.57670  Biso   1.000  H
  H57      1.0000 0.00670  0.10360  0.51430  Biso   1.000  H
  H58      1.0000 0.49330  0.89640  0.01430  Biso   1.000  H
  H59      1.0000 0.99330  0.60360  0.98570  Biso   1.000  H
  H60      1.0000 0.50670  0.39640  0.48570  Biso   1.000  H
  H61      1.0000 0.00850  0.01010  0.61690  Biso   1.000  H
  H62      1.0000 0.49150  0.98990  0.11690  Biso   1.000  H
  H63      1.0000 0.99150  0.51010  0.88310  Biso   1.000  H
  H64      1.0000 0.50850  0.48990  0.38310  Biso   1.000  H
  H65      1.0000 0.97850  0.06320  0.74000  Biso   1.000  H
  H66      1.0000 0.52150  0.93680  0.24000  Biso   1.000  H
  H67      1.0000 0.02150  0.56320  0.76000  Biso   1.000  H
  H68      1.0000 0.47850  0.43680  0.26000  Biso   1.000  H
  H69      1.0000 0.95700  0.20840  0.75730  Biso   1.000  H
  H70      1.0000 0.54300  0.79160  0.25730  Biso   1.000  H
  H71      1.0000 0.04300  0.70840  0.74270  Biso   1.000  H
  H72      1.0000 0.45700  0.29160  0.24270  Biso   1.000  H
