data_image0
_cell_length_a       14.5546
_cell_length_b       11.5095
_cell_length_c       13.9115
_cell_angle_alpha    90
_cell_angle_beta     90.487
_cell_angle_gamma    90

_symmetry_space_group_name_H-M    "P 1"
_symmetry_int_tables_number       1

loop_
  _symmetry_equiv_pos_as_xyz
  'x, y, z'

loop_
  _atom_site_label
  _atom_site_occupancy
  _atom_site_fract_x
  _atom_site_fract_y
  _atom_site_fract_z
  _atom_site_thermal_displace_type
  _atom_site_B_iso_or_equiv
  _atom_site_type_symbol
  Cu1      1.0000 0.25000  0.25000  0.50000  Biso   1.000  Cu
  Cu2      1.0000 0.75000  0.75000  0.50000  Biso   1.000  Cu
  Cu3      1.0000 0.75000  0.25000  0.00000  Biso   1.000  Cu
  Cu4      1.0000 0.25000  0.75000  0.00000  Biso   1.000  Cu
  N1       1.0000 0.38114  0.28862  0.49034  Biso   1.000  N
  N2       1.0000 0.88114  0.78862  0.49034  Biso   1.000  N
  N3       1.0000 0.61886  0.28862  0.00966  Biso   1.000  N
  N4       1.0000 0.11886  0.78862  0.00966  Biso   1.000  N
  N5       1.0000 0.61886  0.71138  0.50966  Biso   1.000  N
  N6       1.0000 0.11886  0.21138  0.50966  Biso   1.000  N
  N7       1.0000 0.38114  0.71138  0.99034  Biso   1.000  N
  N8       1.0000 0.88114  0.21138  0.99034  Biso   1.000  N
  O1       1.0000 0.24538  0.31140  0.36821  Biso   1.000  O
  O2       1.0000 0.74538  0.81140  0.36821  Biso   1.000  O
  O3       1.0000 0.75462  0.31140  0.13179  Biso   1.000  O
  O4       1.0000 0.25462  0.81140  0.13179  Biso   1.000  O
  O5       1.0000 0.75462  0.68860  0.63179  Biso   1.000  O
  O6       1.0000 0.25462  0.18860  0.63179  Biso   1.000  O
  O7       1.0000 0.24538  0.68860  0.86821  Biso   1.000  O
  O8       1.0000 0.74538  0.18860  0.86821  Biso   1.000  O
  O9       1.0000 0.33305  0.39563  0.25818  Biso   1.000  O
  O10      1.0000 0.83305  0.89563  0.25818  Biso   1.000  O
  O11      1.0000 0.66695  0.39563  0.24182  Biso   1.000  O
  O12      1.0000 0.16695  0.89563  0.24182  Biso   1.000  O
  O13      1.0000 0.66695  0.60437  0.74182  Biso   1.000  O
  O14      1.0000 0.16695  0.10437  0.74182  Biso   1.000  O
  O15      1.0000 0.33305  0.60437  0.75818  Biso   1.000  O
  O16      1.0000 0.83305  0.10437  0.75818  Biso   1.000  O
  O17      1.0000 0.23959  0.44551  0.57931  Biso   1.000  O
  O18      1.0000 0.73959  0.94551  0.57931  Biso   1.000  O
  O19      1.0000 0.76041  0.44551  0.92069  Biso   1.000  O
  O20      1.0000 0.26041  0.94551  0.92069  Biso   1.000  O
  O21      1.0000 0.76041  0.55449  0.42069  Biso   1.000  O
  O22      1.0000 0.26041  0.05449  0.42069  Biso   1.000  O
  O23      1.0000 0.23959  0.55449  0.07931  Biso   1.000  O
  O24      1.0000 0.73959  0.05449  0.07931  Biso   1.000  O
  O25      1.0000 0.18872  0.61054  0.64210  Biso   1.000  O
  O26      1.0000 0.68872  0.11054  0.64210  Biso   1.000  O
  O27      1.0000 0.81128  0.61054  0.85790  Biso   1.000  O
  O28      1.0000 0.31128  0.11054  0.85790  Biso   1.000  O
  O29      1.0000 0.81128  0.38946  0.35790  Biso   1.000  O
  O30      1.0000 0.31128  0.88946  0.35790  Biso   1.000  O
  O31      1.0000 0.18872  0.38946  0.14210  Biso   1.000  O
  O32      1.0000 0.68872  0.88946  0.14210  Biso   1.000  O
  H1       1.0000 0.23800  0.61000  0.67540  Biso   1.000  H
  H2       1.0000 0.73800  0.11000  0.67540  Biso   1.000  H
  H3       1.0000 0.76200  0.61000  0.82460  Biso   1.000  H
  H4       1.0000 0.26200  0.11000  0.82460  Biso   1.000  H
  H5       1.0000 0.76200  0.39000  0.32460  Biso   1.000  H
  H6       1.0000 0.26200  0.89000  0.32460  Biso   1.000  H
  H7       1.0000 0.23800  0.39000  0.17540  Biso   1.000  H
  H8       1.0000 0.73800  0.89000  0.17540  Biso   1.000  H
  O33      1.0000 0.12605  0.59630  0.28900  Biso   1.000  O
  O34      1.0000 0.62605  0.09630  0.28900  Biso   1.000  O
  O35      1.0000 0.87395  0.59630  0.21100  Biso   1.000  O
  O36      1.0000 0.37395  0.09630  0.21100  Biso   1.000  O
  O37      1.0000 0.87395  0.40370  0.71100  Biso   1.000  O
  O38      1.0000 0.37395  0.90370  0.71100  Biso   1.000  O
  O39      1.0000 0.12605  0.40370  0.78900  Biso   1.000  O
  O40      1.0000 0.62605  0.90370  0.78900  Biso   1.000  O
  O41      1.0000 0.22089  0.61049  0.41248  Biso   1.000  O
  O42      1.0000 0.72089  0.11049  0.41248  Biso   1.000  O
  O43      1.0000 0.77911  0.61049  0.08752  Biso   1.000  O
  O44      1.0000 0.27911  0.11049  0.08752  Biso   1.000  O
  O45      1.0000 0.77911  0.38951  0.58752  Biso   1.000  O
  O46      1.0000 0.27911  0.88951  0.58752  Biso   1.000  O
  O47      1.0000 0.22089  0.38951  0.91248  Biso   1.000  O
  O48      1.0000 0.72089  0.88951  0.91248  Biso   1.000  O
  H9       1.0000 0.25270  0.62900  0.37000  Biso   1.000  H
  H10      1.0000 0.75270  0.12900  0.37000  Biso   1.000  H
  H11      1.0000 0.74730  0.62900  0.13000  Biso   1.000  H
  H12      1.0000 0.24730  0.12900  0.13000  Biso   1.000  H
  H13      1.0000 0.74730  0.37100  0.63000  Biso   1.000  H
  H14      1.0000 0.24730  0.87100  0.63000  Biso   1.000  H
  H15      1.0000 0.25270  0.37100  0.87000  Biso   1.000  H
  H16      1.0000 0.75270  0.87100  0.87000  Biso   1.000  H
  C1       1.0000 0.40153  0.34157  0.40714  Biso   1.000  C
  C2       1.0000 0.90153  0.84157  0.40714  Biso   1.000  C
  C3       1.0000 0.59847  0.34157  0.09286  Biso   1.000  C
  C4       1.0000 0.09847  0.84157  0.09286  Biso   1.000  C
  C5       1.0000 0.59847  0.65843  0.59286  Biso   1.000  C
  C6       1.0000 0.09847  0.15843  0.59286  Biso   1.000  C
  C7       1.0000 0.40153  0.65843  0.90714  Biso   1.000  C
  C8       1.0000 0.90153  0.15843  0.90714  Biso   1.000  C
  C9       1.0000 0.48814  0.38150  0.38824  Biso   1.000  C
  C10      1.0000 0.98814  0.88150  0.38824  Biso   1.000  C
  C11      1.0000 0.51186  0.38150  0.11176  Biso   1.000  C
  C12      1.0000 0.01186  0.88150  0.11176  Biso   1.000  C
  C13      1.0000 0.51186  0.61850  0.61176  Biso   1.000  C
  C14      1.0000 0.01186  0.11850  0.61176  Biso   1.000  C
  C15      1.0000 0.48814  0.61850  0.88824  Biso   1.000  C
  C16      1.0000 0.98814  0.11850  0.88824  Biso   1.000  C
  H17      1.0000 0.49950  0.41950  0.33230  Biso   1.000  H
  H18      1.0000 0.99950  0.91950  0.33230  Biso   1.000  H
  H19      1.0000 0.50050  0.41950  0.16770  Biso   1.000  H
  H20      1.0000 0.00050  0.91950  0.16770  Biso   1.000  H
  H21      1.0000 0.50050  0.58050  0.66770  Biso   1.000  H
  H22      1.0000 0.00050  0.08050  0.66770  Biso   1.000  H
  H23      1.0000 0.49950  0.58050  0.83230  Biso   1.000  H
  H24      1.0000 0.99950  0.08050  0.83230  Biso   1.000  H
  C17      1.0000 0.55649  0.36550  0.45715  Biso   1.000  C
  C18      1.0000 0.05649  0.86550  0.45715  Biso   1.000  C
  C19      1.0000 0.44351  0.36550  0.04285  Biso   1.000  C
  C20      1.0000 0.94351  0.86550  0.04285  Biso   1.000  C
  C21      1.0000 0.44351  0.63450  0.54285  Biso   1.000  C
  C22      1.0000 0.94351  0.13450  0.54285  Biso   1.000  C
  C23      1.0000 0.55649  0.63450  0.95715  Biso   1.000  C
  C24      1.0000 0.05649  0.13450  0.95715  Biso   1.000  C
  H25      1.0000 0.61300  0.39100  0.44510  Biso   1.000  H
  H26      1.0000 0.11300  0.89100  0.44510  Biso   1.000  H
  H27      1.0000 0.38700  0.39100  0.05490  Biso   1.000  H
  H28      1.0000 0.88700  0.89100  0.05490  Biso   1.000  H
  H29      1.0000 0.38700  0.60900  0.55490  Biso   1.000  H
  H30      1.0000 0.88700  0.10900  0.55490  Biso   1.000  H
  H31      1.0000 0.61300  0.60900  0.94510  Biso   1.000  H
  H32      1.0000 0.11300  0.10900  0.94510  Biso   1.000  H
  C25      1.0000 0.53578  0.31102  0.54120  Biso   1.000  C
  C26      1.0000 0.03578  0.81102  0.54120  Biso   1.000  C
  C27      1.0000 0.46422  0.31102  0.95880  Biso   1.000  C
  C28      1.0000 0.96422  0.81102  0.95880  Biso   1.000  C
  C29      1.0000 0.46422  0.68898  0.45880  Biso   1.000  C
  C30      1.0000 0.96422  0.18898  0.45880  Biso   1.000  C
  C31      1.0000 0.53578  0.68898  0.04120  Biso   1.000  C
  C32      1.0000 0.03578  0.18898  0.04120  Biso   1.000  C
  H33      1.0000 0.57750  0.30240  0.58970  Biso   1.000  H
  H34      1.0000 0.07750  0.80240  0.58970  Biso   1.000  H
  H35      1.0000 0.42250  0.30240  0.91030  Biso   1.000  H
  H36      1.0000 0.92250  0.80240  0.91030  Biso   1.000  H
  H37      1.0000 0.42250  0.69760  0.41030  Biso   1.000  H
  H38      1.0000 0.92250  0.19760  0.41030  Biso   1.000  H
  H39      1.0000 0.57750  0.69760  0.08970  Biso   1.000  H
  H40      1.0000 0.07750  0.19760  0.08970  Biso   1.000  H
  C33      1.0000 0.44737  0.27373  0.55611  Biso   1.000  C
  C34      1.0000 0.94737  0.77373  0.55611  Biso   1.000  C
  C35      1.0000 0.55263  0.27373  0.94389  Biso   1.000  C
  C36      1.0000 0.05263  0.77373  0.94389  Biso   1.000  C
  C37      1.0000 0.55263  0.72627  0.44389  Biso   1.000  C
  C38      1.0000 0.05263  0.22627  0.44389  Biso   1.000  C
  C39      1.0000 0.44737  0.72627  0.05611  Biso   1.000  C
  C40      1.0000 0.94737  0.22627  0.05611  Biso   1.000  C
  H41      1.0000 0.42970  0.23730  0.60790  Biso   1.000  H
  H42      1.0000 0.92970  0.73730  0.60790  Biso   1.000  H
  H43      1.0000 0.57030  0.23730  0.89210  Biso   1.000  H
  H44      1.0000 0.07030  0.73730  0.89210  Biso   1.000  H
  H45      1.0000 0.57030  0.76270  0.39210  Biso   1.000  H
  H46      1.0000 0.07030  0.26270  0.39210  Biso   1.000  H
  H47      1.0000 0.42970  0.76270  0.10790  Biso   1.000  H
  H48      1.0000 0.92970  0.26270  0.10790  Biso   1.000  H
  C41      1.0000 0.32148  0.35129  0.33817  Biso   1.000  C
  C42      1.0000 0.82148  0.85129  0.33817  Biso   1.000  C
  C43      1.0000 0.67852  0.35129  0.16183  Biso   1.000  C
  C44      1.0000 0.17852  0.85129  0.16183  Biso   1.000  C
  C45      1.0000 0.67852  0.64871  0.66183  Biso   1.000  C
  C46      1.0000 0.17852  0.14871  0.66183  Biso   1.000  C
  C47      1.0000 0.32148  0.64871  0.83817  Biso   1.000  C
  C48      1.0000 0.82148  0.14871  0.83817  Biso   1.000  C
  C49      1.0000 0.08886  0.51270  0.53782  Biso   1.000  C
  C50      1.0000 0.58886  0.01270  0.53782  Biso   1.000  C
  C51      1.0000 0.91114  0.51270  0.96218  Biso   1.000  C
  C52      1.0000 0.41114  0.01270  0.96218  Biso   1.000  C
  C53      1.0000 0.91114  0.48730  0.46218  Biso   1.000  C
  C54      1.0000 0.41114  0.98730  0.46218  Biso   1.000  C
  C55      1.0000 0.08886  0.48730  0.03782  Biso   1.000  C
  C56      1.0000 0.58886  0.98730  0.03782  Biso   1.000  C
  C57      1.0000 0.07126  0.53943  0.44159  Biso   1.000  C
  C58      1.0000 0.57126  0.03943  0.44159  Biso   1.000  C
  C59      1.0000 0.92874  0.53943  0.05841  Biso   1.000  C
  C60      1.0000 0.42874  0.03943  0.05841  Biso   1.000  C
  C61      1.0000 0.92874  0.46057  0.55841  Biso   1.000  C
  C62      1.0000 0.42874  0.96057  0.55841  Biso   1.000  C
  C63      1.0000 0.07126  0.46057  0.94159  Biso   1.000  C
  C64      1.0000 0.57126  0.96057  0.94159  Biso   1.000  C
  C65      1.0000 0.01711  0.47410  0.59482  Biso   1.000  C
  C66      1.0000 0.51711  0.97410  0.59482  Biso   1.000  C
  C67      1.0000 0.98289  0.47410  0.90518  Biso   1.000  C
  C68      1.0000 0.48289  0.97410  0.90518  Biso   1.000  C
  C69      1.0000 0.98289  0.52590  0.40518  Biso   1.000  C
  C70      1.0000 0.48289  0.02590  0.40518  Biso   1.000  C
  C71      1.0000 0.01711  0.52590  0.09482  Biso   1.000  C
  C72      1.0000 0.51711  0.02590  0.09482  Biso   1.000  C
  H49      1.0000 0.02640  0.45890  0.65990  Biso   1.000  H
  H50      1.0000 0.52640  0.95890  0.65990  Biso   1.000  H
  H51      1.0000 0.97360  0.45890  0.84010  Biso   1.000  H
  H52      1.0000 0.47360  0.95890  0.84010  Biso   1.000  H
  H53      1.0000 0.97360  0.54110  0.34010  Biso   1.000  H
  H54      1.0000 0.47360  0.04110  0.34010  Biso   1.000  H
  H55      1.0000 0.02640  0.54110  0.15990  Biso   1.000  H
  H56      1.0000 0.52640  0.04110  0.15990  Biso   1.000  H
  C73      1.0000 0.18161  0.51963  0.58646  Biso   1.000  C
  C74      1.0000 0.68161  0.01963  0.58646  Biso   1.000  C
  C75      1.0000 0.81839  0.51963  0.91354  Biso   1.000  C
  C76      1.0000 0.31839  0.01963  0.91354  Biso   1.000  C
  C77      1.0000 0.81839  0.48037  0.41354  Biso   1.000  C
  C78      1.0000 0.31839  0.98037  0.41354  Biso   1.000  C
  C79      1.0000 0.18161  0.48037  0.08646  Biso   1.000  C
  C80      1.0000 0.68161  0.98037  0.08646  Biso   1.000  C
  C81      1.0000 0.14177  0.58414  0.37275  Biso   1.000  C
  C82      1.0000 0.64177  0.08414  0.37275  Biso   1.000  C
  C83      1.0000 0.85823  0.58414  0.12725  Biso   1.000  C
  C84      1.0000 0.35823  0.08414  0.12725  Biso   1.000  C
  C85      1.0000 0.85823  0.41586  0.62725  Biso   1.000  C
  C86      1.0000 0.35823  0.91586  0.62725  Biso   1.000  C
  C87      1.0000 0.14177  0.41586  0.87275  Biso   1.000  C
  C88      1.0000 0.64177  0.91586  0.87275  Biso   1.000  C
  O49      1.0000 0.33615  0.35078  0.76704  Biso   1.000  O
  O50      1.0000 0.83615  0.85078  0.76704  Biso   1.000  O
  O51      1.0000 0.66385  0.35078  0.73296  Biso   1.000  O
  O52      1.0000 0.16385  0.85078  0.73296  Biso   1.000  O
  O53      1.0000 0.66385  0.64922  0.23296  Biso   1.000  O
  O54      1.0000 0.16385  0.14922  0.23296  Biso   1.000  O
  O55      1.0000 0.33615  0.64922  0.26704  Biso   1.000  O
  O56      1.0000 0.83615  0.14922  0.26704  Biso   1.000  O
  H57      1.0000 0.33330  0.41600  0.73760  Biso   1.000  H
  H58      1.0000 0.83330  0.91600  0.73760  Biso   1.000  H
  H59      1.0000 0.66670  0.41600  0.76240  Biso   1.000  H
  H60      1.0000 0.16670  0.91600  0.76240  Biso   1.000  H
  H61      1.0000 0.66670  0.58400  0.26240  Biso   1.000  H
  H62      1.0000 0.16670  0.08400  0.26240  Biso   1.000  H
  H63      1.0000 0.33330  0.58400  0.23760  Biso   1.000  H
  H64      1.0000 0.83330  0.08400  0.23760  Biso   1.000  H
  H65      1.0000 0.31900  0.29600  0.72900  Biso   1.000  H
  H66      1.0000 0.81900  0.79600  0.72900  Biso   1.000  H
  H67      1.0000 0.68100  0.29600  0.77100  Biso   1.000  H
  H68      1.0000 0.18100  0.79600  0.77100  Biso   1.000  H
  H69      1.0000 0.68100  0.70400  0.27100  Biso   1.000  H
  H70      1.0000 0.18100  0.20400  0.27100  Biso   1.000  H
  H71      1.0000 0.31900  0.70400  0.22900  Biso   1.000  H
  H72      1.0000 0.81900  0.20400  0.22900  Biso   1.000  H
