data_image0
_cell_length_a       27.012
_cell_length_b       27.012
_cell_length_c       6.982
_cell_angle_alpha    90
_cell_angle_beta     90
_cell_angle_gamma    120

_symmetry_space_group_name_H-M    "P 1"
_symmetry_int_tables_number       1

loop_
  _symmetry_equiv_pos_as_xyz
  'x, y, z'

loop_
  _atom_site_label
  _atom_site_occupancy
  _atom_site_fract_x
  _atom_site_fract_y
  _atom_site_fract_z
  _atom_site_thermal_displace_type
  _atom_site_B_iso_or_equiv
  _atom_site_type_symbol
  Cu1      1.0000 0.12370  0.34574  0.73918  Biso   1.000  Cu
  Cu2      1.0000 0.65426  0.77796  0.73918  Biso   1.000  Cu
  Cu3      1.0000 0.22204  0.87630  0.73918  Biso   1.000  Cu
  Cu4      1.0000 0.79037  0.67908  0.07251  Biso   1.000  Cu
  Cu5      1.0000 0.32092  0.11129  0.07251  Biso   1.000  Cu
  Cu6      1.0000 0.88871  0.20963  0.07251  Biso   1.000  Cu
  Cu7      1.0000 0.45704  0.01241  0.40585  Biso   1.000  Cu
  Cu8      1.0000 0.98759  0.44463  0.40585  Biso   1.000  Cu
  Cu9      1.0000 0.55537  0.54296  0.40585  Biso   1.000  Cu
  Cu10     1.0000 0.87630  0.65426  0.26082  Biso   1.000  Cu
  Cu11     1.0000 0.34574  0.22204  0.26082  Biso   1.000  Cu
  Cu12     1.0000 0.77796  0.12370  0.26082  Biso   1.000  Cu
  Cu13     1.0000 0.54296  0.98759  0.59415  Biso   1.000  Cu
  Cu14     1.0000 0.01241  0.55537  0.59415  Biso   1.000  Cu
  Cu15     1.0000 0.44463  0.45704  0.59415  Biso   1.000  Cu
  Cu16     1.0000 0.20963  0.32092  0.92749  Biso   1.000  Cu
  Cu17     1.0000 0.67908  0.88871  0.92749  Biso   1.000  Cu
  Cu18     1.0000 0.11129  0.79037  0.92749  Biso   1.000  Cu
  O1       1.0000 0.15486  0.29467  0.70920  Biso   1.000  O
  O2       1.0000 0.70533  0.86019  0.70920  Biso   1.000  O
  O3       1.0000 0.13981  0.84514  0.70920  Biso   1.000  O
  O4       1.0000 0.82153  0.62800  0.04253  Biso   1.000  O
  O5       1.0000 0.37200  0.19352  0.04253  Biso   1.000  O
  O6       1.0000 0.80648  0.17847  0.04253  Biso   1.000  O
  O7       1.0000 0.48819  0.96134  0.37587  Biso   1.000  O
  O8       1.0000 0.03866  0.52686  0.37587  Biso   1.000  O
  O9       1.0000 0.47314  0.51181  0.37587  Biso   1.000  O
  O10      1.0000 0.84514  0.70533  0.29080  Biso   1.000  O
  O11      1.0000 0.29467  0.13981  0.29080  Biso   1.000  O
  O12      1.0000 0.86019  0.15486  0.29080  Biso   1.000  O
  O13      1.0000 0.51181  0.03866  0.62413  Biso   1.000  O
  O14      1.0000 0.96134  0.47314  0.62413  Biso   1.000  O
  O15      1.0000 0.52686  0.48819  0.62413  Biso   1.000  O
  O16      1.0000 0.17847  0.37200  0.95747  Biso   1.000  O
  O17      1.0000 0.62800  0.80648  0.95747  Biso   1.000  O
  O18      1.0000 0.19352  0.82153  0.95747  Biso   1.000  O
  O19      1.0000 0.09642  0.39991  0.74770  Biso   1.000  O
  O20      1.0000 0.60009  0.69651  0.74770  Biso   1.000  O
  O21      1.0000 0.30349  0.90358  0.74770  Biso   1.000  O
  O22      1.0000 0.76309  0.73324  0.08103  Biso   1.000  O
  O23      1.0000 0.26676  0.02984  0.08103  Biso   1.000  O
  O24      1.0000 0.97016  0.23691  0.08103  Biso   1.000  O
  O25      1.0000 0.42975  0.06658  0.41437  Biso   1.000  O
  O26      1.0000 0.93342  0.36318  0.41437  Biso   1.000  O
  O27      1.0000 0.63682  0.57025  0.41437  Biso   1.000  O
  O28      1.0000 0.90358  0.60009  0.25230  Biso   1.000  O
  O29      1.0000 0.39991  0.30349  0.25230  Biso   1.000  O
  O30      1.0000 0.69651  0.09642  0.25230  Biso   1.000  O
  O31      1.0000 0.57025  0.93342  0.58563  Biso   1.000  O
  O32      1.0000 0.06658  0.63682  0.58563  Biso   1.000  O
  O33      1.0000 0.36318  0.42975  0.58563  Biso   1.000  O
  O34      1.0000 0.23691  0.26676  0.91897  Biso   1.000  O
  O35      1.0000 0.73324  0.97016  0.91897  Biso   1.000  O
  O36      1.0000 0.02984  0.76309  0.91897  Biso   1.000  O
  O37      1.0000 0.05376  0.43726  0.58180  Biso   1.000  O
  O38      1.0000 0.56274  0.61650  0.58180  Biso   1.000  O
  O39      1.0000 0.38350  0.94624  0.58180  Biso   1.000  O
  O40      1.0000 0.72043  0.77059  0.91513  Biso   1.000  O
  O41      1.0000 0.22941  0.94983  0.91513  Biso   1.000  O
  O42      1.0000 0.05017  0.27957  0.91513  Biso   1.000  O
  O43      1.0000 0.38709  0.10393  0.24847  Biso   1.000  O
  O44      1.0000 0.89607  0.28317  0.24847  Biso   1.000  O
  O45      1.0000 0.71683  0.61291  0.24847  Biso   1.000  O
  O46      1.0000 0.94624  0.56274  0.41820  Biso   1.000  O
  O47      1.0000 0.43726  0.38350  0.41820  Biso   1.000  O
  O48      1.0000 0.61650  0.05376  0.41820  Biso   1.000  O
  O49      1.0000 0.61291  0.89607  0.75153  Biso   1.000  O
  O50      1.0000 0.10393  0.71683  0.75153  Biso   1.000  O
  O51      1.0000 0.28317  0.38709  0.75153  Biso   1.000  O
  O52      1.0000 0.27957  0.22941  0.08487  Biso   1.000  O
  O53      1.0000 0.77059  0.05017  0.08487  Biso   1.000  O
  O54      1.0000 0.94983  0.72043  0.08487  Biso   1.000  O
  N1       1.0000 0.09273  0.33126  0.48390  Biso   1.000  N
  N2       1.0000 0.66874  0.76147  0.48390  Biso   1.000  N
  N3       1.0000 0.23853  0.90727  0.48390  Biso   1.000  N
  N4       1.0000 0.75940  0.66459  0.81723  Biso   1.000  N
  N5       1.0000 0.33541  0.09480  0.81723  Biso   1.000  N
  N6       1.0000 0.90520  0.24060  0.81723  Biso   1.000  N
  N7       1.0000 0.42606  0.99793  0.15057  Biso   1.000  N
  N8       1.0000 0.00207  0.42814  0.15057  Biso   1.000  N
  N9       1.0000 0.57186  0.57394  0.15057  Biso   1.000  N
  N10      1.0000 0.90727  0.66874  0.51610  Biso   1.000  N
  N11      1.0000 0.33126  0.23853  0.51610  Biso   1.000  N
  N12      1.0000 0.76147  0.09273  0.51610  Biso   1.000  N
  N13      1.0000 0.57394  0.00207  0.84943  Biso   1.000  N
  N14      1.0000 0.99793  0.57186  0.84943  Biso   1.000  N
  N15      1.0000 0.42814  0.42606  0.84943  Biso   1.000  N
  N16      1.0000 0.24060  0.33541  0.18277  Biso   1.000  N
  N17      1.0000 0.66459  0.90520  0.18277  Biso   1.000  N
  N18      1.0000 0.09480  0.75940  0.18277  Biso   1.000  N
  C1       1.0000 0.07322  0.40487  0.59730  Biso   1.000  C
  C2       1.0000 0.59513  0.66835  0.59730  Biso   1.000  C
  C3       1.0000 0.33165  0.92678  0.59730  Biso   1.000  C
  C4       1.0000 0.73989  0.73820  0.93063  Biso   1.000  C
  C5       1.0000 0.26180  0.00168  0.93063  Biso   1.000  C
  C6       1.0000 0.99832  0.26011  0.93063  Biso   1.000  C
  C7       1.0000 0.40655  0.07154  0.26397  Biso   1.000  C
  C8       1.0000 0.92846  0.33502  0.26397  Biso   1.000  C
  C9       1.0000 0.66498  0.59345  0.26397  Biso   1.000  C
  C10      1.0000 0.92678  0.59513  0.40270  Biso   1.000  C
  C11      1.0000 0.40487  0.33165  0.40270  Biso   1.000  C
  C12      1.0000 0.66835  0.07322  0.40270  Biso   1.000  C
  C13      1.0000 0.59345  0.92846  0.73603  Biso   1.000  C
  C14      1.0000 0.07154  0.66498  0.73603  Biso   1.000  C
  C15      1.0000 0.33502  0.40655  0.73603  Biso   1.000  C
  C16      1.0000 0.26011  0.26180  0.06937  Biso   1.000  C
  C17      1.0000 0.73820  0.99832  0.06937  Biso   1.000  C
  C18      1.0000 0.00168  0.73989  0.06937  Biso   1.000  C
  C19      1.0000 0.09237  0.29524  0.36350  Biso   1.000  C
  C20      1.0000 0.70476  0.79713  0.36350  Biso   1.000  C
  C21      1.0000 0.20287  0.90763  0.36350  Biso   1.000  C
  C22      1.0000 0.75904  0.62857  0.69683  Biso   1.000  C
  C23      1.0000 0.37143  0.13046  0.69683  Biso   1.000  C
  C24      1.0000 0.86954  0.24096  0.69683  Biso   1.000  C
  C25      1.0000 0.42570  0.96191  0.03017  Biso   1.000  C
  C26      1.0000 0.03809  0.46380  0.03017  Biso   1.000  C
  C27      1.0000 0.53620  0.57430  0.03017  Biso   1.000  C
  C28      1.0000 0.90763  0.70476  0.63650  Biso   1.000  C
  C29      1.0000 0.29524  0.20287  0.63650  Biso   1.000  C
  C30      1.0000 0.79713  0.09237  0.63650  Biso   1.000  C
  C31      1.0000 0.57430  0.03809  0.96983  Biso   1.000  C
  C32      1.0000 0.96191  0.53620  0.96983  Biso   1.000  C
  C33      1.0000 0.46380  0.42570  0.96983  Biso   1.000  C
  C34      1.0000 0.24096  0.37143  0.30317  Biso   1.000  C
  C35      1.0000 0.62857  0.86954  0.30317  Biso   1.000  C
  C36      1.0000 0.13046  0.75904  0.30317  Biso   1.000  C
  H1       1.0000 0.07770  0.29440  0.23920  Biso   1.000  H
  H2       1.0000 0.70560  0.78330  0.23920  Biso   1.000  H
  H3       1.0000 0.21670  0.92230  0.23920  Biso   1.000  H
  H4       1.0000 0.74437  0.62773  0.57253  Biso   1.000  H
  H5       1.0000 0.37227  0.11663  0.57253  Biso   1.000  H
  H6       1.0000 0.88337  0.25563  0.57253  Biso   1.000  H
  H7       1.0000 0.41103  0.96107  0.90587  Biso   1.000  H
  H8       1.0000 0.03893  0.44997  0.90587  Biso   1.000  H
  H9       1.0000 0.55003  0.58897  0.90587  Biso   1.000  H
  H10      1.0000 0.92230  0.70560  0.76080  Biso   1.000  H
  H11      1.0000 0.29440  0.21670  0.76080  Biso   1.000  H
  H12      1.0000 0.78330  0.07770  0.76080  Biso   1.000  H
  H13      1.0000 0.58897  0.03893  0.09413  Biso   1.000  H
  H14      1.0000 0.96107  0.55003  0.09413  Biso   1.000  H
  H15      1.0000 0.44997  0.41103  0.09413  Biso   1.000  H
  H16      1.0000 0.25563  0.37227  0.42747  Biso   1.000  H
  H17      1.0000 0.62773  0.88337  0.42747  Biso   1.000  H
  H18      1.0000 0.11663  0.74437  0.42747  Biso   1.000  H
  C37      1.0000 0.11244  0.25598  0.40200  Biso   1.000  C
  C38      1.0000 0.74402  0.85646  0.40200  Biso   1.000  C
  C39      1.0000 0.14354  0.88756  0.40200  Biso   1.000  C
  C40      1.0000 0.77911  0.58931  0.73533  Biso   1.000  C
  C41      1.0000 0.41069  0.18979  0.73533  Biso   1.000  C
  C42      1.0000 0.81021  0.22089  0.73533  Biso   1.000  C
  C43      1.0000 0.44577  0.92265  0.06867  Biso   1.000  C
  C44      1.0000 0.07735  0.52313  0.06867  Biso   1.000  C
  C45      1.0000 0.47687  0.55423  0.06867  Biso   1.000  C
  C46      1.0000 0.88756  0.74402  0.59800  Biso   1.000  C
  C47      1.0000 0.25598  0.14354  0.59800  Biso   1.000  C
  C48      1.0000 0.85646  0.11244  0.59800  Biso   1.000  C
  C49      1.0000 0.55423  0.07735  0.93133  Biso   1.000  C
  C50      1.0000 0.92265  0.47687  0.93133  Biso   1.000  C
  C51      1.0000 0.52313  0.44577  0.93133  Biso   1.000  C
  C52      1.0000 0.22089  0.41069  0.26467  Biso   1.000  C
  C53      1.0000 0.58931  0.81021  0.26467  Biso   1.000  C
  C54      1.0000 0.18979  0.77911  0.26467  Biso   1.000  C
  C55      1.0000 0.14029  0.25502  0.57290  Biso   1.000  C
  C56      1.0000 0.74498  0.88527  0.57290  Biso   1.000  C
  C57      1.0000 0.11473  0.85971  0.57290  Biso   1.000  C
  C58      1.0000 0.80696  0.58835  0.90623  Biso   1.000  C
  C59      1.0000 0.41165  0.21860  0.90623  Biso   1.000  C
  C60      1.0000 0.78140  0.19304  0.90623  Biso   1.000  C
  C61      1.0000 0.47362  0.92169  0.23957  Biso   1.000  C
  C62      1.0000 0.07831  0.55194  0.23957  Biso   1.000  C
  C63      1.0000 0.44806  0.52638  0.23957  Biso   1.000  C
  C64      1.0000 0.85971  0.74498  0.42710  Biso   1.000  C
  C65      1.0000 0.25502  0.11473  0.42710  Biso   1.000  C
  C66      1.0000 0.88527  0.14029  0.42710  Biso   1.000  C
  C67      1.0000 0.52638  0.07831  0.76043  Biso   1.000  C
  C68      1.0000 0.92169  0.44806  0.76043  Biso   1.000  C
  C69      1.0000 0.55194  0.47362  0.76043  Biso   1.000  C
  C70      1.0000 0.19304  0.41165  0.09377  Biso   1.000  C
  C71      1.0000 0.58835  0.78140  0.09377  Biso   1.000  C
  C72      1.0000 0.21860  0.80696  0.09377  Biso   1.000  C
  C73      1.0000 0.06919  0.36742  0.42810  Biso   1.000  C
  C74      1.0000 0.63258  0.70177  0.42810  Biso   1.000  C
  C75      1.0000 0.29823  0.93081  0.42810  Biso   1.000  C
  C76      1.0000 0.73586  0.70075  0.76143  Biso   1.000  C
  C77      1.0000 0.29925  0.03510  0.76143  Biso   1.000  C
  C78      1.0000 0.96490  0.26414  0.76143  Biso   1.000  C
  C79      1.0000 0.40252  0.03409  0.09477  Biso   1.000  C
  C80      1.0000 0.96591  0.36844  0.09477  Biso   1.000  C
  C81      1.0000 0.63156  0.59748  0.09477  Biso   1.000  C
  C82      1.0000 0.93081  0.63258  0.57190  Biso   1.000  C
  C83      1.0000 0.36742  0.29823  0.57190  Biso   1.000  C
  C84      1.0000 0.70177  0.06919  0.57190  Biso   1.000  C
  C85      1.0000 0.59748  0.96591  0.90523  Biso   1.000  C
  C86      1.0000 0.03409  0.63156  0.90523  Biso   1.000  C
  C87      1.0000 0.36844  0.40252  0.90523  Biso   1.000  C
  C88      1.0000 0.26414  0.29925  0.23857  Biso   1.000  C
  C89      1.0000 0.70075  0.96490  0.23857  Biso   1.000  C
  C90      1.0000 0.03510  0.73586  0.23857  Biso   1.000  C
  H19      1.0000 0.02880  0.34330  0.38900  Biso   1.000  H
  H20      1.0000 0.65670  0.68550  0.38900  Biso   1.000  H
  H21      1.0000 0.31450  0.97120  0.38900  Biso   1.000  H
  H22      1.0000 0.69547  0.67663  0.72233  Biso   1.000  H
  H23      1.0000 0.32337  0.01883  0.72233  Biso   1.000  H
  H24      1.0000 0.98117  0.30453  0.72233  Biso   1.000  H
  H25      1.0000 0.36213  0.00997  0.05567  Biso   1.000  H
  H26      1.0000 0.99003  0.35217  0.05567  Biso   1.000  H
  H27      1.0000 0.64783  0.63787  0.05567  Biso   1.000  H
  H28      1.0000 0.97120  0.65670  0.61100  Biso   1.000  H
  H29      1.0000 0.34330  0.31450  0.61100  Biso   1.000  H
  H30      1.0000 0.68550  0.02880  0.61100  Biso   1.000  H
  H31      1.0000 0.63787  0.99003  0.94433  Biso   1.000  H
  H32      1.0000 0.00997  0.64783  0.94433  Biso   1.000  H
  H33      1.0000 0.35217  0.36213  0.94433  Biso   1.000  H
  H34      1.0000 0.30453  0.32337  0.27767  Biso   1.000  H
  H35      1.0000 0.67663  0.98117  0.27767  Biso   1.000  H
  H36      1.0000 0.01883  0.69547  0.27767  Biso   1.000  H
  H37      1.0000 0.09080  0.39170  0.31800  Biso   1.000  H
  H38      1.0000 0.60830  0.69910  0.31800  Biso   1.000  H
  H39      1.0000 0.30090  0.90920  0.31800  Biso   1.000  H
  H40      1.0000 0.75747  0.72503  0.65133  Biso   1.000  H
  H41      1.0000 0.27497  0.03243  0.65133  Biso   1.000  H
  H42      1.0000 0.96757  0.24253  0.65133  Biso   1.000  H
  H43      1.0000 0.42413  0.05837  0.98467  Biso   1.000  H
  H44      1.0000 0.94163  0.36577  0.98467  Biso   1.000  H
  H45      1.0000 0.63423  0.57587  0.98467  Biso   1.000  H
  H46      1.0000 0.90920  0.60830  0.68200  Biso   1.000  H
  H47      1.0000 0.39170  0.30090  0.68200  Biso   1.000  H
  H48      1.0000 0.69910  0.09080  0.68200  Biso   1.000  H
  H49      1.0000 0.57587  0.94163  0.01533  Biso   1.000  H
  H50      1.0000 0.05837  0.63423  0.01533  Biso   1.000  H
  H51      1.0000 0.36577  0.42413  0.01533  Biso   1.000  H
  H52      1.0000 0.24253  0.27497  0.34867  Biso   1.000  H
  H53      1.0000 0.72503  0.96757  0.34867  Biso   1.000  H
  H54      1.0000 0.03243  0.75747  0.34867  Biso   1.000  H
  C91      1.0000 0.10227  0.21575  0.25710  Biso   1.000  C
  C92      1.0000 0.78425  0.88652  0.25710  Biso   1.000  C
  C93      1.0000 0.11348  0.89773  0.25710  Biso   1.000  C
  C94      1.0000 0.76894  0.54908  0.59043  Biso   1.000  C
  C95      1.0000 0.45092  0.21985  0.59043  Biso   1.000  C
  C96      1.0000 0.78015  0.23106  0.59043  Biso   1.000  C
  C97      1.0000 0.43560  0.88242  0.92377  Biso   1.000  C
  C98      1.0000 0.11758  0.55319  0.92377  Biso   1.000  C
  C99      1.0000 0.44681  0.56440  0.92377  Biso   1.000  C
  C100     1.0000 0.89773  0.78425  0.74290  Biso   1.000  C
  C101     1.0000 0.21575  0.11348  0.74290  Biso   1.000  C
  C102     1.0000 0.88652  0.10227  0.74290  Biso   1.000  C
  C103     1.0000 0.56440  0.11758  0.07623  Biso   1.000  C
  C104     1.0000 0.88242  0.44681  0.07623  Biso   1.000  C
  C105     1.0000 0.55319  0.43560  0.07623  Biso   1.000  C
  C106     1.0000 0.23106  0.45092  0.40957  Biso   1.000  C
  C107     1.0000 0.54908  0.78015  0.40957  Biso   1.000  C
  C108     1.0000 0.21985  0.76894  0.40957  Biso   1.000  C
  H55      1.0000 0.08490  0.21740  0.14060  Biso   1.000  H
  H56      1.0000 0.78260  0.86750  0.14060  Biso   1.000  H
  H57      1.0000 0.13250  0.91510  0.14060  Biso   1.000  H
  H58      1.0000 0.75157  0.55073  0.47393  Biso   1.000  H
  H59      1.0000 0.44927  0.20083  0.47393  Biso   1.000  H
  H60      1.0000 0.79917  0.24843  0.47393  Biso   1.000  H
  H61      1.0000 0.41823  0.88407  0.80727  Biso   1.000  H
  H62      1.0000 0.11593  0.53417  0.80727  Biso   1.000  H
  H63      1.0000 0.46583  0.58177  0.80727  Biso   1.000  H
  H64      1.0000 0.91510  0.78260  0.85940  Biso   1.000  H
  H65      1.0000 0.21740  0.13250  0.85940  Biso   1.000  H
  H66      1.0000 0.86750  0.08490  0.85940  Biso   1.000  H
  H67      1.0000 0.58177  0.11593  0.19273  Biso   1.000  H
  H68      1.0000 0.88407  0.46583  0.19273  Biso   1.000  H
  H69      1.0000 0.53417  0.41823  0.19273  Biso   1.000  H
  H70      1.0000 0.24843  0.44927  0.52607  Biso   1.000  H
  H71      1.0000 0.55073  0.79917  0.52607  Biso   1.000  H
  H72      1.0000 0.20083  0.75157  0.52607  Biso   1.000  H
  C109     1.0000 0.15261  0.21060  0.59410  Biso   1.000  C
  C110     1.0000 0.78940  0.94201  0.59410  Biso   1.000  C
  C111     1.0000 0.05799  0.84739  0.59410  Biso   1.000  C
  C112     1.0000 0.81928  0.54393  0.92743  Biso   1.000  C
  C113     1.0000 0.45607  0.27534  0.92743  Biso   1.000  C
  C114     1.0000 0.72466  0.18072  0.92743  Biso   1.000  C
  C115     1.0000 0.48594  0.87727  0.26077  Biso   1.000  C
  C116     1.0000 0.12273  0.60868  0.26077  Biso   1.000  C
  C117     1.0000 0.39132  0.51406  0.26077  Biso   1.000  C
  C118     1.0000 0.84739  0.78940  0.40590  Biso   1.000  C
  C119     1.0000 0.21060  0.05799  0.40590  Biso   1.000  C
  C120     1.0000 0.94201  0.15261  0.40590  Biso   1.000  C
  C121     1.0000 0.51406  0.12273  0.73923  Biso   1.000  C
  C122     1.0000 0.87727  0.39132  0.73923  Biso   1.000  C
  C123     1.0000 0.60868  0.48594  0.73923  Biso   1.000  C
  C124     1.0000 0.18072  0.45607  0.07257  Biso   1.000  C
  C125     1.0000 0.54393  0.72466  0.07257  Biso   1.000  C
  C126     1.0000 0.27534  0.81928  0.07257  Biso   1.000  C
  H73      1.0000 0.16920  0.20750  0.71020  Biso   1.000  H
  H74      1.0000 0.79250  0.96170  0.71020  Biso   1.000  H
  H75      1.0000 0.03830  0.83080  0.71020  Biso   1.000  H
  H76      1.0000 0.83587  0.54083  0.04353  Biso   1.000  H
  H77      1.0000 0.45917  0.29503  0.04353  Biso   1.000  H
  H78      1.0000 0.70497  0.16413  0.04353  Biso   1.000  H
  H79      1.0000 0.50253  0.87417  0.37687  Biso   1.000  H
  H80      1.0000 0.12583  0.62837  0.37687  Biso   1.000  H
  H81      1.0000 0.37163  0.49747  0.37687  Biso   1.000  H
  H82      1.0000 0.83080  0.79250  0.28980  Biso   1.000  H
  H83      1.0000 0.20750  0.03830  0.28980  Biso   1.000  H
  H84      1.0000 0.96170  0.16920  0.28980  Biso   1.000  H
  H85      1.0000 0.49747  0.12583  0.62313  Biso   1.000  H
  H86      1.0000 0.87417  0.37163  0.62313  Biso   1.000  H
  H87      1.0000 0.62837  0.50253  0.62313  Biso   1.000  H
  H88      1.0000 0.16413  0.45917  0.95647  Biso   1.000  H
  H89      1.0000 0.54083  0.70497  0.95647  Biso   1.000  H
  H90      1.0000 0.29503  0.83587  0.95647  Biso   1.000  H
  C127     1.0000 0.11690  0.17440  0.28070  Biso   1.000  C
  C128     1.0000 0.82560  0.94250  0.28070  Biso   1.000  C
  C129     1.0000 0.05750  0.88310  0.28070  Biso   1.000  C
  C130     1.0000 0.78357  0.50773  0.61403  Biso   1.000  C
  C131     1.0000 0.49227  0.27583  0.61403  Biso   1.000  C
  C132     1.0000 0.72417  0.21643  0.61403  Biso   1.000  C
  C133     1.0000 0.45023  0.84107  0.94737  Biso   1.000  C
  C134     1.0000 0.15893  0.60917  0.94737  Biso   1.000  C
  C135     1.0000 0.39083  0.54977  0.94737  Biso   1.000  C
  C136     1.0000 0.88310  0.82560  0.71930  Biso   1.000  C
  C137     1.0000 0.17440  0.05750  0.71930  Biso   1.000  C
  C138     1.0000 0.94250  0.11690  0.71930  Biso   1.000  C
  C139     1.0000 0.54977  0.15893  0.05263  Biso   1.000  C
  C140     1.0000 0.84107  0.39083  0.05263  Biso   1.000  C
  C141     1.0000 0.60917  0.45023  0.05263  Biso   1.000  C
  C142     1.0000 0.21643  0.49227  0.38597  Biso   1.000  C
  C143     1.0000 0.50773  0.72417  0.38597  Biso   1.000  C
  C144     1.0000 0.27583  0.78357  0.38597  Biso   1.000  C
  H91      1.0000 0.11030  0.14800  0.18070  Biso   1.000  H
  H92      1.0000 0.85200  0.96230  0.18070  Biso   1.000  H
  H93      1.0000 0.03770  0.88970  0.18070  Biso   1.000  H
  H94      1.0000 0.77697  0.48133  0.51403  Biso   1.000  H
  H95      1.0000 0.51867  0.29563  0.51403  Biso   1.000  H
  H96      1.0000 0.70437  0.22303  0.51403  Biso   1.000  H
  H97      1.0000 0.44363  0.81467  0.84737  Biso   1.000  H
  H98      1.0000 0.18533  0.62897  0.84737  Biso   1.000  H
  H99      1.0000 0.37103  0.55637  0.84737  Biso   1.000  H
  H100     1.0000 0.88970  0.85200  0.81930  Biso   1.000  H
  H101     1.0000 0.14800  0.03770  0.81930  Biso   1.000  H
  H102     1.0000 0.96230  0.11030  0.81930  Biso   1.000  H
  H103     1.0000 0.55637  0.18533  0.15263  Biso   1.000  H
  H104     1.0000 0.81467  0.37103  0.15263  Biso   1.000  H
  H105     1.0000 0.62897  0.44363  0.15263  Biso   1.000  H
  H106     1.0000 0.22303  0.51867  0.48597  Biso   1.000  H
  H107     1.0000 0.48133  0.70437  0.48597  Biso   1.000  H
  H108     1.0000 0.29563  0.77697  0.48597  Biso   1.000  H
  C145     1.0000 0.14120  0.17140  0.45070  Biso   1.000  C
  C146     1.0000 0.82860  0.96980  0.45070  Biso   1.000  C
  C147     1.0000 0.03020  0.85880  0.45070  Biso   1.000  C
  C148     1.0000 0.80787  0.50473  0.78403  Biso   1.000  C
  C149     1.0000 0.49527  0.30313  0.78403  Biso   1.000  C
  C150     1.0000 0.69687  0.19213  0.78403  Biso   1.000  C
  C151     1.0000 0.47453  0.83807  0.11737  Biso   1.000  C
  C152     1.0000 0.16193  0.63647  0.11737  Biso   1.000  C
  C153     1.0000 0.36353  0.52547  0.11737  Biso   1.000  C
  C154     1.0000 0.85880  0.82860  0.54930  Biso   1.000  C
  C155     1.0000 0.17140  0.03020  0.54930  Biso   1.000  C
  C156     1.0000 0.96980  0.14120  0.54930  Biso   1.000  C
  C157     1.0000 0.52547  0.16193  0.88263  Biso   1.000  C
  C158     1.0000 0.83807  0.36353  0.88263  Biso   1.000  C
  C159     1.0000 0.63647  0.47453  0.88263  Biso   1.000  C
  C160     1.0000 0.19213  0.49527  0.21597  Biso   1.000  C
  C161     1.0000 0.50473  0.69687  0.21597  Biso   1.000  C
  C162     1.0000 0.30313  0.80787  0.21597  Biso   1.000  C
  H109     1.0000 0.15020  0.14190  0.46890  Biso   1.000  H
  H110     1.0000 0.85810  0.00830  0.46890  Biso   1.000  H
  H111     1.0000 0.99170  0.84980  0.46890  Biso   1.000  H
  H112     1.0000 0.81687  0.47523  0.80223  Biso   1.000  H
  H113     1.0000 0.52477  0.34163  0.80223  Biso   1.000  H
  H114     1.0000 0.65837  0.18313  0.80223  Biso   1.000  H
  H115     1.0000 0.48353  0.80857  0.13557  Biso   1.000  H
  H116     1.0000 0.19143  0.67497  0.13557  Biso   1.000  H
  H117     1.0000 0.32503  0.51647  0.13557  Biso   1.000  H
  H118     1.0000 0.84980  0.85810  0.53110  Biso   1.000  H
  H119     1.0000 0.14190  0.99170  0.53110  Biso   1.000  H
  H120     1.0000 0.00830  0.15020  0.53110  Biso   1.000  H
  H121     1.0000 0.51647  0.19143  0.86443  Biso   1.000  H
  H122     1.0000 0.80857  0.32503  0.86443  Biso   1.000  H
  H123     1.0000 0.67497  0.48353  0.86443  Biso   1.000  H
  H124     1.0000 0.18313  0.52477  0.19777  Biso   1.000  H
  H125     1.0000 0.47523  0.65837  0.19777  Biso   1.000  H
  H126     1.0000 0.34163  0.81687  0.19777  Biso   1.000  H
