data_image0
_cell_length_a       14.9144
_cell_length_b       14.3798
_cell_length_c       9.6643
_cell_angle_alpha    90
_cell_angle_beta     99.551
_cell_angle_gamma    90

_symmetry_space_group_name_H-M    "P 1"
_symmetry_int_tables_number       1

loop_
  _symmetry_equiv_pos_as_xyz
  'x, y, z'

loop_
  _atom_site_label
  _atom_site_occupancy
  _atom_site_fract_x
  _atom_site_fract_y
  _atom_site_fract_z
  _atom_site_thermal_displace_type
  _atom_site_B_iso_or_equiv
  _atom_site_type_symbol
  Cu1      1.0000 0.30943  0.26390  0.25527  Biso   1.000  Cu
  Cu2      1.0000 0.69057  0.76390  0.24473  Biso   1.000  Cu
  Cu3      1.0000 0.69057  0.73610  0.74473  Biso   1.000  Cu
  Cu4      1.0000 0.30943  0.23610  0.75527  Biso   1.000  Cu
  P1       1.0000 0.27263  0.38725  0.51957  Biso   1.000  P
  P2       1.0000 0.72737  0.88725  0.98043  Biso   1.000  P
  P3       1.0000 0.72737  0.61275  0.48043  Biso   1.000  P
  P4       1.0000 0.27263  0.11275  0.01957  Biso   1.000  P
  P5       1.0000 0.16966  0.21413  0.45414  Biso   1.000  P
  P6       1.0000 0.83034  0.71413  0.04586  Biso   1.000  P
  P7       1.0000 0.83034  0.78587  0.54586  Biso   1.000  P
  P8       1.0000 0.16966  0.28587  0.95414  Biso   1.000  P
  O1       1.0000 0.31734  0.36201  0.39557  Biso   1.000  O
  O2       1.0000 0.68266  0.86201  0.10443  Biso   1.000  O
  O3       1.0000 0.68266  0.63799  0.60443  Biso   1.000  O
  O4       1.0000 0.31734  0.13799  0.89557  Biso   1.000  O
  O5       1.0000 0.32438  0.35731  0.66040  Biso   1.000  O
  O6       1.0000 0.67562  0.85731  0.83960  Biso   1.000  O
  O7       1.0000 0.67562  0.64269  0.33960  Biso   1.000  O
  O8       1.0000 0.32438  0.14269  0.16040  Biso   1.000  O
  O9       1.0000 0.20107  0.20748  0.31396  Biso   1.000  O
  O10      1.0000 0.79893  0.70748  0.18604  Biso   1.000  O
  O11      1.0000 0.79893  0.79252  0.68604  Biso   1.000  O
  O12      1.0000 0.20107  0.29252  0.81396  Biso   1.000  O
  O13      1.0000 0.22967  0.16874  0.57477  Biso   1.000  O
  O14      1.0000 0.77033  0.66874  0.92523  Biso   1.000  O
  O15      1.0000 0.77033  0.83126  0.42523  Biso   1.000  O
  O16      1.0000 0.22967  0.33126  0.07477  Biso   1.000  O
  O17      1.0000 0.64745  0.41857  0.89540  Biso   1.000  O
  O18      1.0000 0.35255  0.91857  0.60460  Biso   1.000  O
  O19      1.0000 0.35255  0.58143  0.10460  Biso   1.000  O
  O20      1.0000 0.64745  0.08143  0.39540  Biso   1.000  O
  N1       1.0000 0.43002  0.31308  0.20490  Biso   1.000  N
  N2       1.0000 0.56998  0.81308  0.29510  Biso   1.000  N
  N3       1.0000 0.56998  0.68692  0.79510  Biso   1.000  N
  N4       1.0000 0.43002  0.18692  0.70490  Biso   1.000  N
  N5       1.0000 0.67060  0.52960  0.06220  Biso   1.000  N
  N6       1.0000 0.32940  0.02960  0.43780  Biso   1.000  N
  N7       1.0000 0.32940  0.47040  0.93780  Biso   1.000  N
  N8       1.0000 0.67060  0.97040  0.56220  Biso   1.000  N
  H1       1.0000 0.70000  0.55640  0.00100  Biso   1.000  H
  H2       1.0000 0.30000  0.05640  0.49900  Biso   1.000  H
  H3       1.0000 0.30000  0.44360  0.99900  Biso   1.000  H
  H4       1.0000 0.70000  0.94360  0.50100  Biso   1.000  H
  H5       1.0000 0.65600  0.55340  0.14500  Biso   1.000  H
  H6       1.0000 0.34400  0.05340  0.35500  Biso   1.000  H
  H7       1.0000 0.34400  0.44660  0.85500  Biso   1.000  H
  H8       1.0000 0.65600  0.94660  0.64500  Biso   1.000  H
  C1       1.0000 0.16060  0.33695  0.49290  Biso   1.000  C
  C2       1.0000 0.83940  0.83695  0.00710  Biso   1.000  C
  C3       1.0000 0.83940  0.66305  0.50710  Biso   1.000  C
  C4       1.0000 0.16060  0.16305  0.99290  Biso   1.000  C
  H9       1.0000 0.12230  0.36780  0.41560  Biso   1.000  H
  H10      1.0000 0.87770  0.86780  0.08440  Biso   1.000  H
  H11      1.0000 0.87770  0.63220  0.58440  Biso   1.000  H
  H12      1.0000 0.12230  0.13220  0.91560  Biso   1.000  H
  H13      1.0000 0.13340  0.34480  0.57670  Biso   1.000  H
  H14      1.0000 0.86660  0.84480  0.92330  Biso   1.000  H
  H15      1.0000 0.86660  0.65520  0.42330  Biso   1.000  H
  H16      1.0000 0.13340  0.15520  0.07670  Biso   1.000  H
  C5       1.0000 0.26180  0.51115  0.52350  Biso   1.000  C
  C6       1.0000 0.73820  0.01115  0.97650  Biso   1.000  C
  C7       1.0000 0.73820  0.48885  0.47650  Biso   1.000  C
  C8       1.0000 0.26180  0.98885  0.02350  Biso   1.000  C
  C9       1.0000 0.21900  0.55330  0.62230  Biso   1.000  C
  C10      1.0000 0.78100  0.05330  0.87770  Biso   1.000  C
  C11      1.0000 0.78100  0.44670  0.37770  Biso   1.000  C
  C12      1.0000 0.21900  0.94670  0.12230  Biso   1.000  C
  H17      1.0000 0.19300  0.51720  0.68500  Biso   1.000  H
  H18      1.0000 0.80700  0.01720  0.81500  Biso   1.000  H
  H19      1.0000 0.80700  0.48280  0.31500  Biso   1.000  H
  H20      1.0000 0.19300  0.98280  0.18500  Biso   1.000  H
  C13      1.0000 0.21430  0.64960  0.62880  Biso   1.000  C
  C14      1.0000 0.78570  0.14960  0.87120  Biso   1.000  C
  C15      1.0000 0.78570  0.35040  0.37120  Biso   1.000  C
  C16      1.0000 0.21430  0.85040  0.12880  Biso   1.000  C
  H21      1.0000 0.18460  0.67780  0.69510  Biso   1.000  H
  H22      1.0000 0.81540  0.17780  0.80490  Biso   1.000  H
  H23      1.0000 0.81540  0.32220  0.30490  Biso   1.000  H
  H24      1.0000 0.18460  0.82220  0.19510  Biso   1.000  H
  C17      1.0000 0.25310  0.70250  0.53830  Biso   1.000  C
  C18      1.0000 0.74690  0.20250  0.96170  Biso   1.000  C
  C19      1.0000 0.74690  0.29750  0.46170  Biso   1.000  C
  C20      1.0000 0.25310  0.79750  0.03830  Biso   1.000  C
  H25      1.0000 0.25150  0.76700  0.54490  Biso   1.000  H
  H26      1.0000 0.74850  0.26700  0.95510  Biso   1.000  H
  H27      1.0000 0.74850  0.23300  0.45510  Biso   1.000  H
  H28      1.0000 0.25150  0.73300  0.04490  Biso   1.000  H
  C21      1.0000 0.29450  0.66150  0.43740  Biso   1.000  C
  C22      1.0000 0.70550  0.16150  0.06260  Biso   1.000  C
  C23      1.0000 0.70550  0.33850  0.56260  Biso   1.000  C
  C24      1.0000 0.29450  0.83850  0.93740  Biso   1.000  C
  H29      1.0000 0.31980  0.69790  0.37430  Biso   1.000  H
  H30      1.0000 0.68020  0.19790  0.12570  Biso   1.000  H
  H31      1.0000 0.68020  0.30210  0.62570  Biso   1.000  H
  H32      1.0000 0.31980  0.80210  0.87430  Biso   1.000  H
  C25      1.0000 0.29830  0.56630  0.43020  Biso   1.000  C
  C26      1.0000 0.70170  0.06630  0.06980  Biso   1.000  C
  C27      1.0000 0.70170  0.43370  0.56980  Biso   1.000  C
  C28      1.0000 0.29830  0.93370  0.93020  Biso   1.000  C
  H33      1.0000 0.32590  0.53850  0.36130  Biso   1.000  H
  H34      1.0000 0.67410  0.03850  0.13870  Biso   1.000  H
  H35      1.0000 0.67410  0.46150  0.63870  Biso   1.000  H
  H36      1.0000 0.32590  0.96150  0.86130  Biso   1.000  H
  C29      1.0000 0.05770  0.16684  0.43550  Biso   1.000  C
  C30      1.0000 0.94230  0.66684  0.06450  Biso   1.000  C
  C31      1.0000 0.94230  0.83316  0.56450  Biso   1.000  C
  C32      1.0000 0.05770  0.33316  0.93550  Biso   1.000  C
  C33      1.0000 0.02380  0.13700  0.55040  Biso   1.000  C
  C34      1.0000 0.97620  0.63700  0.94960  Biso   1.000  C
  C35      1.0000 0.97620  0.86300  0.44960  Biso   1.000  C
  C36      1.0000 0.02380  0.36300  0.05040  Biso   1.000  C
  H37      1.0000 0.05950  0.14140  0.63870  Biso   1.000  H
  H38      1.0000 0.94050  0.64140  0.86130  Biso   1.000  H
  H39      1.0000 0.94050  0.85860  0.36130  Biso   1.000  H
  H40      1.0000 0.05950  0.35860  0.13870  Biso   1.000  H
  C37      1.0000 0.93680  0.10000  0.53760  Biso   1.000  C
  C38      1.0000 0.06320  0.60000  0.96240  Biso   1.000  C
  C39      1.0000 0.06320  0.90000  0.46240  Biso   1.000  C
  C40      1.0000 0.93680  0.40000  0.03760  Biso   1.000  C
  H41      1.0000 0.91350  0.08200  0.61700  Biso   1.000  H
  H42      1.0000 0.08650  0.58200  0.88300  Biso   1.000  H
  H43      1.0000 0.08650  0.91800  0.38300  Biso   1.000  H
  H44      1.0000 0.91350  0.41800  0.11700  Biso   1.000  H
  C41      1.0000 0.88560  0.09040  0.40750  Biso   1.000  C
  C42      1.0000 0.11440  0.59040  0.09250  Biso   1.000  C
  C43      1.0000 0.11440  0.90960  0.59250  Biso   1.000  C
  C44      1.0000 0.88560  0.40960  0.90750  Biso   1.000  C
  H45      1.0000 0.82800  0.06410  0.39800  Biso   1.000  H
  H46      1.0000 0.17200  0.56410  0.10200  Biso   1.000  H
  H47      1.0000 0.17200  0.93590  0.60200  Biso   1.000  H
  H48      1.0000 0.82800  0.43590  0.89800  Biso   1.000  H
  C45      1.0000 0.91840  0.11870  0.29310  Biso   1.000  C
  C46      1.0000 0.08160  0.61870  0.20690  Biso   1.000  C
  C47      1.0000 0.08160  0.88130  0.70690  Biso   1.000  C
  C48      1.0000 0.91840  0.38130  0.79310  Biso   1.000  C
  H49      1.0000 0.88310  0.11250  0.20480  Biso   1.000  H
  H50      1.0000 0.11690  0.61250  0.29520  Biso   1.000  H
  H51      1.0000 0.11690  0.88750  0.79520  Biso   1.000  H
  H52      1.0000 0.88310  0.38750  0.70480  Biso   1.000  H
  C49      1.0000 0.00350  0.15680  0.30610  Biso   1.000  C
  C50      1.0000 0.99650  0.65680  0.19390  Biso   1.000  C
  C51      1.0000 0.99650  0.84320  0.69390  Biso   1.000  C
  C52      1.0000 0.00350  0.34320  0.80610  Biso   1.000  C
  H53      1.0000 0.02520  0.17630  0.22610  Biso   1.000  H
  H54      1.0000 0.97480  0.67630  0.27390  Biso   1.000  H
  H55      1.0000 0.97480  0.82370  0.77390  Biso   1.000  H
  H56      1.0000 0.02520  0.32370  0.72610  Biso   1.000  H
  C53      1.0000 0.46960  0.39090  0.25790  Biso   1.000  C
  C54      1.0000 0.53040  0.89090  0.24210  Biso   1.000  C
  C55      1.0000 0.53040  0.60910  0.74210  Biso   1.000  C
  C56      1.0000 0.46960  0.10910  0.75790  Biso   1.000  C
  H57      1.0000 0.45020  0.41580  0.33670  Biso   1.000  H
  H58      1.0000 0.54980  0.91580  0.16330  Biso   1.000  H
  H59      1.0000 0.54980  0.58420  0.66330  Biso   1.000  H
  H60      1.0000 0.45020  0.08420  0.83670  Biso   1.000  H
  C57      1.0000 0.53770  0.43780  0.20470  Biso   1.000  C
  C58      1.0000 0.46230  0.93780  0.29530  Biso   1.000  C
  C59      1.0000 0.46230  0.56220  0.79530  Biso   1.000  C
  C60      1.0000 0.53770  0.06220  0.70470  Biso   1.000  C
  H61      1.0000 0.56420  0.49090  0.24870  Biso   1.000  H
  H62      1.0000 0.43580  0.99090  0.25130  Biso   1.000  H
  H63      1.0000 0.43580  0.50910  0.75130  Biso   1.000  H
  H64      1.0000 0.56420  0.00910  0.74870  Biso   1.000  H
  C61      1.0000 0.56560  0.40380  0.08440  Biso   1.000  C
  C62      1.0000 0.43440  0.90380  0.41560  Biso   1.000  C
  C63      1.0000 0.43440  0.59620  0.91560  Biso   1.000  C
  C64      1.0000 0.56560  0.09620  0.58440  Biso   1.000  C
  C65      1.0000 0.52700  0.32310  0.02970  Biso   1.000  C
  C66      1.0000 0.47300  0.82310  0.47030  Biso   1.000  C
  C67      1.0000 0.47300  0.67690  0.97030  Biso   1.000  C
  C68      1.0000 0.52700  0.17690  0.52970  Biso   1.000  C
  H65      1.0000 0.54520  0.29700  0.95080  Biso   1.000  H
  H66      1.0000 0.45480  0.79700  0.54920  Biso   1.000  H
  H67      1.0000 0.45480  0.70300  0.04920  Biso   1.000  H
  H68      1.0000 0.54520  0.20300  0.45080  Biso   1.000  H
  C69      1.0000 0.46090  0.27980  0.09170  Biso   1.000  C
  C70      1.0000 0.53910  0.77980  0.40830  Biso   1.000  C
  C71      1.0000 0.53910  0.72020  0.90830  Biso   1.000  C
  C72      1.0000 0.46090  0.22020  0.59170  Biso   1.000  C
  H69      1.0000 0.43640  0.22440  0.05270  Biso   1.000  H
  H70      1.0000 0.56360  0.72440  0.44730  Biso   1.000  H
  H71      1.0000 0.56360  0.77560  0.94730  Biso   1.000  H
  H72      1.0000 0.43640  0.27560  0.55270  Biso   1.000  H
  C73      1.0000 0.63310  0.45180  0.00640  Biso   1.000  C
  C74      1.0000 0.36690  0.95180  0.49360  Biso   1.000  C
  C75      1.0000 0.36690  0.54820  0.99360  Biso   1.000  C
  C76      1.0000 0.63310  0.04820  0.50640  Biso   1.000  C
