data_image0
_cell_length_a       9.47
_cell_length_b       13.33
_cell_length_c       7.46
_cell_angle_alpha    90
_cell_angle_beta     128.25
_cell_angle_gamma    90

_symmetry_space_group_name_H-M    "P 1"
_symmetry_int_tables_number       1

loop_
  _symmetry_equiv_pos_as_xyz
  'x, y, z'

loop_
  _atom_site_label
  _atom_site_occupancy
  _atom_site_fract_x
  _atom_site_fract_y
  _atom_site_fract_z
  _atom_site_thermal_displace_type
  _atom_site_B_iso_or_equiv
  _atom_site_type_symbol
  Cu1      1.0000 0.50000  0.46810  0.50000  Biso   1.000  Cu
  Cu2      1.0000 0.00000  0.96810  0.50000  Biso   1.000  Cu
  N1       1.0000 0.38900  0.36560  0.26300  Biso   1.000  N
  N2       1.0000 0.61100  0.36560  0.73700  Biso   1.000  N
  N3       1.0000 0.88900  0.86560  0.26300  Biso   1.000  N
  N4       1.0000 0.11100  0.86560  0.73700  Biso   1.000  N
  O1       1.0000 0.11900  0.07710  0.73900  Biso   1.000  O
  O2       1.0000 0.88100  0.07710  0.26100  Biso   1.000  O
  O3       1.0000 0.61900  0.57710  0.73900  Biso   1.000  O
  O4       1.0000 0.38100  0.57710  0.26100  Biso   1.000  O
  O5       1.0000 0.25660  0.15700  0.62390  Biso   1.000  O
  O6       1.0000 0.74340  0.15700  0.37610  Biso   1.000  O
  O7       1.0000 0.75660  0.65700  0.62390  Biso   1.000  O
  O8       1.0000 0.24340  0.65700  0.37610  Biso   1.000  O
  O9       1.0000 0.23940  0.47150  0.51380  Biso   1.000  O
  O10      1.0000 0.76060  0.47150  0.48620  Biso   1.000  O
  O11      1.0000 0.73940  0.97150  0.51380  Biso   1.000  O
  O12      1.0000 0.26060  0.97150  0.48620  Biso   1.000  O
  H1       1.0000 0.23060  0.46340  0.62030  Biso   1.000  H
  H2       1.0000 0.76940  0.46340  0.37970  Biso   1.000  H
  H3       1.0000 0.73060  0.96340  0.62030  Biso   1.000  H
  H4       1.0000 0.26940  0.96340  0.37970  Biso   1.000  H
  C1       1.0000 0.30800  0.28310  0.26100  Biso   1.000  C
  C2       1.0000 0.69200  0.28310  0.73900  Biso   1.000  C
  C3       1.0000 0.80800  0.78310  0.26100  Biso   1.000  C
  C4       1.0000 0.19200  0.78310  0.73900  Biso   1.000  C
  H5       1.0000 0.29410  0.27430  0.37320  Biso   1.000  H
  H6       1.0000 0.70590  0.27430  0.62680  Biso   1.000  H
  H7       1.0000 0.79410  0.77430  0.37320  Biso   1.000  H
  H8       1.0000 0.20590  0.77430  0.62680  Biso   1.000  H
  C5       1.0000 0.24100  0.20740  0.08700  Biso   1.000  C
  C6       1.0000 0.75900  0.20740  0.91300  Biso   1.000  C
  C7       1.0000 0.74100  0.70740  0.08700  Biso   1.000  C
  C8       1.0000 0.25900  0.70740  0.91300  Biso   1.000  C
  H9       1.0000 0.19620  0.14730  0.09620  Biso   1.000  H
  H10      1.0000 0.80380  0.14730  0.90380  Biso   1.000  H
  H11      1.0000 0.69620  0.64730  0.09620  Biso   1.000  H
  H12      1.0000 0.30380  0.64730  0.90380  Biso   1.000  H
  C9       1.0000 0.24400  0.22420  0.90600  Biso   1.000  C
  C10      1.0000 0.75600  0.22420  0.09400  Biso   1.000  C
  C11      1.0000 0.74400  0.72420  0.90600  Biso   1.000  C
  C12      1.0000 0.25600  0.72420  0.09400  Biso   1.000  C
  C13      1.0000 0.32400  0.31270  0.90600  Biso   1.000  C
  C14      1.0000 0.67600  0.31270  0.09400  Biso   1.000  C
  C15      1.0000 0.82400  0.81270  0.90600  Biso   1.000  C
  C16      1.0000 0.17600  0.81270  0.09400  Biso   1.000  C
  H13      1.0000 0.33490  0.32370  0.79170  Biso   1.000  H
  H14      1.0000 0.66510  0.32370  0.20830  Biso   1.000  H
  H15      1.0000 0.83490  0.82370  0.79170  Biso   1.000  H
  H16      1.0000 0.16510  0.82370  0.20830  Biso   1.000  H
  C17      1.0000 0.38700  0.38320  0.07400  Biso   1.000  C
  C18      1.0000 0.61300  0.38320  0.92600  Biso   1.000  C
  C19      1.0000 0.88700  0.88320  0.07400  Biso   1.000  C
  C20      1.0000 0.11300  0.88320  0.92600  Biso   1.000  C
  H17      1.0000 0.42870  0.44420  0.06390  Biso   1.000  H
  H18      1.0000 0.57130  0.44420  0.93610  Biso   1.000  H
  H19      1.0000 0.92870  0.94420  0.06390  Biso   1.000  H
  H20      1.0000 0.07130  0.94420  0.93610  Biso   1.000  H
  C21      1.0000 0.19200  0.14900  0.73800  Biso   1.000  C
  C22      1.0000 0.80800  0.14900  0.26200  Biso   1.000  C
  C23      1.0000 0.69200  0.64900  0.73800  Biso   1.000  C
  C24      1.0000 0.30800  0.64900  0.26200  Biso   1.000  C
  C25      1.0000 0.06400  0.45800  0.31500  Biso   1.000  C
  C26      1.0000 0.93600  0.45800  0.68500  Biso   1.000  C
  C27      1.0000 0.56400  0.95800  0.31500  Biso   1.000  C
  C28      1.0000 0.43600  0.95800  0.68500  Biso   1.000  C
  H21      1.0000 0.06350  0.41350  0.21450  Biso   1.000  H
  H22      1.0000 0.93650  0.41350  0.78550  Biso   1.000  H
  H23      1.0000 0.56350  0.91350  0.21450  Biso   1.000  H
  H24      1.0000 0.43650  0.91350  0.78550  Biso   1.000  H
  H25      1.0000 0.01520  0.52210  0.24110  Biso   1.000  H
  H26      1.0000 0.98480  0.52210  0.75890  Biso   1.000  H
  H27      1.0000 0.51520  0.02210  0.24110  Biso   1.000  H
  H28      1.0000 0.48480  0.02210  0.75890  Biso   1.000  H
  H29      1.0000 0.99150  0.43090  0.35300  Biso   1.000  H
  H30      1.0000 0.00850  0.43090  0.64700  Biso   1.000  H
  H31      1.0000 0.49150  0.93090  0.35300  Biso   1.000  H
  H32      1.0000 0.50850  0.93090  0.64700  Biso   1.000  H
