data_image0
_cell_length_a       8.268
_cell_length_b       10.003
_cell_length_c       17.156
_cell_angle_alpha    80.524
_cell_angle_beta     81.164
_cell_angle_gamma    72.404

_symmetry_space_group_name_H-M    "P 1"
_symmetry_int_tables_number       1

loop_
  _symmetry_equiv_pos_as_xyz
  'x, y, z'

loop_
  _atom_site_label
  _atom_site_occupancy
  _atom_site_fract_x
  _atom_site_fract_y
  _atom_site_fract_z
  _atom_site_thermal_displace_type
  _atom_site_B_iso_or_equiv
  _atom_site_type_symbol
  Pt1      1.0000 0.68000  0.88839  0.27951  Biso   1.000  Pt
  Pt2      1.0000 0.32000  0.11161  0.72049  Biso   1.000  Pt
  Cu1      1.0000 0.50000  0.50000  0.50000  Biso   1.000  Cu
  Cu2      1.0000 0.50000  0.00000  0.00000  Biso   1.000  Cu
  O1       1.0000 0.40830  0.68890  0.45180  Biso   1.000  O
  O2       1.0000 0.59170  0.31110  0.54820  Biso   1.000  O
  O3       1.0000 0.30690  0.46600  0.46430  Biso   1.000  O
  O4       1.0000 0.69310  0.53400  0.53570  Biso   1.000  O
  O5       1.0000 0.37770  0.07890  0.09140  Biso   1.000  O
  O6       1.0000 0.62230  0.92110  0.90860  Biso   1.000  O
  O7       1.0000 0.33190  0.89900  0.00980  Biso   1.000  O
  O8       1.0000 0.66810  0.10100  0.99020  Biso   1.000  O
  N1       1.0000 0.82590  0.69710  0.32750  Biso   1.000  N
  N2       1.0000 0.17410  0.30290  0.67250  Biso   1.000  N
  C1       1.0000 0.96100  0.70140  0.35880  Biso   1.000  C
  C2       1.0000 0.03900  0.29860  0.64120  Biso   1.000  C
  H1       1.0000 0.98280  0.78950  0.35840  Biso   1.000  H
  H2       1.0000 0.01720  0.21050  0.64160  Biso   1.000  H
  C3       1.0000 0.07080  0.57790  0.39200  Biso   1.000  C
  C4       1.0000 0.92920  0.42210  0.60800  Biso   1.000  C
  C5       1.0000 0.03400  0.44800  0.39480  Biso   1.000  C
  C6       1.0000 0.96600  0.55200  0.60520  Biso   1.000  C
  H3       1.0000 0.10270  0.36250  0.42000  Biso   1.000  H
  H4       1.0000 0.89730  0.63750  0.58000  Biso   1.000  H
  C7       1.0000 0.89200  0.45100  0.35880  Biso   1.000  C
  C8       1.0000 0.10800  0.54900  0.64120  Biso   1.000  C
  H5       1.0000 0.86850  0.36560  0.35400  Biso   1.000  H
  H6       1.0000 0.13150  0.63440  0.64600  Biso   1.000  H
  C9       1.0000 0.78800  0.57600  0.33100  Biso   1.000  C
  C10      1.0000 0.21200  0.42400  0.66900  Biso   1.000  C
  H7       1.0000 0.68420  0.57850  0.31330  Biso   1.000  H
  H8       1.0000 0.31580  0.42150  0.68670  Biso   1.000  H
  N3       1.0000 0.82620  0.85010  0.17660  Biso   1.000  N
  N4       1.0000 0.17380  0.14990  0.82340  Biso   1.000  N
  C11      1.0000 0.95800  0.90500  0.15630  Biso   1.000  C
  C12      1.0000 0.04200  0.09500  0.84370  Biso   1.000  C
  H9       1.0000 0.97640  0.96190  0.19140  Biso   1.000  H
  H10      1.0000 0.02360  0.03810  0.80860  Biso   1.000  H
  C13      1.0000 0.06800  0.88400  0.08910  Biso   1.000  C
  C14      1.0000 0.93200  0.11600  0.91090  Biso   1.000  C
  C15      1.0000 0.04000  0.79900  0.03560  Biso   1.000  C
  C16      1.0000 0.96000  0.20100  0.96440  Biso   1.000  C
  H11      1.0000 0.11900  0.77280  0.99050  Biso   1.000  H
  H12      1.0000 0.88100  0.22720  0.00950  Biso   1.000  H
  C17      1.0000 0.89700  0.75800  0.05220  Biso   1.000  C
  C18      1.0000 0.10300  0.24200  0.94780  Biso   1.000  C
  H13      1.0000 0.86840  0.70970  0.01520  Biso   1.000  H
  H14      1.0000 0.13160  0.29030  0.98480  Biso   1.000  H
  C19      1.0000 0.78800  0.78400  0.12370  Biso   1.000  C
  C20      1.0000 0.21200  0.21600  0.87630  Biso   1.000  C
  H15      1.0000 0.68780  0.75400  0.13400  Biso   1.000  H
  H16      1.0000 0.31220  0.24600  0.86600  Biso   1.000  H
  N5       1.0000 0.26640  0.69320  0.41990  Biso   1.000  N
  N6       1.0000 0.73360  0.30680  0.58010  Biso   1.000  N
  H17      1.0000 0.20800  0.77270  0.39450  Biso   1.000  H
  H18      1.0000 0.79200  0.22730  0.60550  Biso   1.000  H
  N7       1.0000 0.23400  0.02400  0.11200  Biso   1.000  N
  N8       1.0000 0.76600  0.97600  0.88800  Biso   1.000  N
  H19      1.0000 0.16090  0.04820  0.15370  Biso   1.000  H
  H20      1.0000 0.83910  0.95180  0.84630  Biso   1.000  H
  N9       1.0000 0.54730  0.92140  0.38620  Biso   1.000  N
  N10      1.0000 0.45270  0.07860  0.61380  Biso   1.000  N
  H21      1.0000 0.50130  0.84890  0.40510  Biso   1.000  H
  H22      1.0000 0.49870  0.15110  0.59490  Biso   1.000  H
  H23      1.0000 0.46230  0.00400  0.38130  Biso   1.000  H
  H24      1.0000 0.53770  0.99600  0.61870  Biso   1.000  H
  H25      1.0000 0.61830  0.92640  0.42060  Biso   1.000  H
  H26      1.0000 0.38170  0.07360  0.57940  Biso   1.000  H
  N11      1.0000 0.54320  0.07850  0.23060  Biso   1.000  N
  N12      1.0000 0.45680  0.92150  0.76940  Biso   1.000  N
  H27      1.0000 0.48300  0.06650  0.19340  Biso   1.000  H
  H28      1.0000 0.51700  0.93350  0.80660  Biso   1.000  H
  H29      1.0000 0.61530  0.13020  0.20710  Biso   1.000  H
  H30      1.0000 0.38470  0.86980  0.79290  Biso   1.000  H
  H31      1.0000 0.46980  0.12490  0.26910  Biso   1.000  H
  H32      1.0000 0.53020  0.87510  0.73090  Biso   1.000  H
  C21      1.0000 0.21800  0.58340  0.42660  Biso   1.000  C
  C22      1.0000 0.78200  0.41660  0.57340  Biso   1.000  C
  C23      1.0000 0.21600  0.94200  0.06900  Biso   1.000  C
  C24      1.0000 0.78400  0.05800  0.93100  Biso   1.000  C
  S1       1.0000 0.10510  0.07300  0.31870  Biso   1.000  S
  S2       1.0000 0.89490  0.92700  0.68130  Biso   1.000  S
  O9       1.0000 0.22130  0.13210  0.34900  Biso   1.000  O
  O10      1.0000 0.77870  0.86790  0.65100  Biso   1.000  O
  O11      1.0000 0.94940  0.08450  0.37290  Biso   1.000  O
  O12      1.0000 0.05060  0.91550  0.62710  Biso   1.000  O
  O13      1.0000 0.18840  0.92380  0.30620  Biso   1.000  O
  O14      1.0000 0.81160  0.07620  0.69380  Biso   1.000  O
  O15      1.0000 0.06560  0.15400  0.23920  Biso   1.000  O
  O16      1.0000 0.93440  0.84600  0.76080  Biso   1.000  O
  O17      1.0000 0.80730  0.90820  0.48500  Biso   1.000  O
  O18      1.0000 0.19270  0.09180  0.51500  Biso   1.000  O
  O19      1.0000 0.39940  0.77550  0.61800  Biso   1.000  O
  O20      1.0000 0.60060  0.22450  0.38200  Biso   1.000  O
  O21      1.0000 0.57300  0.27770  0.79200  Biso   1.000  O
  O22      1.0000 0.42700  0.72230  0.20800  Biso   1.000  O
  O23      1.0000 0.23070  0.74420  0.83680  Biso   1.000  O
  O24      1.0000 0.76930  0.25580  0.16320  Biso   1.000  O
  O25      1.0000 0.57100  0.54930  0.72480  Biso   1.000  O
  O26      1.0000 0.42900  0.45070  0.27520  Biso   1.000  O
  O27      1.0000 0.33800  0.40000  0.05490  Biso   1.000  O
  O28      1.0000 0.66200  0.60000  0.94510  Biso   1.000  O
  O29      1.0000 0.42200  0.47900  0.90240  Biso   1.000  O
  O30      1.0000 0.57800  0.52100  0.09760  Biso   1.000  O
  O31      1.0000 0.82800  0.58900  0.79500  Biso   1.000  O
  O32      1.0000 0.17200  0.41100  0.20500  Biso   1.000  O
