data_image0
_cell_length_a       9.6491
_cell_length_b       9.6491
_cell_length_c       10.7075
_cell_angle_alpha    90
_cell_angle_beta     90
_cell_angle_gamma    120

_symmetry_space_group_name_H-M    "P 1"
_symmetry_int_tables_number       1

loop_
  _symmetry_equiv_pos_as_xyz
  'x, y, z'

loop_
  _atom_site_label
  _atom_site_occupancy
  _atom_site_fract_x
  _atom_site_fract_y
  _atom_site_fract_z
  _atom_site_thermal_displace_type
  _atom_site_B_iso_or_equiv
  _atom_site_type_symbol
  Cu1      1.0000 0.30864  0.19485  0.46655  Biso   1.000  Cu
  Cu2      1.0000 0.80515  0.11379  0.13322  Biso   1.000  Cu
  Cu3      1.0000 0.88621  0.69136  0.79988  Biso   1.000  Cu
  Cl1      1.0000 0.51830  0.14980  0.45610  Biso   1.000  Cl
  Cl2      1.0000 0.85020  0.36850  0.12277  Biso   1.000  Cl
  Cl3      1.0000 0.63150  0.48170  0.78943  Biso   1.000  Cl
  N1       1.0000 0.09570  0.16930  0.43690  Biso   1.000  N
  N2       1.0000 0.83070  0.92640  0.10357  Biso   1.000  N
  N3       1.0000 0.07360  0.90430  0.77023  Biso   1.000  N
  C1       1.0000 0.07050  0.20010  0.32000  Biso   1.000  C
  C2       1.0000 0.79990  0.87040  0.98667  Biso   1.000  C
  C3       1.0000 0.12960  0.92950  0.65333  Biso   1.000  C
  N4       1.0000 0.91360  0.14840  0.29660  Biso   1.000  N
  N5       1.0000 0.85160  0.76520  0.96327  Biso   1.000  N
  N6       1.0000 0.23480  0.08640  0.62993  Biso   1.000  N
  C4       1.0000 0.84060  0.08640  0.40710  Biso   1.000  C
  C5       1.0000 0.91360  0.75420  0.07377  Biso   1.000  C
  C6       1.0000 0.24580  0.15940  0.74043  Biso   1.000  C
  H1       1.0000 0.72930  0.04120  0.42250  Biso   1.000  H
  H2       1.0000 0.95880  0.68810  0.08917  Biso   1.000  H
  H3       1.0000 0.31190  0.27070  0.75583  Biso   1.000  H
  C7       1.0000 0.95100  0.09850  0.49380  Biso   1.000  C
  C8       1.0000 0.90150  0.85250  0.16047  Biso   1.000  C
  C9       1.0000 0.14750  0.04900  0.82713  Biso   1.000  C
  H4       1.0000 0.92970  0.06370  0.57820  Biso   1.000  H
  H5       1.0000 0.93630  0.86600  0.24487  Biso   1.000  H
  H6       1.0000 0.13400  0.07030  0.91153  Biso   1.000  H
  N7       1.0000 0.33960  0.28150  0.28940  Biso   1.000  N
  N8       1.0000 0.71850  0.05810  0.95607  Biso   1.000  N
  N9       1.0000 0.94190  0.66040  0.62273  Biso   1.000  N
  C10      1.0000 0.21020  0.27550  0.23530  Biso   1.000  C
  C11      1.0000 0.72450  0.93470  0.90197  Biso   1.000  C
  C12      1.0000 0.06530  0.78980  0.56863  Biso   1.000  C
  C13      1.0000 0.21200  0.33240  0.11860  Biso   1.000  C
  C14      1.0000 0.66760  0.87960  0.78527  Biso   1.000  C
  C15      1.0000 0.12040  0.78800  0.45193  Biso   1.000  C
  H7       1.0000 0.11690  0.32190  0.08320  Biso   1.000  H
  H8       1.0000 0.67810  0.79500  0.74987  Biso   1.000  H
  H9       1.0000 0.20500  0.88310  0.41653  Biso   1.000  H
  C16      1.0000 0.35570  0.40650  0.05140  Biso   1.000  C
  C17      1.0000 0.59350  0.94920  0.71807  Biso   1.000  C
  C18      1.0000 0.05080  0.64430  0.38473  Biso   1.000  C
  H10      1.0000 0.36010  0.44900  0.97060  Biso   1.000  H
  H11      1.0000 0.55100  0.91110  0.63727  Biso   1.000  H
  H12      1.0000 0.08890  0.63990  0.30393  Biso   1.000  H
  C19      1.0000 0.49240  0.41670  0.10530  Biso   1.000  C
  C20      1.0000 0.58330  0.07570  0.77197  Biso   1.000  C
  C21      1.0000 0.92430  0.50760  0.43863  Biso   1.000  C
  H13      1.0000 0.59170  0.46690  0.06220  Biso   1.000  H
  H14      1.0000 0.53310  0.12480  0.72887  Biso   1.000  H
  H15      1.0000 0.87520  0.40830  0.39553  Biso   1.000  H
  C22      1.0000 0.47950  0.35160  0.22390  Biso   1.000  C
  C23      1.0000 0.64840  0.12790  0.89057  Biso   1.000  C
  C24      1.0000 0.87210  0.52050  0.55723  Biso   1.000  C
  H16      1.0000 0.57150  0.35630  0.26030  Biso   1.000  H
  H17      1.0000 0.64370  0.21520  0.92697  Biso   1.000  H
  H18      1.0000 0.78480  0.42850  0.59363  Biso   1.000  H
  O1       1.0000 0.44760  0.44950  0.54140  Biso   1.000  O
  O2       1.0000 0.55050  0.99810  0.20807  Biso   1.000  O
  O3       1.0000 0.00190  0.55240  0.87473  Biso   1.000  O
  H19      1.0000 0.49700  0.46600  0.61600  Biso   1.000  H
  H20      1.0000 0.53400  0.03100  0.28267  Biso   1.000  H
  H21      1.0000 0.96900  0.50300  0.94933  Biso   1.000  H
  C25      1.0000 0.53000  0.59600  0.47000  Biso   1.000  C
  C26      1.0000 0.40400  0.93400  0.13667  Biso   1.000  C
  C27      1.0000 0.06600  0.47000  0.80333  Biso   1.000  C
  H22      1.0000 0.58130  0.68690  0.52770  Biso   1.000  H
  H23      1.0000 0.31310  0.89440  0.19437  Biso   1.000  H
  H24      1.0000 0.10560  0.41870  0.86103  Biso   1.000  H
  H25      1.0000 0.45230  0.60670  0.41810  Biso   1.000  H
  H26      1.0000 0.39330  0.84560  0.08477  Biso   1.000  H
  H27      1.0000 0.15440  0.54770  0.75143  Biso   1.000  H
  H28      1.0000 0.61070  0.59260  0.41730  Biso   1.000  H
  H29      1.0000 0.40740  0.01810  0.08397  Biso   1.000  H
  H30      1.0000 0.98190  0.38930  0.75063  Biso   1.000  H
  C28      1.0000 0.40200  0.54900  0.53300  Biso   1.000  C
  C29      1.0000 0.45100  0.85300  0.19967  Biso   1.000  C
  C30      1.0000 0.14700  0.59800  0.86633  Biso   1.000  C
  H31      1.0000 0.48070  0.64980  0.57100  Biso   1.000  H
  H32      1.0000 0.35020  0.83090  0.23767  Biso   1.000  H
  H33      1.0000 0.16910  0.51930  0.90433  Biso   1.000  H
  H34      1.0000 0.29860  0.50760  0.57540  Biso   1.000  H
  H35      1.0000 0.49240  0.79100  0.24207  Biso   1.000  H
  H36      1.0000 0.20900  0.70140  0.90873  Biso   1.000  H
  H37      1.0000 0.38890  0.56660  0.44420  Biso   1.000  H
  H38      1.0000 0.43340  0.82230  0.11087  Biso   1.000  H
  H39      1.0000 0.17770  0.61110  0.77753  Biso   1.000  H
