data_image0
_cell_length_a       9.6388
_cell_length_b       9.6388
_cell_length_c       10.689
_cell_angle_alpha    90
_cell_angle_beta     90
_cell_angle_gamma    120

_symmetry_space_group_name_H-M    "P 1"
_symmetry_int_tables_number       1

loop_
  _symmetry_equiv_pos_as_xyz
  'x, y, z'

loop_
  _atom_site_label
  _atom_site_occupancy
  _atom_site_fract_x
  _atom_site_fract_y
  _atom_site_fract_z
  _atom_site_thermal_displace_type
  _atom_site_B_iso_or_equiv
  _atom_site_type_symbol
  Cu1      1.0000 0.11403  0.80544  0.84064  Biso   1.000  Cu
  Cu2      1.0000 0.19456  0.30859  0.17397  Biso   1.000  Cu
  Cu3      1.0000 0.69141  0.88597  0.50731  Biso   1.000  Cu
  Cl1      1.0000 0.36870  0.85020  0.82943  Biso   1.000  Cl
  Cl2      1.0000 0.14980  0.51850  0.16276  Biso   1.000  Cl
  Cl3      1.0000 0.48150  0.63130  0.49610  Biso   1.000  Cl
  N1       1.0000 0.92750  0.83140  0.81090  Biso   1.000  N
  N2       1.0000 0.16860  0.09610  0.14423  Biso   1.000  N
  N3       1.0000 0.90390  0.07250  0.47757  Biso   1.000  N
  C1       1.0000 0.87200  0.80150  0.69320  Biso   1.000  C
  C2       1.0000 0.19850  0.07050  0.02653  Biso   1.000  C
  C3       1.0000 0.92950  0.12800  0.35987  Biso   1.000  C
  N4       1.0000 0.76540  0.85100  0.67140  Biso   1.000  N
  N5       1.0000 0.14900  0.91440  0.00473  Biso   1.000  N
  N6       1.0000 0.08560  0.23460  0.33807  Biso   1.000  N
  C4       1.0000 0.75550  0.91470  0.78190  Biso   1.000  C
  C5       1.0000 0.08530  0.84080  0.11523  Biso   1.000  C
  C6       1.0000 0.15920  0.24450  0.44857  Biso   1.000  C
  H1       1.0000 0.69050  0.96130  0.79700  Biso   1.000  H
  H2       1.0000 0.03870  0.72920  0.13033  Biso   1.000  H
  H3       1.0000 0.27080  0.30950  0.46367  Biso   1.000  H
  C7       1.0000 0.85290  0.90190  0.86810  Biso   1.000  C
  C8       1.0000 0.09810  0.95100  0.20143  Biso   1.000  C
  C9       1.0000 0.04900  0.14710  0.53477  Biso   1.000  C
  H4       1.0000 0.86610  0.93610  0.95280  Biso   1.000  H
  H5       1.0000 0.06390  0.93000  0.28613  Biso   1.000  H
  H6       1.0000 0.07000  0.13390  0.61947  Biso   1.000  H
  N7       1.0000 0.05890  0.71620  0.66300  Biso   1.000  N
  N8       1.0000 0.28380  0.34270  0.99633  Biso   1.000  N
  N9       1.0000 0.65730  0.94110  0.32967  Biso   1.000  N
  C10      1.0000 0.93470  0.72430  0.60930  Biso   1.000  C
  C11      1.0000 0.27570  0.21040  0.94263  Biso   1.000  C
  C12      1.0000 0.78960  0.06530  0.27597  Biso   1.000  C
  C13      1.0000 0.87840  0.66280  0.49100  Biso   1.000  C
  C14      1.0000 0.33720  0.21560  0.82433  Biso   1.000  C
  C15      1.0000 0.78440  0.12160  0.15767  Biso   1.000  C
  H7       1.0000 0.79120  0.66850  0.45520  Biso   1.000  H
  H8       1.0000 0.33150  0.12270  0.78853  Biso   1.000  H
  H9       1.0000 0.87730  0.20880  0.12187  Biso   1.000  H
  C16      1.0000 0.95070  0.59400  0.42740  Biso   1.000  C
  C17      1.0000 0.40600  0.35670  0.76073  Biso   1.000  C
  C18      1.0000 0.64330  0.04930  0.09407  Biso   1.000  C
  H10      1.0000 0.91540  0.55250  0.34570  Biso   1.000  H
  H11      1.0000 0.44750  0.36290  0.67903  Biso   1.000  H
  H12      1.0000 0.63710  0.08460  0.01237  Biso   1.000  H
  C19      1.0000 0.07590  0.58490  0.48220  Biso   1.000  C
  C20      1.0000 0.41510  0.49100  0.81553  Biso   1.000  C
  C21      1.0000 0.50900  0.92410  0.14887  Biso   1.000  C
  H13      1.0000 0.12660  0.53590  0.43940  Biso   1.000  H
  H14      1.0000 0.46410  0.59070  0.77273  Biso   1.000  H
  H15      1.0000 0.40930  0.87340  0.10607  Biso   1.000  H
  C22      1.0000 0.12500  0.64800  0.59950  Biso   1.000  C
  C23      1.0000 0.35200  0.47700  0.93283  Biso   1.000  C
  C24      1.0000 0.52300  0.87500  0.26617  Biso   1.000  C
  H16      1.0000 0.21150  0.64210  0.63670  Biso   1.000  H
  H17      1.0000 0.35790  0.56940  0.97003  Biso   1.000  H
  H18      1.0000 0.43060  0.78850  0.30337  Biso   1.000  H
  O1       1.0000 0.99850  0.55070  0.91490  Biso   1.000  O
  O2       1.0000 0.44930  0.44780  0.24823  Biso   1.000  O
  O3       1.0000 0.55220  0.00150  0.58157  Biso   1.000  O
  H19      1.0000 0.02200  0.53700  0.99400  Biso   1.000  H
  H20      1.0000 0.46300  0.48500  0.32733  Biso   1.000  H
  H21      1.0000 0.51500  0.97800  0.66067  Biso   1.000  H
  C25      1.0000 0.85400  0.44200  0.91110  Biso   1.000  C
  C26      1.0000 0.55800  0.41200  0.24443  Biso   1.000  C
  C27      1.0000 0.58800  0.14600  0.57777  Biso   1.000  C
  H22      1.0000 0.83200  0.38590  0.83050  Biso   1.000  H
  H23      1.0000 0.61410  0.44610  0.16383  Biso   1.000  H
  H24      1.0000 0.55390  0.16800  0.49717  Biso   1.000  H
  H25      1.0000 0.78500  0.48850  0.92080  Biso   1.000  H
  H26      1.0000 0.51150  0.29650  0.25413  Biso   1.000  H
  H27      1.0000 0.70350  0.21500  0.58747  Biso   1.000  H
  H28      1.0000 0.83270  0.36510  0.97900  Biso   1.000  H
  H29      1.0000 0.63490  0.46760  0.31233  Biso   1.000  H
  H30      1.0000 0.53240  0.16730  0.64567  Biso   1.000  H
  C28      1.0000 0.94500  0.40900  0.83900  Biso   1.000  C
  C29      1.0000 0.59100  0.53600  0.17233  Biso   1.000  C
  C30      1.0000 0.46400  0.05500  0.50567  Biso   1.000  C
  H31      1.0000 0.89900  0.31400  0.89240  Biso   1.000  H
  H32      1.0000 0.68600  0.58500  0.22573  Biso   1.000  H
  H33      1.0000 0.41500  0.10100  0.55907  Biso   1.000  H
  H34      1.0000 0.03560  0.41640  0.79200  Biso   1.000  H
  H35      1.0000 0.58360  0.61920  0.12533  Biso   1.000  H
  H36      1.0000 0.38080  0.96440  0.45867  Biso   1.000  H
  H37      1.0000 0.86290  0.40080  0.77980  Biso   1.000  H
  H38      1.0000 0.59920  0.46210  0.11313  Biso   1.000  H
  H39      1.0000 0.53790  0.13710  0.44647  Biso   1.000  H
