data_image0
_cell_length_a       15.645
_cell_length_b       15.57
_cell_length_c       3.91545
_cell_angle_alpha    90
_cell_angle_beta     94.7215
_cell_angle_gamma    90

_symmetry_space_group_name_H-M    "P 1"
_symmetry_int_tables_number       1

loop_
  _symmetry_equiv_pos_as_xyz
  'x, y, z'

loop_
  _atom_site_label
  _atom_site_occupancy
  _atom_site_fract_x
  _atom_site_fract_y
  _atom_site_fract_z
  _atom_site_thermal_displace_type
  _atom_site_B_iso_or_equiv
  _atom_site_type_symbol
  Cu1      1.0000 0.25582  0.29016  0.99207  Biso   1.000  Cu
  Cu2      1.0000 0.24418  0.79016  0.50793  Biso   1.000  Cu
  Cu3      1.0000 0.74418  0.70984  0.00793  Biso   1.000  Cu
  Cu4      1.0000 0.75582  0.20984  0.49207  Biso   1.000  Cu
  Cl1      1.0000 0.36043  0.38436  0.00907  Biso   1.000  Cl
  Cl2      1.0000 0.13957  0.88436  0.49093  Biso   1.000  Cl
  Cl3      1.0000 0.63957  0.61564  0.99093  Biso   1.000  Cl
  Cl4      1.0000 0.86043  0.11564  0.50907  Biso   1.000  Cl
  Cl5      1.0000 0.17939  0.36030  0.56540  Biso   1.000  Cl
  Cl6      1.0000 0.32061  0.86030  0.93460  Biso   1.000  Cl
  Cl7      1.0000 0.82061  0.63970  0.43460  Biso   1.000  Cl
  Cl8      1.0000 0.67939  0.13970  0.06540  Biso   1.000  Cl
  N1       1.0000 0.17781  0.19393  0.89328  Biso   1.000  N
  N2       1.0000 0.32219  0.69393  0.60672  Biso   1.000  N
  N3       1.0000 0.82219  0.80607  0.10672  Biso   1.000  N
  N4       1.0000 0.67781  0.30607  0.39328  Biso   1.000  N
  C1       1.0000 0.20477  0.12255  0.08003  Biso   1.000  C
  C2       1.0000 0.29523  0.62255  0.41997  Biso   1.000  C
  C3       1.0000 0.79523  0.87745  0.91997  Biso   1.000  C
  C4       1.0000 0.70477  0.37745  0.58003  Biso   1.000  C
  N5       1.0000 0.14433  0.05790  0.03446  Biso   1.000  N
  N6       1.0000 0.35567  0.55790  0.46554  Biso   1.000  N
  N7       1.0000 0.85567  0.94210  0.96554  Biso   1.000  N
  N8       1.0000 0.64433  0.44210  0.53446  Biso   1.000  N
  H1       1.0000 0.14777  0.00776  0.12670  Biso   1.000  H
  H2       1.0000 0.35223  0.50776  0.37330  Biso   1.000  H
  H3       1.0000 0.85223  0.99224  0.87330  Biso   1.000  H
  H4       1.0000 0.64777  0.49224  0.62670  Biso   1.000  H
  C5       1.0000 0.07666  0.08840  0.81209  Biso   1.000  C
  C6       1.0000 0.42334  0.58840  0.68791  Biso   1.000  C
  C7       1.0000 0.92334  0.91160  0.18791  Biso   1.000  C
  C8       1.0000 0.57666  0.41160  0.31209  Biso   1.000  C
  H5       1.0000 0.02722  0.05859  0.73576  Biso   1.000  H
  H6       1.0000 0.47278  0.55859  0.76424  Biso   1.000  H
  H7       1.0000 0.97278  0.94141  0.26424  Biso   1.000  H
  H8       1.0000 0.52722  0.44141  0.23576  Biso   1.000  H
  C9       1.0000 0.09793  0.17288  0.72648  Biso   1.000  C
  C10      1.0000 0.40207  0.67288  0.77352  Biso   1.000  C
  C11      1.0000 0.90207  0.82712  0.27352  Biso   1.000  C
  C12      1.0000 0.59793  0.32712  0.22648  Biso   1.000  C
  H9       1.0000 0.06433  0.20908  0.58205  Biso   1.000  H
  H10      1.0000 0.43567  0.70908  0.91795  Biso   1.000  H
  H11      1.0000 0.93567  0.79092  0.41795  Biso   1.000  H
  H12      1.0000 0.56433  0.29092  0.08205  Biso   1.000  H
  N9       1.0000 0.31691  0.19217  0.29727  Biso   1.000  N
  N10      1.0000 0.18309  0.69217  0.20273  Biso   1.000  N
  N11      1.0000 0.68309  0.80783  0.70273  Biso   1.000  N
  N12      1.0000 0.81691  0.30783  0.79727  Biso   1.000  N
  C13      1.0000 0.28477  0.10958  0.29973  Biso   1.000  C
  C14      1.0000 0.21523  0.60958  0.20027  Biso   1.000  C
  C15      1.0000 0.71523  0.89042  0.70027  Biso   1.000  C
  C16      1.0000 0.78477  0.39042  0.79973  Biso   1.000  C
  C17      1.0000 0.32435  0.04324  0.49726  Biso   1.000  C
  C18      1.0000 0.17565  0.54324  0.00274  Biso   1.000  C
  C19      1.0000 0.67565  0.95676  0.50274  Biso   1.000  C
  C20      1.0000 0.82435  0.45676  0.99726  Biso   1.000  C
  H13      1.0000 0.30075  0.98839  0.49168  Biso   1.000  H
  H14      1.0000 0.19925  0.48839  0.00832  Biso   1.000  H
  H15      1.0000 0.69925  0.01161  0.50832  Biso   1.000  H
  H16      1.0000 0.80075  0.51161  0.99168  Biso   1.000  H
  C21      1.0000 0.39963  0.06069  0.70226  Biso   1.000  C
  C22      1.0000 0.10037  0.56069  0.79774  Biso   1.000  C
  C23      1.0000 0.60037  0.93931  0.29774  Biso   1.000  C
  C24      1.0000 0.89963  0.43931  0.20226  Biso   1.000  C
  H17      1.0000 0.42754  0.01844  0.83727  Biso   1.000  H
  H18      1.0000 0.07246  0.51844  0.66273  Biso   1.000  H
  H19      1.0000 0.57246  0.98156  0.16273  Biso   1.000  H
  H20      1.0000 0.92754  0.48156  0.33727  Biso   1.000  H
  C25      1.0000 0.43105  0.14461  0.69503  Biso   1.000  C
  C26      1.0000 0.06895  0.64461  0.80497  Biso   1.000  C
  C27      1.0000 0.56895  0.85539  0.30497  Biso   1.000  C
  C28      1.0000 0.93105  0.35539  0.19503  Biso   1.000  C
  H21      1.0000 0.48123  0.15877  0.82692  Biso   1.000  H
  H22      1.0000 0.01877  0.65877  0.67308  Biso   1.000  H
  H23      1.0000 0.51877  0.84123  0.17308  Biso   1.000  H
  H24      1.0000 0.98123  0.34123  0.32692  Biso   1.000  H
  C29      1.0000 0.38775  0.20818  0.49053  Biso   1.000  C
  C30      1.0000 0.11225  0.70818  0.00947  Biso   1.000  C
  C31      1.0000 0.61225  0.79182  0.50947  Biso   1.000  C
  C32      1.0000 0.88775  0.29182  0.99053  Biso   1.000  C
  H25      1.0000 0.41021  0.26350  0.49265  Biso   1.000  H
  H26      1.0000 0.08979  0.76350  0.00735  Biso   1.000  H
  H27      1.0000 0.58979  0.73650  0.50735  Biso   1.000  H
  H28      1.0000 0.91021  0.23650  0.99265  Biso   1.000  H
