data_image0
_cell_length_a       12.02
_cell_length_b       6.883
_cell_length_c       3.712
_cell_angle_alpha    90
_cell_angle_beta     95.82
_cell_angle_gamma    90

_symmetry_space_group_name_H-M    "P 1"
_symmetry_int_tables_number       1

loop_
  _symmetry_equiv_pos_as_xyz
  'x, y, z'

loop_
  _atom_site_label
  _atom_site_occupancy
  _atom_site_fract_x
  _atom_site_fract_y
  _atom_site_fract_z
  _atom_site_thermal_displace_type
  _atom_site_B_iso_or_equiv
  _atom_site_type_symbol
  Cu1      1.0000 0.00000  0.00000  0.00000  Biso   1.000  Cu
  Cu2      1.0000 0.50000  0.50000  0.00000  Biso   1.000  Cu
  Cl1      1.0000 0.14847  0.00000  0.44030  Biso   1.000  Cl
  Cl2      1.0000 0.85153  0.00000  0.55970  Biso   1.000  Cl
  Cl3      1.0000 0.64847  0.50000  0.44030  Biso   1.000  Cl
  Cl4      1.0000 0.35153  0.50000  0.55970  Biso   1.000  Cl
  N1       1.0000 0.00000  0.70340  0.00000  Biso   1.000  N
  N2       1.0000 0.50000  0.20340  0.00000  Biso   1.000  N
  N3       1.0000 0.00000  0.29660  0.00000  Biso   1.000  N
  N4       1.0000 0.50000  0.79660  0.00000  Biso   1.000  N
  C1       1.0000 0.90850  0.60070  0.06360  Biso   1.000  C
  C2       1.0000 0.09150  0.60070  0.93640  Biso   1.000  C
  C3       1.0000 0.40850  0.10070  0.06360  Biso   1.000  C
  C4       1.0000 0.59150  0.10070  0.93640  Biso   1.000  C
  C5       1.0000 0.09150  0.39930  0.93640  Biso   1.000  C
  C6       1.0000 0.90850  0.39930  0.06360  Biso   1.000  C
  C7       1.0000 0.59150  0.89930  0.93640  Biso   1.000  C
  C8       1.0000 0.40850  0.89930  0.06360  Biso   1.000  C
  H1       1.0000 0.84380  0.66650  0.10860  Biso   1.000  H
  H2       1.0000 0.15620  0.66650  0.89140  Biso   1.000  H
  H3       1.0000 0.34380  0.16650  0.10860  Biso   1.000  H
  H4       1.0000 0.65620  0.16650  0.89140  Biso   1.000  H
  H5       1.0000 0.15620  0.33350  0.89140  Biso   1.000  H
  H6       1.0000 0.84380  0.33350  0.10860  Biso   1.000  H
  H7       1.0000 0.65620  0.83350  0.89140  Biso   1.000  H
  H8       1.0000 0.34380  0.83350  0.10860  Biso   1.000  H
