data_image0
_cell_length_a       12.392
_cell_length_b       6.859
_cell_length_c       3.907
_cell_angle_alpha    90
_cell_angle_beta     96.23
_cell_angle_gamma    90

_symmetry_space_group_name_H-M    "P 1"
_symmetry_int_tables_number       1

loop_
  _symmetry_equiv_pos_as_xyz
  'x, y, z'

loop_
  _atom_site_label
  _atom_site_occupancy
  _atom_site_fract_x
  _atom_site_fract_y
  _atom_site_fract_z
  _atom_site_thermal_displace_type
  _atom_site_B_iso_or_equiv
  _atom_site_type_symbol
  Br1      1.0000 0.15300  0.00000  0.44410  Biso   1.000  Br
  Br2      1.0000 0.65300  0.50000  0.44410  Biso   1.000  Br
  Br3      1.0000 0.84700  0.00000  0.55590  Biso   1.000  Br
  Br4      1.0000 0.34700  0.50000  0.55590  Biso   1.000  Br
  Cu1      1.0000 0.00000  0.00000  0.00000  Biso   1.000  Cu
  Cu2      1.0000 0.50000  0.50000  0.00000  Biso   1.000  Cu
  N1       1.0000 0.00000  0.70400  0.00000  Biso   1.000  N
  N2       1.0000 0.50000  0.20400  0.00000  Biso   1.000  N
  N3       1.0000 0.00000  0.29600  0.00000  Biso   1.000  N
  N4       1.0000 0.50000  0.79600  0.00000  Biso   1.000  N
  C1       1.0000 0.91020  0.60200  0.05560  Biso   1.000  C
  C2       1.0000 0.41020  0.10200  0.05560  Biso   1.000  C
  C3       1.0000 0.08980  0.60200  0.94440  Biso   1.000  C
  C4       1.0000 0.58980  0.10200  0.94440  Biso   1.000  C
  C5       1.0000 0.08980  0.39800  0.94440  Biso   1.000  C
  C6       1.0000 0.58980  0.89800  0.94440  Biso   1.000  C
  C7       1.0000 0.91020  0.39800  0.05560  Biso   1.000  C
  C8       1.0000 0.41020  0.89800  0.05560  Biso   1.000  C
