data_image0
_cell_length_a       11.9223
_cell_length_b       6.85
_cell_length_c       3.6735
_cell_angle_alpha    90
_cell_angle_beta     95.656
_cell_angle_gamma    90

_symmetry_space_group_name_H-M    "P 1"
_symmetry_int_tables_number       1

loop_
  _symmetry_equiv_pos_as_xyz
  'x, y, z'

loop_
  _atom_site_label
  _atom_site_occupancy
  _atom_site_fract_x
  _atom_site_fract_y
  _atom_site_fract_z
  _atom_site_thermal_displace_type
  _atom_site_B_iso_or_equiv
  _atom_site_type_symbol
  Cu1      1.0000 0.50000  0.00000  0.00000  Biso   1.000  Cu
  Cu2      1.0000 0.00000  0.50000  0.00000  Biso   1.000  Cu
  Cl1      1.0000 0.64915  0.00000  0.44238  Biso   1.000  Cl
  Cl2      1.0000 0.35085  0.00000  0.55762  Biso   1.000  Cl
  Cl3      1.0000 0.14915  0.50000  0.44238  Biso   1.000  Cl
  Cl4      1.0000 0.85085  0.50000  0.55762  Biso   1.000  Cl
  N1       1.0000 0.50000  0.29681  0.00000  Biso   1.000  N
  N2       1.0000 0.00000  0.79681  0.00000  Biso   1.000  N
  N3       1.0000 0.50000  0.70319  0.00000  Biso   1.000  N
  N4       1.0000 0.00000  0.20319  0.00000  Biso   1.000  N
  C1       1.0000 0.40792  0.39847  0.06630  Biso   1.000  C
  C2       1.0000 0.59208  0.39847  0.93370  Biso   1.000  C
  C3       1.0000 0.90792  0.89847  0.06630  Biso   1.000  C
  C4       1.0000 0.09208  0.89847  0.93370  Biso   1.000  C
  C5       1.0000 0.59208  0.60153  0.93370  Biso   1.000  C
  C6       1.0000 0.40792  0.60153  0.06630  Biso   1.000  C
  C7       1.0000 0.09208  0.10153  0.93370  Biso   1.000  C
  C8       1.0000 0.90792  0.10153  0.06630  Biso   1.000  C
  H1       1.0000 0.34150  0.33040  0.11420  Biso   1.000  H
  H2       1.0000 0.65850  0.33040  0.88580  Biso   1.000  H
  H3       1.0000 0.84150  0.83040  0.11420  Biso   1.000  H
  H4       1.0000 0.15850  0.83040  0.88580  Biso   1.000  H
  H5       1.0000 0.65850  0.66960  0.88580  Biso   1.000  H
  H6       1.0000 0.34150  0.66960  0.11420  Biso   1.000  H
  H7       1.0000 0.15850  0.16960  0.88580  Biso   1.000  H
  H8       1.0000 0.84150  0.16960  0.11420  Biso   1.000  H
