data_image0
_cell_length_a       12.3718
_cell_length_b       6.8551
_cell_length_c       3.8776
_cell_angle_alpha    90
_cell_angle_beta     95.945
_cell_angle_gamma    90

_symmetry_space_group_name_H-M    "P 1"
_symmetry_int_tables_number       1

loop_
  _symmetry_equiv_pos_as_xyz
  'x, y, z'

loop_
  _atom_site_label
  _atom_site_occupancy
  _atom_site_fract_x
  _atom_site_fract_y
  _atom_site_fract_z
  _atom_site_thermal_displace_type
  _atom_site_B_iso_or_equiv
  _atom_site_type_symbol
  Br1      1.0000 0.65341  0.00000  0.44622  Biso   1.000  Br
  Br2      1.0000 0.34659  0.00000  0.55378  Biso   1.000  Br
  Br3      1.0000 0.15341  0.50000  0.44622  Biso   1.000  Br
  Br4      1.0000 0.84659  0.50000  0.55378  Biso   1.000  Br
  Cu1      1.0000 0.50000  0.00000  0.00000  Biso   1.000  Cu
  Cu2      1.0000 0.00000  0.50000  0.00000  Biso   1.000  Cu
  N1       1.0000 0.50000  0.29670  0.00000  Biso   1.000  N
  N2       1.0000 0.00000  0.79670  0.00000  Biso   1.000  N
  N3       1.0000 0.50000  0.70330  0.00000  Biso   1.000  N
  N4       1.0000 0.00000  0.20330  0.00000  Biso   1.000  N
  C1       1.0000 0.41052  0.39860  0.05410  Biso   1.000  C
  C2       1.0000 0.58948  0.39860  0.94590  Biso   1.000  C
  C3       1.0000 0.91052  0.89860  0.05410  Biso   1.000  C
  C4       1.0000 0.08948  0.89860  0.94590  Biso   1.000  C
  C5       1.0000 0.58948  0.60140  0.94590  Biso   1.000  C
  C6       1.0000 0.41052  0.60140  0.05410  Biso   1.000  C
  C7       1.0000 0.08948  0.10140  0.94590  Biso   1.000  C
  C8       1.0000 0.91052  0.10140  0.05410  Biso   1.000  C
  H1       1.0000 0.34600  0.33070  0.09310  Biso   1.000  H
  H2       1.0000 0.65400  0.33070  0.90690  Biso   1.000  H
  H3       1.0000 0.84600  0.83070  0.09310  Biso   1.000  H
  H4       1.0000 0.15400  0.83070  0.90690  Biso   1.000  H
  H5       1.0000 0.65400  0.66930  0.90690  Biso   1.000  H
  H6       1.0000 0.34600  0.66930  0.09310  Biso   1.000  H
  H7       1.0000 0.15400  0.16930  0.90690  Biso   1.000  H
  H8       1.0000 0.84600  0.16930  0.09310  Biso   1.000  H
