data_image0
_cell_length_a       11.9927
_cell_length_b       6.8557
_cell_length_c       3.707
_cell_angle_alpha    90
_cell_angle_beta     95.935
_cell_angle_gamma    90

_symmetry_space_group_name_H-M    "P 1"
_symmetry_int_tables_number       1

loop_
  _symmetry_equiv_pos_as_xyz
  'x, y, z'

loop_
  _atom_site_label
  _atom_site_occupancy
  _atom_site_fract_x
  _atom_site_fract_y
  _atom_site_fract_z
  _atom_site_thermal_displace_type
  _atom_site_B_iso_or_equiv
  _atom_site_type_symbol
  Cu1      1.0000 0.50000  0.00000  0.00000  Biso   1.000  Cu
  Cu2      1.0000 0.00000  0.50000  0.00000  Biso   1.000  Cu
  Cl1      1.0000 0.64858  0.00000  0.43966  Biso   1.000  Cl
  Cl2      1.0000 0.35142  0.00000  0.56034  Biso   1.000  Cl
  Cl3      1.0000 0.14858  0.50000  0.43966  Biso   1.000  Cl
  Cl4      1.0000 0.85142  0.50000  0.56034  Biso   1.000  Cl
  N1       1.0000 0.50000  0.29721  0.00000  Biso   1.000  N
  N2       1.0000 0.00000  0.79721  0.00000  Biso   1.000  N
  N3       1.0000 0.50000  0.70279  0.00000  Biso   1.000  N
  N4       1.0000 0.00000  0.20279  0.00000  Biso   1.000  N
  C1       1.0000 0.40862  0.39876  0.06330  Biso   1.000  C
  C2       1.0000 0.59138  0.39876  0.93670  Biso   1.000  C
  C3       1.0000 0.90862  0.89876  0.06330  Biso   1.000  C
  C4       1.0000 0.09138  0.89876  0.93670  Biso   1.000  C
  C5       1.0000 0.59138  0.60124  0.93670  Biso   1.000  C
  C6       1.0000 0.40862  0.60124  0.06330  Biso   1.000  C
  C7       1.0000 0.09138  0.10124  0.93670  Biso   1.000  C
  C8       1.0000 0.90862  0.10124  0.06330  Biso   1.000  C
  H1       1.0000 0.34390  0.33230  0.10810  Biso   1.000  H
  H2       1.0000 0.65610  0.33230  0.89190  Biso   1.000  H
  H3       1.0000 0.84390  0.83230  0.10810  Biso   1.000  H
  H4       1.0000 0.15610  0.83230  0.89190  Biso   1.000  H
  H5       1.0000 0.65610  0.66770  0.89190  Biso   1.000  H
  H6       1.0000 0.34390  0.66770  0.10810  Biso   1.000  H
  H7       1.0000 0.15610  0.16770  0.89190  Biso   1.000  H
  H8       1.0000 0.84390  0.16770  0.10810  Biso   1.000  H
