data_image0
_cell_length_a       11.293
_cell_length_b       12.253
_cell_length_c       15.683
_cell_angle_alpha    92.6
_cell_angle_beta     106.39
_cell_angle_gamma    113.39

_symmetry_space_group_name_H-M    "P 1"
_symmetry_int_tables_number       1

loop_
  _symmetry_equiv_pos_as_xyz
  'x, y, z'

loop_
  _atom_site_label
  _atom_site_occupancy
  _atom_site_fract_x
  _atom_site_fract_y
  _atom_site_fract_z
  _atom_site_thermal_displace_type
  _atom_site_B_iso_or_equiv
  _atom_site_type_symbol
  C1       1.0000 0.27690  0.68660  0.46380  Biso   1.000  C
  C2       1.0000 0.72310  0.31340  0.53620  Biso   1.000  C
  H1       1.0000 0.26540  0.74440  0.50330  Biso   1.000  H
  H2       1.0000 0.73460  0.25560  0.49670  Biso   1.000  H
  H3       1.0000 0.18640  0.63310  0.41970  Biso   1.000  H
  H4       1.0000 0.81360  0.36690  0.58030  Biso   1.000  H
  C3       1.0000 0.38340  0.75950  0.41090  Biso   1.000  C
  C4       1.0000 0.61660  0.24050  0.58910  Biso   1.000  C
  H5       1.0000 0.47800  0.78920  0.45290  Biso   1.000  H
  H6       1.0000 0.52200  0.21080  0.54710  Biso   1.000  H
  H7       1.0000 0.37290  0.70220  0.35970  Biso   1.000  H
  H8       1.0000 0.62710  0.29780  0.64030  Biso   1.000  H
  C5       1.0000 0.36490  0.85470  0.37880  Biso   1.000  C
  C6       1.0000 0.63510  0.14530  0.62120  Biso   1.000  C
  H9       1.0000 0.43130  0.89340  0.34820  Biso   1.000  H
  H10      1.0000 0.56870  0.10660  0.65180  Biso   1.000  H
  H11      1.0000 0.37770  0.91320  0.42920  Biso   1.000  H
  H12      1.0000 0.62230  0.08680  0.57080  Biso   1.000  H
  H13      1.0000 0.27220  0.82610  0.33600  Biso   1.000  H
  H14      1.0000 0.72780  0.17390  0.66400  Biso   1.000  H
  C7       1.0000 0.04360  0.34530  0.86040  Biso   1.000  C
  C8       1.0000 0.95640  0.65470  0.13960  Biso   1.000  C
  H15      1.0000 0.01290  0.34810  0.79510  Biso   1.000  H
  H16      1.0000 0.98710  0.65190  0.20490  Biso   1.000  H
  H17      1.0000 0.14470  0.38460  0.88330  Biso   1.000  H
  H18      1.0000 0.85530  0.61540  0.11670  Biso   1.000  H
  C9       1.0000 0.98990  0.40710  0.90860  Biso   1.000  C
  C10      1.0000 0.01010  0.59290  0.09140  Biso   1.000  C
  H19      1.0000 0.03910  0.49520  0.91150  Biso   1.000  H
  H20      1.0000 0.96090  0.50480  0.08850  Biso   1.000  H
  H21      1.0000 0.00870  0.39160  0.97130  Biso   1.000  H
  H22      1.0000 0.99130  0.60840  0.02870  Biso   1.000  H
  C11      1.0000 0.83820  0.37020  0.86710  Biso   1.000  C
  C12      1.0000 0.16180  0.62980  0.13290  Biso   1.000  C
  H23      1.0000 0.80980  0.41610  0.90330  Biso   1.000  H
  H24      1.0000 0.19020  0.58390  0.09670  Biso   1.000  H
  H25      1.0000 0.78810  0.28360  0.86570  Biso   1.000  H
  H26      1.0000 0.21190  0.71640  0.13430  Biso   1.000  H
  H27      1.0000 0.81860  0.38690  0.80540  Biso   1.000  H
  H28      1.0000 0.18140  0.61310  0.19460  Biso   1.000  H
  C13      1.0000 0.19770  0.13950  0.43860  Biso   1.000  C
  C14      1.0000 0.80230  0.86050  0.56140  Biso   1.000  C
  C15      1.0000 0.06080  0.99720  0.31750  Biso   1.000  C
  C16      1.0000 0.93920  0.00280  0.68250  Biso   1.000  C
  C17      1.0000 0.06670  0.93390  0.39620  Biso   1.000  C
  C18      1.0000 0.93330  0.06610  0.60380  Biso   1.000  C
  C19      1.0000 0.00220  0.81280  0.40320  Biso   1.000  C
  C20      1.0000 0.99780  0.18720  0.59680  Biso   1.000  C
  H29      1.0000 0.94570  0.75210  0.35110  Biso   1.000  H
  H30      1.0000 0.05430  0.24790  0.64890  Biso   1.000  H
  C21      1.0000 0.02320  0.78470  0.48840  Biso   1.000  C
  C22      1.0000 0.97680  0.21530  0.51160  Biso   1.000  C
  H31      1.0000 0.97890  0.70320  0.49540  Biso   1.000  H
  H32      1.0000 0.02110  0.29680  0.50460  Biso   1.000  H
  C23      1.0000 0.10920  0.87420  0.56540  Biso   1.000  C
  C24      1.0000 0.89080  0.12580  0.43460  Biso   1.000  C
  H33      1.0000 0.12280  0.85270  0.62370  Biso   1.000  H
  H34      1.0000 0.87720  0.14730  0.37630  Biso   1.000  H
  C25      1.0000 0.17430  0.99390  0.55670  Biso   1.000  C
  C26      1.0000 0.82570  0.00610  0.44330  Biso   1.000  C
  H35      1.0000 0.23370  0.05460  0.60840  Biso   1.000  H
  H36      1.0000 0.76630  0.94540  0.39160  Biso   1.000  H
  C27      1.0000 0.15070  0.02240  0.47170  Biso   1.000  C
  C28      1.0000 0.84930  0.97760  0.52830  Biso   1.000  C
  C29      1.0000 0.40530  0.15150  0.27410  Biso   1.000  C
  C30      1.0000 0.59470  0.84850  0.72590  Biso   1.000  C
  C31      1.0000 0.24620  0.06360  0.13890  Biso   1.000  C
  C32      1.0000 0.75380  0.93640  0.86110  Biso   1.000  C
  C33      1.0000 0.35860  0.02580  0.14320  Biso   1.000  C
  C34      1.0000 0.64140  0.97420  0.85680  Biso   1.000  C
  C35      1.0000 0.37780  0.95620  0.08220  Biso   1.000  C
  C36      1.0000 0.62220  0.04380  0.91780  Biso   1.000  C
  H37      1.0000 0.31050  0.91790  0.02470  Biso   1.000  H
  H38      1.0000 0.68950  0.08210  0.97530  Biso   1.000  H
  C37      1.0000 0.49940  0.94370  0.10770  Biso   1.000  C
  C38      1.0000 0.50060  0.05630  0.89230  Biso   1.000  C
  H39      1.0000 0.51550  0.89610  0.06680  Biso   1.000  H
  H40      1.0000 0.48450  0.10390  0.93320  Biso   1.000  H
  C39      1.0000 0.59700  0.99870  0.19090  Biso   1.000  C
  C40      1.0000 0.40300  0.00130  0.80910  Biso   1.000  C
  H41      1.0000 0.67920  0.98860  0.20640  Biso   1.000  H
  H42      1.0000 0.32080  0.01140  0.79360  Biso   1.000  H
  C41      1.0000 0.57690  0.06860  0.25230  Biso   1.000  C
  C42      1.0000 0.42310  0.93140  0.74770  Biso   1.000  C
  H43      1.0000 0.64370  0.10650  0.31000  Biso   1.000  H
  H44      1.0000 0.35630  0.89350  0.69000  Biso   1.000  H
  C43      1.0000 0.45770  0.08090  0.22690  Biso   1.000  C
  C44      1.0000 0.54230  0.91910  0.77310  Biso   1.000  C
  C45      1.0000 0.03060  0.34710  0.31060  Biso   1.000  C
  C46      1.0000 0.96940  0.65290  0.68940  Biso   1.000  C
  C47      1.0000 0.93540  0.25300  0.16600  Biso   1.000  C
  C48      1.0000 0.06460  0.74700  0.83400  Biso   1.000  C
  C49      1.0000 0.84140  0.30470  0.18470  Biso   1.000  C
  C50      1.0000 0.15860  0.69530  0.81530  Biso   1.000  C
  C51      1.0000 0.72090  0.30150  0.13100  Biso   1.000  C
  C52      1.0000 0.27910  0.69850  0.86900  Biso   1.000  C
  H45      1.0000 0.68250  0.26430  0.06920  Biso   1.000  H
  H46      1.0000 0.31750  0.73570  0.93080  Biso   1.000  H
  C53      1.0000 0.65560  0.35610  0.17160  Biso   1.000  C
  C54      1.0000 0.34440  0.64390  0.82840  Biso   1.000  C
  H47      1.0000 0.57190  0.35620  0.13670  Biso   1.000  H
  H48      1.0000 0.42810  0.64380  0.86330  Biso   1.000  H
  C55      1.0000 0.71410  0.40950  0.26260  Biso   1.000  C
  C56      1.0000 0.28590  0.59050  0.73740  Biso   1.000  C
  H49      1.0000 0.66800  0.44340  0.28950  Biso   1.000  H
  H50      1.0000 0.33200  0.55660  0.71050  Biso   1.000  H
  C57      1.0000 0.83840  0.41410  0.31470  Biso   1.000  C
  C58      1.0000 0.16160  0.58590  0.68530  Biso   1.000  C
  H51      1.0000 0.87940  0.45310  0.37610  Biso   1.000  H
  H52      1.0000 0.12060  0.54690  0.62390  Biso   1.000  H
  C59      1.0000 0.90010  0.36060  0.27470  Biso   1.000  C
  C60      1.0000 0.09990  0.63940  0.72530  Biso   1.000  C
  C61      1.0000 0.43050  0.47870  0.30110  Biso   1.000  C
  C62      1.0000 0.56950  0.52130  0.69890  Biso   1.000  C
  C63      1.0000 0.31740  0.40240  0.15370  Biso   1.000  C
  C64      1.0000 0.68260  0.59760  0.84630  Biso   1.000  C
  C65      1.0000 0.43420  0.51940  0.15810  Biso   1.000  C
  C66      1.0000 0.56580  0.48060  0.84190  Biso   1.000  C
  C67      1.0000 0.47680  0.57570  0.09180  Biso   1.000  C
  C68      1.0000 0.52320  0.42430  0.90820  Biso   1.000  C
  H53      1.0000 0.42660  0.54380  0.02960  Biso   1.000  H
  H54      1.0000 0.57340  0.45620  0.97040  Biso   1.000  H
  C69      1.0000 0.59820  0.68300  0.12010  Biso   1.000  C
  C70      1.0000 0.40180  0.31700  0.87990  Biso   1.000  C
  H55      1.0000 0.63290  0.72370  0.07620  Biso   1.000  H
  H56      1.0000 0.36710  0.27630  0.92380  Biso   1.000  H
  C71      1.0000 0.66800  0.73010  0.21130  Biso   1.000  C
  C72      1.0000 0.33200  0.26990  0.78870  Biso   1.000  C
  H57      1.0000 0.74970  0.80270  0.22860  Biso   1.000  H
  H58      1.0000 0.25030  0.19730  0.77140  Biso   1.000  H
  C73      1.0000 0.62150  0.67370  0.27830  Biso   1.000  C
  C74      1.0000 0.37850  0.32630  0.72170  Biso   1.000  C
  H59      1.0000 0.66820  0.70720  0.34060  Biso   1.000  H
  H60      1.0000 0.33180  0.29280  0.65940  Biso   1.000  H
  C75      1.0000 0.50370  0.56620  0.24950  Biso   1.000  C
  C76      1.0000 0.49630  0.43380  0.75050  Biso   1.000  C
  N1       1.0000 0.14030  0.11810  0.34570  Biso   1.000  N
  N2       1.0000 0.85970  0.88190  0.65430  Biso   1.000  N
  N3       1.0000 0.28100  0.13850  0.21780  Biso   1.000  N
  N4       1.0000 0.71900  0.86150  0.78220  Biso   1.000  N
  N5       1.0000 0.04250  0.27880  0.24380  Biso   1.000  N
  N6       1.0000 0.95750  0.72120  0.75620  Biso   1.000  N
  N7       1.0000 0.31950  0.38430  0.24010  Biso   1.000  N
  N8       1.0000 0.68050  0.61570  0.75990  Biso   1.000  N
  O1       1.0000 0.17620  0.08420  0.91700  Biso   1.000  O
  O2       1.0000 0.82380  0.91580  0.08300  Biso   1.000  O
  O3       1.0000 0.33430  0.61750  0.51610  Biso   1.000  O
  O4       1.0000 0.66570  0.38250  0.48390  Biso   1.000  O
  H61      1.0000 0.40380  0.68320  0.55380  Biso   1.000  H
  H62      1.0000 0.59620  0.31680  0.44620  Biso   1.000  H
  O5       1.0000 0.99550  0.22600  0.87380  Biso   1.000  O
  O6       1.0000 0.00450  0.77400  0.12620  Biso   1.000  O
  H63      1.0000 0.01830  0.17690  0.82080  Biso   1.000  H
  H64      1.0000 0.98170  0.82310  0.17920  Biso   1.000  H
  O7       1.0000 0.27450  0.23880  0.48582  Biso   1.000  O
  O8       1.0000 0.72550  0.76120  0.51418  Biso   1.000  O
  O9       1.0000 0.99290  0.94900  0.23710  Biso   1.000  O
  O10      1.0000 0.00710  0.05100  0.76290  Biso   1.000  O
  O11      1.0000 0.46050  0.21040  0.35070  Biso   1.000  O
  O12      1.0000 0.53950  0.78960  0.64930  Biso   1.000  O
  O13      1.0000 0.14080  0.03280  0.07523  Biso   1.000  O
  O14      1.0000 0.85920  0.96720  0.92477  Biso   1.000  O
  O15      1.0000 0.11430  0.38950  0.38608  Biso   1.000  O
  O16      1.0000 0.88570  0.61050  0.61392  Biso   1.000  O
  O17      1.0000 0.91780  0.19640  0.09310  Biso   1.000  O
  O18      1.0000 0.08220  0.80360  0.90690  Biso   1.000  O
  O19      1.0000 0.46370  0.48810  0.38374  Biso   1.000  O
  O20      1.0000 0.53630  0.51190  0.61626  Biso   1.000  O
  O21      1.0000 0.23150  0.33220  0.08440  Biso   1.000  O
  O22      1.0000 0.76850  0.66780  0.91560  Biso   1.000  O
  Cu1      1.0000 0.19226  0.22939  0.26126  Biso   1.000  Cu
  Cu2      1.0000 0.80774  0.77061  0.73874  Biso   1.000  Cu
  Na1      1.0000 0.33379  0.43722  0.48047  Biso   1.000  Na
  Na2      1.0000 0.66621  0.56278  0.51953  Biso   1.000  Na
  Na3      1.0000 0.03872  0.15653  0.00755  Biso   1.000  Na
  Na4      1.0000 0.96128  0.84347  0.99245  Biso   1.000  Na
