data_image0
_cell_length_a       10.6956
_cell_length_b       7.7949
_cell_length_c       23.3892
_cell_angle_alpha    90
_cell_angle_beta     99.064
_cell_angle_gamma    90

_symmetry_space_group_name_H-M    "P 1"
_symmetry_int_tables_number       1

loop_
  _symmetry_equiv_pos_as_xyz
  'x, y, z'

loop_
  _atom_site_label
  _atom_site_occupancy
  _atom_site_fract_x
  _atom_site_fract_y
  _atom_site_fract_z
  _atom_site_thermal_displace_type
  _atom_site_B_iso_or_equiv
  _atom_site_type_symbol
  Cl1      1.0000 0.73191  0.14400  0.39041  Biso   1.000  Cl
  Cl2      1.0000 0.76809  0.64400  0.10959  Biso   1.000  Cl
  Cl3      1.0000 0.26809  0.85600  0.60959  Biso   1.000  Cl
  Cl4      1.0000 0.23191  0.35600  0.89041  Biso   1.000  Cl
  O1       1.0000 0.76520  0.25630  0.35340  Biso   1.000  O
  O2       1.0000 0.73480  0.75630  0.14660  Biso   1.000  O
  O3       1.0000 0.23480  0.74370  0.64660  Biso   1.000  O
  O4       1.0000 0.26520  0.24370  0.85340  Biso   1.000  O
  O5       1.0000 0.83080  0.05260  0.41840  Biso   1.000  O
  O6       1.0000 0.66920  0.55260  0.08160  Biso   1.000  O
  O7       1.0000 0.16920  0.94740  0.58160  Biso   1.000  O
  O8       1.0000 0.33080  0.44740  0.91840  Biso   1.000  O
  O9       1.0000 0.66640  0.00620  0.36080  Biso   1.000  O
  O10      1.0000 0.83360  0.50620  0.13920  Biso   1.000  O
  O11      1.0000 0.33360  0.99380  0.63920  Biso   1.000  O
  O12      1.0000 0.16640  0.49380  0.86080  Biso   1.000  O
  O13      1.0000 0.65870  0.21540  0.43057  Biso   1.000  O
  O14      1.0000 0.84130  0.71540  0.06943  Biso   1.000  O
  O15      1.0000 0.34130  0.78460  0.56943  Biso   1.000  O
  O16      1.0000 0.15870  0.28460  0.93057  Biso   1.000  O
  Cu1      1.0000 0.20063  0.12196  0.25086  Biso   1.000  Cu
  Cu2      1.0000 0.29937  0.62196  0.24914  Biso   1.000  Cu
  Cu3      1.0000 0.79937  0.87804  0.74914  Biso   1.000  Cu
  Cu4      1.0000 0.70063  0.37804  0.75086  Biso   1.000  Cu
  N1       1.0000 0.23970  0.09670  0.33623  Biso   1.000  N
  N2       1.0000 0.26030  0.59670  0.16377  Biso   1.000  N
  N3       1.0000 0.76030  0.90330  0.66377  Biso   1.000  N
  N4       1.0000 0.73970  0.40330  0.83623  Biso   1.000  N
  N5       1.0000 0.11730  0.12570  0.16818  Biso   1.000  N
  N6       1.0000 0.38270  0.62570  0.33182  Biso   1.000  N
  N7       1.0000 0.88270  0.87430  0.83182  Biso   1.000  N
  N8       1.0000 0.61730  0.37430  0.66818  Biso   1.000  N
  N9       1.0000 0.03660  0.01800  0.26197  Biso   1.000  N
  N10      1.0000 0.46340  0.51800  0.23803  Biso   1.000  N
  N11      1.0000 0.96340  0.98200  0.73803  Biso   1.000  N
  N12      1.0000 0.53660  0.48200  0.76197  Biso   1.000  N
  C1       1.0000 0.01470  0.04920  0.32180  Biso   1.000  C
  C2       1.0000 0.48530  0.54920  0.17820  Biso   1.000  C
  C3       1.0000 0.98530  0.95080  0.67820  Biso   1.000  C
  C4       1.0000 0.51470  0.45080  0.82180  Biso   1.000  C
  H1       1.0000 0.96380  0.95580  0.33420  Biso   1.000  H
  H2       1.0000 0.53620  0.45580  0.16580  Biso   1.000  H
  H3       1.0000 0.03620  0.04420  0.66580  Biso   1.000  H
  H4       1.0000 0.46380  0.54420  0.83420  Biso   1.000  H
  H5       1.0000 0.96770  0.15660  0.32340  Biso   1.000  H
  H6       1.0000 0.53230  0.65660  0.17660  Biso   1.000  H
  H7       1.0000 0.03230  0.84340  0.67660  Biso   1.000  H
  H8       1.0000 0.46770  0.34340  0.82340  Biso   1.000  H
  C5       1.0000 0.13860  0.06040  0.36183  Biso   1.000  C
  C6       1.0000 0.36140  0.56040  0.13817  Biso   1.000  C
  C7       1.0000 0.86140  0.93960  0.63817  Biso   1.000  C
  C8       1.0000 0.63860  0.43960  0.86183  Biso   1.000  C
  C9       1.0000 0.14990  0.04170  0.42100  Biso   1.000  C
  C10      1.0000 0.35010  0.54170  0.07900  Biso   1.000  C
  C11      1.0000 0.85010  0.95830  0.57900  Biso   1.000  C
  C12      1.0000 0.64990  0.45830  0.92100  Biso   1.000  C
  H9       1.0000 0.07850  0.01400  0.43800  Biso   1.000  H
  H10      1.0000 0.42150  0.51400  0.06200  Biso   1.000  H
  H11      1.0000 0.92150  0.98600  0.56200  Biso   1.000  H
  H12      1.0000 0.57850  0.48600  0.93800  Biso   1.000  H
  C13      1.0000 0.26550  0.06380  0.45510  Biso   1.000  C
  C14      1.0000 0.23450  0.56380  0.04490  Biso   1.000  C
  C15      1.0000 0.73450  0.93620  0.54490  Biso   1.000  C
  C16      1.0000 0.76550  0.43620  0.95510  Biso   1.000  C
  H13      1.0000 0.27430  0.05380  0.49560  Biso   1.000  H
  H14      1.0000 0.22570  0.55380  0.00440  Biso   1.000  H
  H15      1.0000 0.72570  0.94620  0.50440  Biso   1.000  H
  H16      1.0000 0.77430  0.44620  0.99560  Biso   1.000  H
  C17      1.0000 0.36820  0.10080  0.42850  Biso   1.000  C
  C18      1.0000 0.13180  0.60080  0.07150  Biso   1.000  C
  C19      1.0000 0.63180  0.89920  0.57150  Biso   1.000  C
  C20      1.0000 0.86820  0.39920  0.92850  Biso   1.000  C
  H17      1.0000 0.44870  0.11490  0.45080  Biso   1.000  H
  H18      1.0000 0.05130  0.61490  0.04920  Biso   1.000  H
  H19      1.0000 0.55130  0.88510  0.54920  Biso   1.000  H
  H20      1.0000 0.94870  0.38510  0.95080  Biso   1.000  H
  C21      1.0000 0.35310  0.11700  0.36943  Biso   1.000  C
  C22      1.0000 0.14690  0.61700  0.13057  Biso   1.000  C
  C23      1.0000 0.64690  0.88300  0.63057  Biso   1.000  C
  C24      1.0000 0.85310  0.38300  0.86943  Biso   1.000  C
  H21      1.0000 0.42390  0.14300  0.35180  Biso   1.000  H
  H22      1.0000 0.07610  0.64300  0.14820  Biso   1.000  H
  H23      1.0000 0.57610  0.85700  0.64820  Biso   1.000  H
  H24      1.0000 0.92390  0.35700  0.85180  Biso   1.000  H
  C25      1.0000 0.93690  0.07680  0.21570  Biso   1.000  C
  C26      1.0000 0.56310  0.57680  0.28430  Biso   1.000  C
  C27      1.0000 0.06310  0.92320  0.78430  Biso   1.000  C
  C28      1.0000 0.43690  0.42320  0.71570  Biso   1.000  C
  H25      1.0000 0.90110  0.18500  0.22700  Biso   1.000  H
  H26      1.0000 0.59890  0.68500  0.27300  Biso   1.000  H
  H27      1.0000 0.09890  0.81500  0.77300  Biso   1.000  H
  H28      1.0000 0.40110  0.31500  0.72700  Biso   1.000  H
  H29      1.0000 0.86880  0.99150  0.20910  Biso   1.000  H
  H30      1.0000 0.63120  0.49150  0.29090  Biso   1.000  H
  H31      1.0000 0.13120  0.00850  0.79090  Biso   1.000  H
  H32      1.0000 0.36880  0.50850  0.70910  Biso   1.000  H
  C29      1.0000 0.99220  0.10170  0.16190  Biso   1.000  C
  C30      1.0000 0.50780  0.60170  0.33810  Biso   1.000  C
  C31      1.0000 0.00780  0.89830  0.83810  Biso   1.000  C
  C32      1.0000 0.49220  0.39830  0.66190  Biso   1.000  C
  C33      1.0000 0.91870  0.10370  0.10800  Biso   1.000  C
  C34      1.0000 0.58130  0.60370  0.39200  Biso   1.000  C
  C35      1.0000 0.08130  0.89630  0.89200  Biso   1.000  C
  C36      1.0000 0.41870  0.39630  0.60800  Biso   1.000  C
  H33      1.0000 0.83070  0.08710  0.10410  Biso   1.000  H
  H34      1.0000 0.66930  0.58710  0.39590  Biso   1.000  H
  H35      1.0000 0.16930  0.91290  0.89590  Biso   1.000  H
  H36      1.0000 0.33070  0.41290  0.60410  Biso   1.000  H
  C37      1.0000 0.97560  0.13030  0.06020  Biso   1.000  C
  C38      1.0000 0.52440  0.63030  0.43980  Biso   1.000  C
  C39      1.0000 0.02440  0.86970  0.93980  Biso   1.000  C
  C40      1.0000 0.47560  0.36970  0.56020  Biso   1.000  C
  H37      1.0000 0.92670  0.13120  0.02310  Biso   1.000  H
  H38      1.0000 0.57330  0.63120  0.47690  Biso   1.000  H
  H39      1.0000 0.07330  0.86880  0.97690  Biso   1.000  H
  H40      1.0000 0.42670  0.36880  0.52310  Biso   1.000  H
  C41      1.0000 0.10320  0.15530  0.06640  Biso   1.000  C
  C42      1.0000 0.39680  0.65530  0.43360  Biso   1.000  C
  C43      1.0000 0.89680  0.84470  0.93360  Biso   1.000  C
  C44      1.0000 0.60320  0.34470  0.56640  Biso   1.000  C
  H41      1.0000 0.14300  0.17430  0.03390  Biso   1.000  H
  H42      1.0000 0.35700  0.67430  0.46610  Biso   1.000  H
  H43      1.0000 0.85700  0.82570  0.96610  Biso   1.000  H
  H44      1.0000 0.64300  0.32570  0.53390  Biso   1.000  H
  C45      1.0000 0.17270  0.15210  0.12147  Biso   1.000  C
  C46      1.0000 0.32730  0.65210  0.37853  Biso   1.000  C
  C47      1.0000 0.82730  0.84790  0.87853  Biso   1.000  C
  C48      1.0000 0.67270  0.34790  0.62147  Biso   1.000  C
  H45      1.0000 0.26070  0.16900  0.12620  Biso   1.000  H
  H46      1.0000 0.23930  0.66900  0.37380  Biso   1.000  H
  H47      1.0000 0.73930  0.83100  0.87380  Biso   1.000  H
  H48      1.0000 0.76070  0.33100  0.62620  Biso   1.000  H
  C49      1.0000 0.43170  0.04020  0.22873  Biso   1.000  C
  C50      1.0000 0.06830  0.54020  0.27127  Biso   1.000  C
  C51      1.0000 0.56830  0.95980  0.77127  Biso   1.000  C
  C52      1.0000 0.93170  0.45980  0.72873  Biso   1.000  C
  C53      1.0000 0.56140  0.06150  0.21340  Biso   1.000  C
  C54      1.0000 0.93860  0.56150  0.28660  Biso   1.000  C
  C55      1.0000 0.43860  0.93850  0.78660  Biso   1.000  C
  C56      1.0000 0.06140  0.43850  0.71340  Biso   1.000  C
  H49      1.0000 0.61710  0.11070  0.24600  Biso   1.000  H
  H50      1.0000 0.88290  0.61070  0.25400  Biso   1.000  H
  H51      1.0000 0.38290  0.88930  0.75400  Biso   1.000  H
  H52      1.0000 0.11710  0.38930  0.74600  Biso   1.000  H
  H53      1.0000 0.55750  0.13700  0.18020  Biso   1.000  H
  H54      1.0000 0.94250  0.63700  0.31980  Biso   1.000  H
  H55      1.0000 0.44250  0.86300  0.81980  Biso   1.000  H
  H56      1.0000 0.05750  0.36300  0.68020  Biso   1.000  H
  H57      1.0000 0.59390  0.95040  0.20410  Biso   1.000  H
  H58      1.0000 0.90610  0.45040  0.29590  Biso   1.000  H
  H59      1.0000 0.40610  0.04960  0.79590  Biso   1.000  H
  H60      1.0000 0.09390  0.54960  0.70410  Biso   1.000  H
  O17      1.0000 0.37080  0.17900  0.23692  Biso   1.000  O
  O18      1.0000 0.12920  0.67900  0.26308  Biso   1.000  O
  O19      1.0000 0.62920  0.82100  0.76308  Biso   1.000  O
  O20      1.0000 0.87080  0.32100  0.73692  Biso   1.000  O
  O21      1.0000 0.38450  0.89730  0.23243  Biso   1.000  O
  O22      1.0000 0.11550  0.39730  0.26757  Biso   1.000  O
  O23      1.0000 0.61550  0.10270  0.76757  Biso   1.000  O
  O24      1.0000 0.88450  0.60270  0.73243  Biso   1.000  O
  O25      1.0000 0.45270  0.11520  0.06640  Biso   1.000  O
  O26      1.0000 0.04730  0.61520  0.43360  Biso   1.000  O
  O27      1.0000 0.54730  0.88480  0.93360  Biso   1.000  O
  O28      1.0000 0.95270  0.38480  0.56640  Biso   1.000  O
  C57      1.0000 0.53910  0.16300  0.03450  Biso   1.000  C
  C58      1.0000 0.96090  0.66300  0.46550  Biso   1.000  C
  C59      1.0000 0.46090  0.83700  0.96550  Biso   1.000  C
  C60      1.0000 0.03910  0.33700  0.53450  Biso   1.000  C
  H61      1.0000 0.61790  0.18960  0.06050  Biso   1.000  H
  H62      1.0000 0.88210  0.68960  0.43950  Biso   1.000  H
  H63      1.0000 0.38210  0.81040  0.93950  Biso   1.000  H
  H64      1.0000 0.11790  0.31040  0.56050  Biso   1.000  H
  H65      1.0000 0.51010  0.26950  0.01410  Biso   1.000  H
  H66      1.0000 0.98990  0.76950  0.48590  Biso   1.000  H
  H67      1.0000 0.48990  0.73050  0.98590  Biso   1.000  H
  H68      1.0000 0.01010  0.23050  0.51410  Biso   1.000  H
  C61      1.0000 0.56600  0.04200  0.99300  Biso   1.000  C
  C62      1.0000 0.93400  0.54200  0.50700  Biso   1.000  C
  C63      1.0000 0.43400  0.95800  0.00700  Biso   1.000  C
  C64      1.0000 0.06600  0.45800  0.49300  Biso   1.000  C
  H69      1.0000 0.64970  0.98910  0.00430  Biso   1.000  H
  H70      1.0000 0.85030  0.48910  0.49570  Biso   1.000  H
  H71      1.0000 0.35030  0.01090  0.99570  Biso   1.000  H
  H72      1.0000 0.14970  0.51090  0.50430  Biso   1.000  H
  H73      1.0000 0.56120  0.09270  0.95440  Biso   1.000  H
  H74      1.0000 0.93880  0.59270  0.54560  Biso   1.000  H
  H75      1.0000 0.43880  0.90730  0.04560  Biso   1.000  H
  H76      1.0000 0.06120  0.40730  0.45440  Biso   1.000  H
  C65      1.0000 0.45700  0.91000  0.99550  Biso   1.000  C
  C66      1.0000 0.04300  0.41000  0.50450  Biso   1.000  C
  C67      1.0000 0.54300  0.09000  0.00450  Biso   1.000  C
  C68      1.0000 0.95700  0.59000  0.49550  Biso   1.000  C
  H77      1.0000 0.38660  0.92630  0.96370  Biso   1.000  H
  H78      1.0000 0.11340  0.42630  0.53630  Biso   1.000  H
  H79      1.0000 0.61340  0.07370  0.03630  Biso   1.000  H
  H80      1.0000 0.88660  0.57370  0.46370  Biso   1.000  H
  H81      1.0000 0.48710  0.79090  0.99530  Biso   1.000  H
  H82      1.0000 0.01290  0.29090  0.50470  Biso   1.000  H
  H83      1.0000 0.51290  0.20910  0.00470  Biso   1.000  H
  H84      1.0000 0.98710  0.70910  0.49530  Biso   1.000  H
  C69      1.0000 0.42300  0.95500  0.05000  Biso   1.000  C
  C70      1.0000 0.07700  0.45500  0.45000  Biso   1.000  C
  C71      1.0000 0.57700  0.04500  0.95000  Biso   1.000  C
  C72      1.0000 0.92300  0.54500  0.55000  Biso   1.000  C
  H85      1.0000 0.33130  0.93980  0.04790  Biso   1.000  H
  H86      1.0000 0.16870  0.43980  0.45210  Biso   1.000  H
  H87      1.0000 0.66870  0.06020  0.95210  Biso   1.000  H
  H88      1.0000 0.83130  0.56020  0.54790  Biso   1.000  H
  H89      1.0000 0.46510  0.87630  0.07950  Biso   1.000  H
  H90      1.0000 0.03490  0.37630  0.42050  Biso   1.000  H
  H91      1.0000 0.53490  0.12370  0.92050  Biso   1.000  H
  H92      1.0000 0.96510  0.62370  0.57950  Biso   1.000  H
