data_image0
_cell_length_a       9.839
_cell_length_b       12.211
_cell_length_c       11.029
_cell_angle_alpha    90
_cell_angle_beta     96.441
_cell_angle_gamma    90

_symmetry_space_group_name_H-M    "P 1"
_symmetry_int_tables_number       1

loop_
  _symmetry_equiv_pos_as_xyz
  'x, y, z'

loop_
  _atom_site_label
  _atom_site_occupancy
  _atom_site_fract_x
  _atom_site_fract_y
  _atom_site_fract_z
  _atom_site_thermal_displace_type
  _atom_site_B_iso_or_equiv
  _atom_site_type_symbol
  Cu1      1.0000 0.64587  0.38253  0.38063  Biso   1.000  Cu
  Cu2      1.0000 0.85413  0.88253  0.11937  Biso   1.000  Cu
  Cu3      1.0000 0.35413  0.61747  0.61937  Biso   1.000  Cu
  Cu4      1.0000 0.14587  0.11747  0.88063  Biso   1.000  Cu
  O1       1.0000 0.70494  0.44202  0.53912  Biso   1.000  O
  O2       1.0000 0.79506  0.94202  0.96088  Biso   1.000  O
  O3       1.0000 0.29506  0.55798  0.46088  Biso   1.000  O
  O4       1.0000 0.20494  0.05798  0.03912  Biso   1.000  O
  O5       1.0000 0.57308  0.32006  0.22749  Biso   1.000  O
  O6       1.0000 0.92692  0.82006  0.27251  Biso   1.000  O
  O7       1.0000 0.42692  0.67994  0.77251  Biso   1.000  O
  O8       1.0000 0.07308  0.17994  0.72749  Biso   1.000  O
  O9       1.0000 0.70563  0.24267  0.44650  Biso   1.000  O
  O10      1.0000 0.79437  0.74267  0.05350  Biso   1.000  O
  O11      1.0000 0.29437  0.75733  0.55350  Biso   1.000  O
  O12      1.0000 0.20563  0.25733  0.94650  Biso   1.000  O
  O13      1.0000 0.56214  0.51896  0.32380  Biso   1.000  O
  O14      1.0000 0.93786  0.01896  0.17620  Biso   1.000  O
  O15      1.0000 0.43786  0.48104  0.67620  Biso   1.000  O
  O16      1.0000 0.06214  0.98104  0.82380  Biso   1.000  O
  N1       1.0000 0.63893  0.93863  0.18763  Biso   1.000  N
  N2       1.0000 0.86107  0.43863  0.31237  Biso   1.000  N
  N3       1.0000 0.36107  0.06137  0.81237  Biso   1.000  N
  N4       1.0000 0.13893  0.56137  0.68763  Biso   1.000  N
  N5       1.0000 0.65410  0.82191  0.58708  Biso   1.000  N
  N6       1.0000 0.84590  0.32191  0.91292  Biso   1.000  N
  N7       1.0000 0.34590  0.17809  0.41292  Biso   1.000  N
  N8       1.0000 0.15410  0.67809  0.08708  Biso   1.000  N
  C1       1.0000 0.57780  0.22114  0.19486  Biso   1.000  C
  C2       1.0000 0.92220  0.72114  0.30514  Biso   1.000  C
  C3       1.0000 0.42220  0.77886  0.80514  Biso   1.000  C
  C4       1.0000 0.07780  0.27886  0.69486  Biso   1.000  C
  C5       1.0000 0.70040  0.54072  0.57277  Biso   1.000  C
  C6       1.0000 0.79960  0.04072  0.92723  Biso   1.000  C
  C7       1.0000 0.29960  0.45928  0.42723  Biso   1.000  C
  C8       1.0000 0.20040  0.95928  0.07277  Biso   1.000  C
  C9       1.0000 0.70160  0.15179  0.39173  Biso   1.000  C
  C10      1.0000 0.79840  0.65179  0.10827  Biso   1.000  C
  C11      1.0000 0.29840  0.84821  0.60827  Biso   1.000  C
  C12      1.0000 0.20160  0.34821  0.89173  Biso   1.000  C
  C13      1.0000 0.57040  0.61019  0.37805  Biso   1.000  C
  C14      1.0000 0.92960  0.11019  0.12195  Biso   1.000  C
  C15      1.0000 0.42960  0.38981  0.62195  Biso   1.000  C
  C16      1.0000 0.07040  0.88981  0.87805  Biso   1.000  C
  C17      1.0000 0.64010  0.62616  0.49741  Biso   1.000  C
  C18      1.0000 0.85990  0.12616  0.00259  Biso   1.000  C
  C19      1.0000 0.35990  0.37384  0.50259  Biso   1.000  C
  C20      1.0000 0.14010  0.87384  0.99741  Biso   1.000  C
  C21      1.0000 0.63870  0.13597  0.27027  Biso   1.000  C
  C22      1.0000 0.86130  0.63597  0.22973  Biso   1.000  C
  C23      1.0000 0.36130  0.86403  0.72973  Biso   1.000  C
  C24      1.0000 0.13870  0.36403  0.77027  Biso   1.000  C
  C25      1.0000 0.63670  0.02722  0.22337  Biso   1.000  C
  C26      1.0000 0.86330  0.52722  0.27663  Biso   1.000  C
  C27      1.0000 0.36330  0.97278  0.77663  Biso   1.000  C
  C28      1.0000 0.13670  0.47278  0.72337  Biso   1.000  C
  C29      1.0000 0.64670  0.73546  0.54676  Biso   1.000  C
  C30      1.0000 0.85330  0.23546  0.95324  Biso   1.000  C
  C31      1.0000 0.35330  0.26454  0.45324  Biso   1.000  C
  C32      1.0000 0.14670  0.76454  0.04676  Biso   1.000  C
  C33      1.0000 0.76350  0.56591  0.69968  Biso   1.000  C
  C34      1.0000 0.73650  0.06591  0.80032  Biso   1.000  C
  C35      1.0000 0.23650  0.43409  0.30032  Biso   1.000  C
  C36      1.0000 0.26350  0.93409  0.19968  Biso   1.000  C
  H1       1.0000 0.78110  0.49740  0.74510  Biso   1.000  H
  H2       1.0000 0.71890  0.99740  0.75490  Biso   1.000  H
  H3       1.0000 0.21890  0.50260  0.25490  Biso   1.000  H
  H4       1.0000 0.28110  0.00260  0.24510  Biso   1.000  H
  H5       1.0000 0.70090  0.61160  0.74080  Biso   1.000  H
  H6       1.0000 0.79910  0.11160  0.75920  Biso   1.000  H
  H7       1.0000 0.29910  0.38840  0.25920  Biso   1.000  H
  H8       1.0000 0.20090  0.88840  0.24080  Biso   1.000  H
  H9       1.0000 0.84990  0.60510  0.69610  Biso   1.000  H
  H10      1.0000 0.65010  0.10510  0.80390  Biso   1.000  H
  H11      1.0000 0.15010  0.39490  0.30390  Biso   1.000  H
  H12      1.0000 0.34990  0.89490  0.19610  Biso   1.000  H
  C37      1.0000 0.51300  0.19516  0.06830  Biso   1.000  C
  C38      1.0000 0.98700  0.69516  0.43170  Biso   1.000  C
  C39      1.0000 0.48700  0.80484  0.93170  Biso   1.000  C
  C40      1.0000 0.01300  0.30484  0.56830  Biso   1.000  C
  H13      1.0000 0.41430  0.18510  0.06930  Biso   1.000  H
  H14      1.0000 0.08570  0.68510  0.43070  Biso   1.000  H
  H15      1.0000 0.58570  0.81490  0.93070  Biso   1.000  H
  H16      1.0000 0.91430  0.31490  0.56930  Biso   1.000  H
  H17      1.0000 0.55300  0.12780  0.03960  Biso   1.000  H
  H18      1.0000 0.94700  0.62780  0.46040  Biso   1.000  H
  H19      1.0000 0.44700  0.87220  0.96040  Biso   1.000  H
  H20      1.0000 0.05300  0.37220  0.53960  Biso   1.000  H
  H21      1.0000 0.52930  0.25570  0.01340  Biso   1.000  H
  H22      1.0000 0.97070  0.75570  0.48660  Biso   1.000  H
  H23      1.0000 0.47070  0.74430  0.98660  Biso   1.000  H
  H24      1.0000 0.02930  0.24430  0.51340  Biso   1.000  H
  C41      1.0000 0.50080  0.70512  0.31077  Biso   1.000  C
  C42      1.0000 0.99920  0.20512  0.18923  Biso   1.000  C
  C43      1.0000 0.49920  0.29488  0.68923  Biso   1.000  C
  C44      1.0000 0.00080  0.79488  0.81077  Biso   1.000  C
  H25      1.0000 0.45380  0.67970  0.23280  Biso   1.000  H
  H26      1.0000 0.04620  0.17970  0.26720  Biso   1.000  H
  H27      1.0000 0.54620  0.32030  0.76720  Biso   1.000  H
  H28      1.0000 0.95380  0.82030  0.73280  Biso   1.000  H
  H29      1.0000 0.56910  0.76040  0.29550  Biso   1.000  H
  H30      1.0000 0.93090  0.26040  0.20450  Biso   1.000  H
  H31      1.0000 0.43090  0.23960  0.70450  Biso   1.000  H
  H32      1.0000 0.06910  0.73960  0.79550  Biso   1.000  H
  H33      1.0000 0.43400  0.73730  0.36000  Biso   1.000  H
  H34      1.0000 0.06600  0.23730  0.14000  Biso   1.000  H
  H35      1.0000 0.56600  0.26270  0.64000  Biso   1.000  H
  H36      1.0000 0.93400  0.76270  0.86000  Biso   1.000  H
  C45      1.0000 0.76830  0.05592  0.46057  Biso   1.000  C
  C46      1.0000 0.73170  0.55592  0.03943  Biso   1.000  C
  C47      1.0000 0.23170  0.94408  0.53943  Biso   1.000  C
  C48      1.0000 0.26830  0.44408  0.96057  Biso   1.000  C
  H37      1.0000 0.82160  0.08210  0.53540  Biso   1.000  H
  H38      1.0000 0.67840  0.58210  0.96460  Biso   1.000  H
  H39      1.0000 0.17840  0.91790  0.46460  Biso   1.000  H
  H40      1.0000 0.32160  0.41790  0.03540  Biso   1.000  H
  H41      1.0000 0.82910  0.01840  0.40950  Biso   1.000  H
  H42      1.0000 0.67090  0.51840  0.09050  Biso   1.000  H
  H43      1.0000 0.17090  0.98160  0.59050  Biso   1.000  H
  H44      1.0000 0.32910  0.48160  0.90950  Biso   1.000  H
  H45      1.0000 0.69780  0.00490  0.48170  Biso   1.000  H
  H46      1.0000 0.80220  0.50490  0.01830  Biso   1.000  H
  H47      1.0000 0.30220  0.99510  0.51830  Biso   1.000  H
  H48      1.0000 0.19780  0.49510  0.98170  Biso   1.000  H
