data_image0
_cell_length_a       10.005
_cell_length_b       12.149
_cell_length_c       11.246
_cell_angle_alpha    90
_cell_angle_beta     96.748
_cell_angle_gamma    90

_symmetry_space_group_name_H-M    "P 1"
_symmetry_int_tables_number       1

loop_
  _symmetry_equiv_pos_as_xyz
  'x, y, z'

loop_
  _atom_site_label
  _atom_site_occupancy
  _atom_site_fract_x
  _atom_site_fract_y
  _atom_site_fract_z
  _atom_site_thermal_displace_type
  _atom_site_B_iso_or_equiv
  _atom_site_type_symbol
  Cu1      1.0000 0.64795  0.38510  0.38163  Biso   1.000  Cu
  Cu2      1.0000 0.85205  0.88510  0.11837  Biso   1.000  Cu
  Cu3      1.0000 0.35205  0.61490  0.61837  Biso   1.000  Cu
  Cu4      1.0000 0.14795  0.11490  0.88163  Biso   1.000  Cu
  O1       1.0000 0.70340  0.44120  0.53910  Biso   1.000  O
  O2       1.0000 0.79660  0.94120  0.96090  Biso   1.000  O
  O3       1.0000 0.29660  0.55880  0.46090  Biso   1.000  O
  O4       1.0000 0.20340  0.05880  0.03910  Biso   1.000  O
  O5       1.0000 0.57700  0.32630  0.22950  Biso   1.000  O
  O6       1.0000 0.92300  0.82630  0.27050  Biso   1.000  O
  O7       1.0000 0.42300  0.67370  0.77050  Biso   1.000  O
  O8       1.0000 0.07700  0.17370  0.72950  Biso   1.000  O
  O9       1.0000 0.56820  0.52380  0.32870  Biso   1.000  O
  O10      1.0000 0.93180  0.02380  0.17130  Biso   1.000  O
  O11      1.0000 0.43180  0.47620  0.67130  Biso   1.000  O
  O12      1.0000 0.06820  0.97620  0.82870  Biso   1.000  O
  O13      1.0000 0.70250  0.24220  0.44230  Biso   1.000  O
  O14      1.0000 0.79750  0.74220  0.05770  Biso   1.000  O
  O15      1.0000 0.29750  0.75780  0.55770  Biso   1.000  O
  O16      1.0000 0.20250  0.25780  0.94230  Biso   1.000  O
  N1       1.0000 0.65650  0.82160  0.59440  Biso   1.000  N
  N2       1.0000 0.84350  0.32160  0.90560  Biso   1.000  N
  N3       1.0000 0.34350  0.17840  0.40560  Biso   1.000  N
  N4       1.0000 0.15650  0.67840  0.09440  Biso   1.000  N
  N5       1.0000 0.86570  0.44420  0.32020  Biso   1.000  N
  N6       1.0000 0.63430  0.94420  0.17980  Biso   1.000  N
  N7       1.0000 0.13430  0.55580  0.67980  Biso   1.000  N
  N8       1.0000 0.36570  0.05580  0.82020  Biso   1.000  N
  C1       1.0000 0.69970  0.53990  0.57440  Biso   1.000  C
  C2       1.0000 0.80030  0.03990  0.92560  Biso   1.000  C
  C3       1.0000 0.30030  0.46010  0.42560  Biso   1.000  C
  C4       1.0000 0.19970  0.96010  0.07440  Biso   1.000  C
  C5       1.0000 0.57830  0.22730  0.19490  Biso   1.000  C
  C6       1.0000 0.92170  0.72730  0.30510  Biso   1.000  C
  C7       1.0000 0.42170  0.77270  0.80510  Biso   1.000  C
  C8       1.0000 0.07830  0.27270  0.69490  Biso   1.000  C
  C9       1.0000 0.57670  0.61410  0.38400  Biso   1.000  C
  C10      1.0000 0.92330  0.11410  0.11600  Biso   1.000  C
  C11      1.0000 0.42330  0.38590  0.61600  Biso   1.000  C
  C12      1.0000 0.07670  0.88590  0.88400  Biso   1.000  C
  C13      1.0000 0.69480  0.15180  0.38690  Biso   1.000  C
  C14      1.0000 0.80520  0.65180  0.11310  Biso   1.000  C
  C15      1.0000 0.30520  0.84820  0.61310  Biso   1.000  C
  C16      1.0000 0.19480  0.34820  0.88690  Biso   1.000  C
  C17      1.0000 0.64210  0.62720  0.50190  Biso   1.000  C
  C18      1.0000 0.85790  0.12720  0.99810  Biso   1.000  C
  C19      1.0000 0.35790  0.37280  0.49810  Biso   1.000  C
  C20      1.0000 0.14210  0.87280  0.00190  Biso   1.000  C
  C21      1.0000 0.63480  0.13990  0.26730  Biso   1.000  C
  C22      1.0000 0.86520  0.63990  0.23270  Biso   1.000  C
  C23      1.0000 0.36520  0.86010  0.73270  Biso   1.000  C
  C24      1.0000 0.13480  0.36010  0.76730  Biso   1.000  C
  C25      1.0000 0.64910  0.73610  0.55340  Biso   1.000  C
  C26      1.0000 0.85090  0.23610  0.94660  Biso   1.000  C
  C27      1.0000 0.35090  0.26390  0.44660  Biso   1.000  C
  C28      1.0000 0.14910  0.76390  0.05340  Biso   1.000  C
  C29      1.0000 0.86850  0.53170  0.28250  Biso   1.000  C
  C30      1.0000 0.63150  0.03170  0.21750  Biso   1.000  C
  C31      1.0000 0.13150  0.46830  0.71750  Biso   1.000  C
  C32      1.0000 0.36850  0.96830  0.78250  Biso   1.000  C
  C33      1.0000 0.75890  0.56120  0.70070  Biso   1.000  C
  C34      1.0000 0.74110  0.06120  0.79930  Biso   1.000  C
  C35      1.0000 0.24110  0.43880  0.29930  Biso   1.000  C
  C36      1.0000 0.25890  0.93880  0.20070  Biso   1.000  C
  C37      1.0000 0.51460  0.20590  0.06960  Biso   1.000  C
  C38      1.0000 0.98540  0.70590  0.43040  Biso   1.000  C
  C39      1.0000 0.48540  0.79410  0.93040  Biso   1.000  C
  C40      1.0000 0.01460  0.29410  0.56960  Biso   1.000  C
  C41      1.0000 0.51060  0.71120  0.31850  Biso   1.000  C
  C42      1.0000 0.98940  0.21120  0.18150  Biso   1.000  C
  C43      1.0000 0.48940  0.28880  0.68150  Biso   1.000  C
  C44      1.0000 0.01060  0.78880  0.81850  Biso   1.000  C
  C45      1.0000 0.75300  0.05250  0.45380  Biso   1.000  C
  C46      1.0000 0.74700  0.55250  0.04620  Biso   1.000  C
  C47      1.0000 0.24700  0.94750  0.54620  Biso   1.000  C
  C48      1.0000 0.25300  0.44750  0.95380  Biso   1.000  C
  H1       1.0000 0.70300  0.59600  0.74100  Biso   1.000  H
  H2       1.0000 0.79700  0.09600  0.75900  Biso   1.000  H
  H3       1.0000 0.29700  0.40400  0.25900  Biso   1.000  H
  H4       1.0000 0.20300  0.90400  0.24100  Biso   1.000  H
  H5       1.0000 0.85100  0.59700  0.70300  Biso   1.000  H
  H6       1.0000 0.64900  0.09700  0.79700  Biso   1.000  H
  H7       1.0000 0.14900  0.40300  0.29700  Biso   1.000  H
  H8       1.0000 0.35100  0.90300  0.20300  Biso   1.000  H
  H9       1.0000 0.77500  0.50400  0.73700  Biso   1.000  H
  H10      1.0000 0.72500  0.00400  0.76300  Biso   1.000  H
  H11      1.0000 0.22500  0.49600  0.26300  Biso   1.000  H
  H12      1.0000 0.27500  0.99600  0.23700  Biso   1.000  H
  H13      1.0000 0.54500  0.15600  0.03400  Biso   1.000  H
  H14      1.0000 0.95500  0.65600  0.46600  Biso   1.000  H
  H15      1.0000 0.45500  0.84400  0.96600  Biso   1.000  H
  H16      1.0000 0.04500  0.34400  0.53400  Biso   1.000  H
  H17      1.0000 0.43800  0.20200  0.07700  Biso   1.000  H
  H18      1.0000 0.06200  0.70200  0.42300  Biso   1.000  H
  H19      1.0000 0.56200  0.79800  0.92300  Biso   1.000  H
  H20      1.0000 0.93800  0.29800  0.57700  Biso   1.000  H
  H21      1.0000 0.54600  0.26400  0.02200  Biso   1.000  H
  H22      1.0000 0.95400  0.76400  0.47800  Biso   1.000  H
  H23      1.0000 0.45400  0.73600  0.97800  Biso   1.000  H
  H24      1.0000 0.04600  0.23600  0.52200  Biso   1.000  H
  H25      1.0000 0.47400  0.69300  0.24900  Biso   1.000  H
  H26      1.0000 0.02600  0.19300  0.25100  Biso   1.000  H
  H27      1.0000 0.52600  0.30700  0.75100  Biso   1.000  H
  H28      1.0000 0.97400  0.80700  0.74900  Biso   1.000  H
  H29      1.0000 0.43700  0.73500  0.35100  Biso   1.000  H
  H30      1.0000 0.06300  0.23500  0.14900  Biso   1.000  H
  H31      1.0000 0.56300  0.26500  0.64900  Biso   1.000  H
  H32      1.0000 0.93700  0.76500  0.85100  Biso   1.000  H
  H33      1.0000 0.56500  0.75900  0.29600  Biso   1.000  H
  H34      1.0000 0.93500  0.25900  0.20400  Biso   1.000  H
  H35      1.0000 0.43500  0.24100  0.70400  Biso   1.000  H
  H36      1.0000 0.06500  0.74100  0.79600  Biso   1.000  H
  H37      1.0000 0.67400  0.01900  0.48600  Biso   1.000  H
  H38      1.0000 0.82600  0.51900  0.01400  Biso   1.000  H
  H39      1.0000 0.32600  0.98100  0.51400  Biso   1.000  H
  H40      1.0000 0.17400  0.48100  0.98600  Biso   1.000  H
  H41      1.0000 0.80400  0.99900  0.40400  Biso   1.000  H
  H42      1.0000 0.69600  0.49900  0.09600  Biso   1.000  H
  H43      1.0000 0.19600  0.00100  0.59600  Biso   1.000  H
  H44      1.0000 0.30400  0.50100  0.90400  Biso   1.000  H
  H45      1.0000 0.79600  0.06800  0.51800  Biso   1.000  H
  H46      1.0000 0.70400  0.56800  0.98200  Biso   1.000  H
  H47      1.0000 0.20400  0.93200  0.48200  Biso   1.000  H
  H48      1.0000 0.29600  0.43200  0.01800  Biso   1.000  H
