data_image0
_cell_length_a       11.49
_cell_length_b       7.081
_cell_length_c       20.71
_cell_angle_alpha    90
_cell_angle_beta     96.99
_cell_angle_gamma    90

_symmetry_space_group_name_H-M    "P 1"
_symmetry_int_tables_number       1

loop_
  _symmetry_equiv_pos_as_xyz
  'x, y, z'

loop_
  _atom_site_label
  _atom_site_occupancy
  _atom_site_fract_x
  _atom_site_fract_y
  _atom_site_fract_z
  _atom_site_thermal_displace_type
  _atom_site_B_iso_or_equiv
  _atom_site_type_symbol
  Cu1      1.0000 0.17563  0.65086  0.14218  Biso   1.000  Cu
  Cu2      1.0000 0.32437  0.15086  0.35782  Biso   1.000  Cu
  Cu3      1.0000 0.82437  0.34914  0.85782  Biso   1.000  Cu
  Cu4      1.0000 0.67563  0.84914  0.64218  Biso   1.000  Cu
  O1       1.0000 0.20640  0.49040  0.22097  Biso   1.000  O
  O2       1.0000 0.29360  0.99040  0.27903  Biso   1.000  O
  O3       1.0000 0.79360  0.50960  0.77903  Biso   1.000  O
  O4       1.0000 0.70640  0.00960  0.72097  Biso   1.000  O
  O5       1.0000 0.34640  0.43320  0.30622  Biso   1.000  O
  O6       1.0000 0.15360  0.93320  0.19378  Biso   1.000  O
  O7       1.0000 0.65360  0.56680  0.69378  Biso   1.000  O
  O8       1.0000 0.84640  0.06680  0.80622  Biso   1.000  O
  N1       1.0000 0.99830  0.62110  0.13833  Biso   1.000  N
  N2       1.0000 0.50170  0.12110  0.36167  Biso   1.000  N
  N3       1.0000 0.00170  0.37890  0.86167  Biso   1.000  N
  N4       1.0000 0.49830  0.87890  0.63833  Biso   1.000  N
  N5       1.0000 0.13020  0.73080  0.04571  Biso   1.000  N
  N6       1.0000 0.36980  0.23080  0.45429  Biso   1.000  N
  N7       1.0000 0.86980  0.26920  0.95429  Biso   1.000  N
  N8       1.0000 0.63020  0.76920  0.54571  Biso   1.000  N
  N9       1.0000 0.35420  0.65630  0.14690  Biso   1.000  N
  N10      1.0000 0.14580  0.15630  0.35310  Biso   1.000  N
  N11      1.0000 0.64580  0.34370  0.85310  Biso   1.000  N
  N12      1.0000 0.85420  0.84370  0.64690  Biso   1.000  N
  C1       1.0000 0.40300  0.61000  0.21578  Biso   1.000  C
  C2       1.0000 0.09700  0.11000  0.28422  Biso   1.000  C
  C3       1.0000 0.59700  0.39000  0.78422  Biso   1.000  C
  C4       1.0000 0.90300  0.89000  0.71578  Biso   1.000  C
  C5       1.0000 0.31290  0.50140  0.25055  Biso   1.000  C
  C6       1.0000 0.18710  0.00140  0.24945  Biso   1.000  C
  C7       1.0000 0.68710  0.49860  0.74945  Biso   1.000  C
  C8       1.0000 0.81290  0.99860  0.75055  Biso   1.000  C
  C9       1.0000 0.93550  0.57610  0.18745  Biso   1.000  C
  C10      1.0000 0.56450  0.07610  0.31255  Biso   1.000  C
  C11      1.0000 0.06450  0.42390  0.81255  Biso   1.000  C
  C12      1.0000 0.43550  0.92390  0.68745  Biso   1.000  C
  C13      1.0000 0.81100  0.57170  0.17860  Biso   1.000  C
  C14      1.0000 0.68900  0.07170  0.32140  Biso   1.000  C
  C15      1.0000 0.18900  0.42830  0.82140  Biso   1.000  C
  C16      1.0000 0.31100  0.92830  0.67860  Biso   1.000  C
  C17      1.0000 0.74990  0.61580  0.11790  Biso   1.000  C
  C18      1.0000 0.75010  0.11580  0.38210  Biso   1.000  C
  C19      1.0000 0.25010  0.38420  0.88210  Biso   1.000  C
  C20      1.0000 0.24990  0.88420  0.61790  Biso   1.000  C
  C21      1.0000 0.81290  0.66770  0.06550  Biso   1.000  C
  C22      1.0000 0.68710  0.16770  0.43450  Biso   1.000  C
  C23      1.0000 0.18710  0.33230  0.93450  Biso   1.000  C
  C24      1.0000 0.31290  0.83230  0.56550  Biso   1.000  C
  C25      1.0000 0.75910  0.72020  0.99950  Biso   1.000  C
  C26      1.0000 0.74090  0.22020  0.50050  Biso   1.000  C
  C27      1.0000 0.24090  0.27980  0.00050  Biso   1.000  C
  C28      1.0000 0.25910  0.77980  0.49950  Biso   1.000  C
  C29      1.0000 0.82680  0.76890  0.95185  Biso   1.000  C
  C30      1.0000 0.67320  0.26890  0.54815  Biso   1.000  C
  C31      1.0000 0.17320  0.23110  0.04815  Biso   1.000  C
  C32      1.0000 0.32680  0.73110  0.45185  Biso   1.000  C
  C33      1.0000 0.95460  0.77520  0.96425  Biso   1.000  C
  C34      1.0000 0.54540  0.27520  0.53575  Biso   1.000  C
  C35      1.0000 0.04540  0.22480  0.03575  Biso   1.000  C
  C36      1.0000 0.45460  0.72480  0.46425  Biso   1.000  C
  C37      1.0000 0.00980  0.72580  0.02822  Biso   1.000  C
  C38      1.0000 0.49020  0.22580  0.47178  Biso   1.000  C
  C39      1.0000 0.99020  0.27420  0.97178  Biso   1.000  C
  C40      1.0000 0.50980  0.77420  0.52822  Biso   1.000  C
  C41      1.0000 0.93860  0.66930  0.07826  Biso   1.000  C
  C42      1.0000 0.56140  0.16930  0.42174  Biso   1.000  C
  C43      1.0000 0.06140  0.33070  0.92174  Biso   1.000  C
  C44      1.0000 0.43860  0.83070  0.57826  Biso   1.000  C
  C45      1.0000 0.03100  0.83190  0.91786  Biso   1.000  C
  C46      1.0000 0.46900  0.33190  0.58214  Biso   1.000  C
  C47      1.0000 0.96900  0.16810  0.08214  Biso   1.000  C
  C48      1.0000 0.53100  0.66810  0.41786  Biso   1.000  C
  C49      1.0000 0.15110  0.83520  0.93508  Biso   1.000  C
  C50      1.0000 0.34890  0.33520  0.56492  Biso   1.000  C
  C51      1.0000 0.84890  0.16480  0.06492  Biso   1.000  C
  C52      1.0000 0.65110  0.66480  0.43508  Biso   1.000  C
  C53      1.0000 0.19960  0.78500  0.00030  Biso   1.000  C
  C54      1.0000 0.30040  0.28500  0.49970  Biso   1.000  C
  C55      1.0000 0.80040  0.21500  0.99970  Biso   1.000  C
  C56      1.0000 0.69960  0.71500  0.50030  Biso   1.000  C
  H1       1.0000 0.47400  0.52100  0.21800  Biso   1.000  H
  H2       1.0000 0.02600  0.02100  0.28200  Biso   1.000  H
  H3       1.0000 0.52600  0.47900  0.78200  Biso   1.000  H
  H4       1.0000 0.97400  0.97900  0.71800  Biso   1.000  H
  H5       1.0000 0.41900  0.73900  0.24000  Biso   1.000  H
  H6       1.0000 0.08100  0.23900  0.26000  Biso   1.000  H
  H7       1.0000 0.58100  0.26100  0.76000  Biso   1.000  H
  H8       1.0000 0.91900  0.76100  0.74000  Biso   1.000  H
  H9       1.0000 0.98400  0.56000  0.22930  Biso   1.000  H
  H10      1.0000 0.51600  0.06000  0.27070  Biso   1.000  H
  H11      1.0000 0.01600  0.44000  0.77070  Biso   1.000  H
  H12      1.0000 0.48400  0.94000  0.72930  Biso   1.000  H
  H13      1.0000 0.39800  0.74500  0.13300  Biso   1.000  H
  H14      1.0000 0.10200  0.24500  0.36700  Biso   1.000  H
  H15      1.0000 0.60200  0.25500  0.86700  Biso   1.000  H
  H16      1.0000 0.89800  0.75500  0.63300  Biso   1.000  H
  H17      1.0000 0.38700  0.56600  0.11900  Biso   1.000  H
  H18      1.0000 0.11300  0.06600  0.38100  Biso   1.000  H
  H19      1.0000 0.61300  0.43400  0.88100  Biso   1.000  H
  H20      1.0000 0.88700  0.93400  0.61900  Biso   1.000  H
  H21      1.0000 0.77700  0.55800  0.21500  Biso   1.000  H
  H22      1.0000 0.72300  0.05800  0.28500  Biso   1.000  H
  H23      1.0000 0.22300  0.44200  0.78500  Biso   1.000  H
  H24      1.0000 0.27700  0.94200  0.71500  Biso   1.000  H
  H25      1.0000 0.66700  0.62300  0.11400  Biso   1.000  H
  H26      1.0000 0.83300  0.12300  0.38600  Biso   1.000  H
  H27      1.0000 0.33300  0.37700  0.88600  Biso   1.000  H
  H28      1.0000 0.16700  0.87700  0.61400  Biso   1.000  H
  H29      1.0000 0.67800  0.73000  0.99430  Biso   1.000  H
  H30      1.0000 0.82200  0.23000  0.50570  Biso   1.000  H
  H31      1.0000 0.32200  0.27000  0.00570  Biso   1.000  H
  H32      1.0000 0.17800  0.77000  0.49430  Biso   1.000  H
  H33      1.0000 0.79000  0.80000  0.91200  Biso   1.000  H
  H34      1.0000 0.71000  0.30000  0.58800  Biso   1.000  H
  H35      1.0000 0.21000  0.20000  0.08800  Biso   1.000  H
  H36      1.0000 0.29000  0.70000  0.41200  Biso   1.000  H
  H37      1.0000 0.00100  0.86200  0.87900  Biso   1.000  H
  H38      1.0000 0.49900  0.36200  0.62100  Biso   1.000  H
  H39      1.0000 0.99900  0.13800  0.12100  Biso   1.000  H
  H40      1.0000 0.50100  0.63800  0.37900  Biso   1.000  H
  H41      1.0000 0.19900  0.86800  0.90400  Biso   1.000  H
  H42      1.0000 0.30100  0.36800  0.59600  Biso   1.000  H
  H43      1.0000 0.80100  0.13200  0.09600  Biso   1.000  H
  H44      1.0000 0.69900  0.63200  0.40400  Biso   1.000  H
  H45      1.0000 0.28100  0.78600  0.01040  Biso   1.000  H
  H46      1.0000 0.21900  0.28600  0.48960  Biso   1.000  H
  H47      1.0000 0.71900  0.21400  0.98960  Biso   1.000  H
  H48      1.0000 0.78100  0.71400  0.51040  Biso   1.000  H
  Cl1      1.0000 0.52753  0.14270  0.11927  Biso   1.000  Cl
  Cl2      1.0000 0.97247  0.64270  0.38073  Biso   1.000  Cl
  Cl3      1.0000 0.47247  0.85730  0.88073  Biso   1.000  Cl
  Cl4      1.0000 0.02753  0.35730  0.61927  Biso   1.000  Cl
  O9       1.0000 0.42390  0.14750  0.14950  Biso   1.000  O
  O10      1.0000 0.07610  0.64750  0.35050  Biso   1.000  O
  O11      1.0000 0.57610  0.85250  0.85050  Biso   1.000  O
  O12      1.0000 0.92390  0.35250  0.64950  Biso   1.000  O
  O13      1.0000 0.53160  0.28690  0.07360  Biso   1.000  O
  O14      1.0000 0.96840  0.78690  0.42640  Biso   1.000  O
  O15      1.0000 0.46840  0.71310  0.92640  Biso   1.000  O
  O16      1.0000 0.03160  0.21310  0.57360  Biso   1.000  O
  O17      1.0000 0.51670  0.97990  0.08260  Biso   1.000  O
  O18      1.0000 0.98330  0.47990  0.41740  Biso   1.000  O
  O19      1.0000 0.48330  0.02010  0.91740  Biso   1.000  O
  O20      1.0000 0.01670  0.52010  0.58260  Biso   1.000  O
  O21      1.0000 0.62590  0.13760  0.16550  Biso   1.000  O
  O22      1.0000 0.87410  0.63760  0.33450  Biso   1.000  O
  O23      1.0000 0.37410  0.86240  0.83450  Biso   1.000  O
  O24      1.0000 0.12590  0.36240  0.66550  Biso   1.000  O
