data_image0
_cell_length_a       12.31
_cell_length_b       5.838
_cell_length_c       20.357
_cell_angle_alpha    90
_cell_angle_beta     90
_cell_angle_gamma    90

_symmetry_space_group_name_H-M    "P 1"
_symmetry_int_tables_number       1

loop_
  _symmetry_equiv_pos_as_xyz
  'x, y, z'

loop_
  _atom_site_label
  _atom_site_occupancy
  _atom_site_fract_x
  _atom_site_fract_y
  _atom_site_fract_z
  _atom_site_thermal_displace_type
  _atom_site_B_iso_or_equiv
  _atom_site_type_symbol
  Cu1      1.0000 0.13150  0.24940  0.25090  Biso   1.000  Cu
  Cu2      1.0000 0.63150  0.25060  0.74910  Biso   1.000  Cu
  Cu3      1.0000 0.86850  0.74940  0.24910  Biso   1.000  Cu
  Cu4      1.0000 0.36850  0.75060  0.75090  Biso   1.000  Cu
  O1       1.0000 0.02790  0.49070  0.23760  Biso   1.000  O
  O2       1.0000 0.52790  0.00930  0.76240  Biso   1.000  O
  O3       1.0000 0.97210  0.99070  0.26240  Biso   1.000  O
  O4       1.0000 0.47210  0.50930  0.73760  Biso   1.000  O
  O5       1.0000 0.94040  0.68680  0.16370  Biso   1.000  O
  O6       1.0000 0.44040  0.81320  0.83630  Biso   1.000  O
  O7       1.0000 0.05960  0.18680  0.33630  Biso   1.000  O
  O8       1.0000 0.55960  0.31320  0.66370  Biso   1.000  O
  O9       1.0000 0.32720  0.33050  0.84360  Biso   1.000  O
  O10      1.0000 0.82720  0.16950  0.15640  Biso   1.000  O
  O11      1.0000 0.67280  0.83050  0.65640  Biso   1.000  O
  O12      1.0000 0.17280  0.66950  0.34360  Biso   1.000  O
  O13      1.0000 0.23350  0.01480  0.26070  Biso   1.000  O
  O14      1.0000 0.73350  0.48520  0.73930  Biso   1.000  O
  O15      1.0000 0.76650  0.51480  0.23930  Biso   1.000  O
  O16      1.0000 0.26650  0.98520  0.76070  Biso   1.000  O
  N1       1.0000 0.17410  0.32300  0.16170  Biso   1.000  N
  N2       1.0000 0.67410  0.17700  0.83830  Biso   1.000  N
  N3       1.0000 0.82590  0.82300  0.33830  Biso   1.000  N
  N4       1.0000 0.32590  0.67700  0.66170  Biso   1.000  N
  C1       1.0000 0.01780  0.56310  0.18060  Biso   1.000  C
  C2       1.0000 0.51780  0.93690  0.81940  Biso   1.000  C
  C3       1.0000 0.98220  0.06310  0.31940  Biso   1.000  C
  C4       1.0000 0.48220  0.43690  0.68060  Biso   1.000  C
  C5       1.0000 0.10770  0.50000  0.13100  Biso   1.000  C
  C6       1.0000 0.60770  0.00000  0.86900  Biso   1.000  C
  C7       1.0000 0.89230  0.00000  0.36900  Biso   1.000  C
  C8       1.0000 0.39230  0.50000  0.63100  Biso   1.000  C
  C9       1.0000 0.05320  0.41420  0.06590  Biso   1.000  C
  C10      1.0000 0.55320  0.08580  0.93410  Biso   1.000  C
  C11      1.0000 0.94680  0.91420  0.43410  Biso   1.000  C
  C12      1.0000 0.44680  0.58580  0.56590  Biso   1.000  C
  C13      1.0000 0.13100  0.39060  0.00840  Biso   1.000  C
  C14      1.0000 0.63100  0.10940  0.99160  Biso   1.000  C
  C15      1.0000 0.86900  0.89060  0.49160  Biso   1.000  C
  C16      1.0000 0.36900  0.60940  0.50840  Biso   1.000  C
  C17      1.0000 0.12890  0.19640  0.97020  Biso   1.000  C
  C18      1.0000 0.62890  0.30360  0.02980  Biso   1.000  C
  C19      1.0000 0.87110  0.69640  0.52980  Biso   1.000  C
  C20      1.0000 0.37110  0.80360  0.47020  Biso   1.000  C
  C21      1.0000 0.19360  0.17490  0.91430  Biso   1.000  C
  C22      1.0000 0.69360  0.32510  0.08570  Biso   1.000  C
  C23      1.0000 0.80640  0.67490  0.58570  Biso   1.000  C
  C24      1.0000 0.30640  0.82510  0.41430  Biso   1.000  C
  C25      1.0000 0.26240  0.34480  0.89800  Biso   1.000  C
  C26      1.0000 0.76240  0.15520  0.10200  Biso   1.000  C
  C27      1.0000 0.73760  0.84480  0.60200  Biso   1.000  C
  C28      1.0000 0.23760  0.65520  0.39800  Biso   1.000  C
  C29      1.0000 0.26810  0.53550  0.93560  Biso   1.000  C
  C30      1.0000 0.76810  0.96450  0.06440  Biso   1.000  C
  C31      1.0000 0.73190  0.03550  0.56440  Biso   1.000  C
  C32      1.0000 0.23190  0.46450  0.43560  Biso   1.000  C
  C33      1.0000 0.20020  0.56510  0.98910  Biso   1.000  C
  C34      1.0000 0.70020  0.93490  0.01090  Biso   1.000  C
  C35      1.0000 0.79980  0.06510  0.51090  Biso   1.000  C
  C36      1.0000 0.29980  0.43490  0.48910  Biso   1.000  C
  C37      1.0000 0.30690  0.95020  0.21860  Biso   1.000  C
  C38      1.0000 0.80690  0.54980  0.78140  Biso   1.000  C
  C39      1.0000 0.69310  0.45020  0.28140  Biso   1.000  C
  C40      1.0000 0.19310  0.04980  0.71860  Biso   1.000  C
  C41      1.0000 0.37320  0.75830  0.23100  Biso   1.000  C
  C42      1.0000 0.87320  0.74170  0.76900  Biso   1.000  C
  C43      1.0000 0.62680  0.25830  0.26900  Biso   1.000  C
  C44      1.0000 0.12680  0.24170  0.73100  Biso   1.000  C
  C45      1.0000 0.45570  0.68800  0.18730  Biso   1.000  C
  C46      1.0000 0.95570  0.81200  0.81270  Biso   1.000  C
  C47      1.0000 0.54430  0.18800  0.31270  Biso   1.000  C
  C48      1.0000 0.04430  0.31200  0.68730  Biso   1.000  C
  C49      1.0000 0.47210  0.80470  0.12920  Biso   1.000  C
  C50      1.0000 0.97210  0.69530  0.87080  Biso   1.000  C
  C51      1.0000 0.52790  0.30470  0.37080  Biso   1.000  C
  C52      1.0000 0.02790  0.19530  0.62920  Biso   1.000  C
  C53      1.0000 0.40910  0.99040  0.11710  Biso   1.000  C
  C54      1.0000 0.90910  0.50960  0.88290  Biso   1.000  C
  C55      1.0000 0.59090  0.49040  0.38290  Biso   1.000  C
  C56      1.0000 0.09090  0.00960  0.61710  Biso   1.000  C
  C57      1.0000 0.32650  0.06350  0.15760  Biso   1.000  C
  C58      1.0000 0.82650  0.43650  0.84240  Biso   1.000  C
  C59      1.0000 0.67350  0.56350  0.34240  Biso   1.000  C
  C60      1.0000 0.17350  0.93650  0.65760  Biso   1.000  C
  C61      1.0000 0.26050  0.25360  0.13380  Biso   1.000  C
  C62      1.0000 0.76050  0.24640  0.86620  Biso   1.000  C
  C63      1.0000 0.73950  0.75360  0.36620  Biso   1.000  C
  C64      1.0000 0.23950  0.74640  0.63380  Biso   1.000  C
  H1       1.0000 0.14200  0.63500  0.12300  Biso   1.000  H
  H2       1.0000 0.64200  0.86500  0.87700  Biso   1.000  H
  H3       1.0000 0.85800  0.13500  0.37700  Biso   1.000  H
  H4       1.0000 0.35800  0.36500  0.62300  Biso   1.000  H
  H5       1.0000 0.01700  0.54400  0.05600  Biso   1.000  H
  H6       1.0000 0.51700  0.95600  0.94400  Biso   1.000  H
  H7       1.0000 0.98300  0.04400  0.44400  Biso   1.000  H
  H8       1.0000 0.48300  0.45600  0.55600  Biso   1.000  H
  H9       1.0000 0.99500  0.32200  0.07300  Biso   1.000  H
  H10      1.0000 0.49500  0.17800  0.92700  Biso   1.000  H
  H11      1.0000 0.00500  0.82200  0.42700  Biso   1.000  H
  H12      1.0000 0.50500  0.67800  0.57300  Biso   1.000  H
  H13      1.0000 0.07800  0.09500  0.98200  Biso   1.000  H
  H14      1.0000 0.57800  0.40500  0.01800  Biso   1.000  H
  H15      1.0000 0.92200  0.59500  0.51800  Biso   1.000  H
  H16      1.0000 0.42200  0.90500  0.48200  Biso   1.000  H
  H17      1.0000 0.20900  0.01200  0.90600  Biso   1.000  H
  H18      1.0000 0.70900  0.48800  0.09400  Biso   1.000  H
  H19      1.0000 0.79100  0.51200  0.59400  Biso   1.000  H
  H20      1.0000 0.29100  0.98800  0.40600  Biso   1.000  H
  H21      1.0000 0.31100  0.21900  0.81700  Biso   1.000  H
  H22      1.0000 0.81100  0.28100  0.18300  Biso   1.000  H
  H23      1.0000 0.68900  0.71900  0.68300  Biso   1.000  H
  H24      1.0000 0.18900  0.78100  0.31700  Biso   1.000  H
  H25      1.0000 0.31000  0.69700  0.93200  Biso   1.000  H
  H26      1.0000 0.81000  0.80300  0.06800  Biso   1.000  H
  H27      1.0000 0.69000  0.19700  0.56800  Biso   1.000  H
  H28      1.0000 0.19000  0.30300  0.43200  Biso   1.000  H
  H29      1.0000 0.21000  0.66500  0.01200  Biso   1.000  H
  H30      1.0000 0.71000  0.83500  0.98800  Biso   1.000  H
  H31      1.0000 0.79000  0.16500  0.48800  Biso   1.000  H
  H32      1.0000 0.29000  0.33500  0.51200  Biso   1.000  H
  H33      1.0000 0.49100  0.57700  0.20200  Biso   1.000  H
  H34      1.0000 0.99100  0.92300  0.79800  Biso   1.000  H
  H35      1.0000 0.50900  0.07700  0.29800  Biso   1.000  H
  H36      1.0000 0.00900  0.42300  0.70200  Biso   1.000  H
  H37      1.0000 0.43300  0.11400  0.07500  Biso   1.000  H
  H38      1.0000 0.93300  0.38600  0.92500  Biso   1.000  H
  H39      1.0000 0.56700  0.61400  0.42500  Biso   1.000  H
  H40      1.0000 0.06700  0.88600  0.57500  Biso   1.000  H
