data_image0
_cell_length_a       30.261
_cell_length_b       30.261
_cell_length_c       30.261
_cell_angle_alpha    90
_cell_angle_beta     90
_cell_angle_gamma    90

_symmetry_space_group_name_H-M    "P 1"
_symmetry_int_tables_number       1

loop_
  _symmetry_equiv_pos_as_xyz
  'x, y, z'

loop_
  _atom_site_label
  _atom_site_occupancy
  _atom_site_fract_x
  _atom_site_fract_y
  _atom_site_fract_z
  _atom_site_thermal_displace_type
  _atom_site_B_iso_or_equiv
  _atom_site_type_symbol
  Cu1      1.0000 0.50000  0.50000  0.04475  Biso   1.000  Cu
  Cu2      1.0000 0.50000  0.50000  0.95525  Biso   1.000  Cu
  Cu3      1.0000 0.04475  0.50000  0.50000  Biso   1.000  Cu
  Cu4      1.0000 0.95525  0.50000  0.50000  Biso   1.000  Cu
  Cu5      1.0000 0.50000  0.04475  0.50000  Biso   1.000  Cu
  Cu6      1.0000 0.50000  0.95525  0.50000  Biso   1.000  Cu
  Cu7      1.0000 0.00000  0.00000  0.54475  Biso   1.000  Cu
  Cu8      1.0000 0.00000  0.00000  0.45525  Biso   1.000  Cu
  Cu9      1.0000 0.54475  0.00000  0.00000  Biso   1.000  Cu
  Cu10     1.0000 0.45525  0.00000  0.00000  Biso   1.000  Cu
  Cu11     1.0000 0.00000  0.54475  0.00000  Biso   1.000  Cu
  Cu12     1.0000 0.00000  0.45525  0.00000  Biso   1.000  Cu
  O1       1.0000 0.50000  0.50000  0.11430  Biso   1.000  O
  O2       1.0000 0.50000  0.50000  0.88570  Biso   1.000  O
  O3       1.0000 0.11430  0.50000  0.50000  Biso   1.000  O
  O4       1.0000 0.88570  0.50000  0.50000  Biso   1.000  O
  O5       1.0000 0.50000  0.11430  0.50000  Biso   1.000  O
  O6       1.0000 0.50000  0.88570  0.50000  Biso   1.000  O
  O7       1.0000 0.00000  0.00000  0.61430  Biso   1.000  O
  O8       1.0000 0.00000  0.00000  0.38570  Biso   1.000  O
  O9       1.0000 0.61430  0.00000  0.00000  Biso   1.000  O
  O10      1.0000 0.38570  0.00000  0.00000  Biso   1.000  O
  O11      1.0000 0.00000  0.61430  0.00000  Biso   1.000  O
  O12      1.0000 0.00000  0.38570  0.00000  Biso   1.000  O
  O13      1.0000 0.43548  0.50000  0.03735  Biso   1.000  O
  O14      1.0000 0.56452  0.50000  0.03735  Biso   1.000  O
  O15      1.0000 0.56452  0.50000  0.96265  Biso   1.000  O
  O16      1.0000 0.43548  0.50000  0.96265  Biso   1.000  O
  O17      1.0000 0.03735  0.43548  0.50000  Biso   1.000  O
  O18      1.0000 0.03735  0.56452  0.50000  Biso   1.000  O
  O19      1.0000 0.96265  0.56452  0.50000  Biso   1.000  O
  O20      1.0000 0.96265  0.43548  0.50000  Biso   1.000  O
  O21      1.0000 0.50000  0.03735  0.43548  Biso   1.000  O
  O22      1.0000 0.50000  0.03735  0.56452  Biso   1.000  O
  O23      1.0000 0.50000  0.96265  0.56452  Biso   1.000  O
  O24      1.0000 0.50000  0.96265  0.43548  Biso   1.000  O
  O25      1.0000 0.50000  0.43548  0.96265  Biso   1.000  O
  O26      1.0000 0.50000  0.56452  0.96265  Biso   1.000  O
  O27      1.0000 0.50000  0.56452  0.03735  Biso   1.000  O
  O28      1.0000 0.50000  0.43548  0.03735  Biso   1.000  O
  O29      1.0000 0.43548  0.03735  0.50000  Biso   1.000  O
  O30      1.0000 0.56452  0.03735  0.50000  Biso   1.000  O
  O31      1.0000 0.56452  0.96265  0.50000  Biso   1.000  O
  O32      1.0000 0.43548  0.96265  0.50000  Biso   1.000  O
  O33      1.0000 0.03735  0.50000  0.56452  Biso   1.000  O
  O34      1.0000 0.03735  0.50000  0.43548  Biso   1.000  O
  O35      1.0000 0.96265  0.50000  0.43548  Biso   1.000  O
  O36      1.0000 0.96265  0.50000  0.56452  Biso   1.000  O
  O37      1.0000 0.93548  0.00000  0.53735  Biso   1.000  O
  O38      1.0000 0.06452  0.00000  0.53735  Biso   1.000  O
  O39      1.0000 0.06452  0.00000  0.46265  Biso   1.000  O
  O40      1.0000 0.93548  0.00000  0.46265  Biso   1.000  O
  O41      1.0000 0.53735  0.93548  0.00000  Biso   1.000  O
  O42      1.0000 0.53735  0.06452  0.00000  Biso   1.000  O
  O43      1.0000 0.46265  0.06452  0.00000  Biso   1.000  O
  O44      1.0000 0.46265  0.93548  0.00000  Biso   1.000  O
  O45      1.0000 0.00000  0.53735  0.93548  Biso   1.000  O
  O46      1.0000 0.00000  0.53735  0.06452  Biso   1.000  O
  O47      1.0000 0.00000  0.46265  0.06452  Biso   1.000  O
  O48      1.0000 0.00000  0.46265  0.93548  Biso   1.000  O
  O49      1.0000 0.00000  0.93548  0.46265  Biso   1.000  O
  O50      1.0000 0.00000  0.06452  0.46265  Biso   1.000  O
  O51      1.0000 0.00000  0.06452  0.53735  Biso   1.000  O
  O52      1.0000 0.00000  0.93548  0.53735  Biso   1.000  O
  O53      1.0000 0.93548  0.53735  0.00000  Biso   1.000  O
  O54      1.0000 0.06452  0.53735  0.00000  Biso   1.000  O
  O55      1.0000 0.06452  0.46265  0.00000  Biso   1.000  O
  O56      1.0000 0.93548  0.46265  0.00000  Biso   1.000  O
  O57      1.0000 0.53735  0.00000  0.06452  Biso   1.000  O
  O58      1.0000 0.53735  0.00000  0.93548  Biso   1.000  O
  O59      1.0000 0.46265  0.00000  0.93548  Biso   1.000  O
  O60      1.0000 0.46265  0.00000  0.06452  Biso   1.000  O
  C1       1.0000 0.27538  0.50000  0.00000  Biso   1.000  C
  C2       1.0000 0.72462  0.50000  0.00000  Biso   1.000  C
  C3       1.0000 0.00000  0.27538  0.50000  Biso   1.000  C
  C4       1.0000 0.00000  0.72462  0.50000  Biso   1.000  C
  C5       1.0000 0.50000  0.00000  0.27538  Biso   1.000  C
  C6       1.0000 0.50000  0.00000  0.72462  Biso   1.000  C
  C7       1.0000 0.50000  0.27538  0.00000  Biso   1.000  C
  C8       1.0000 0.50000  0.72462  0.00000  Biso   1.000  C
  C9       1.0000 0.27538  0.00000  0.50000  Biso   1.000  C
  C10      1.0000 0.72462  0.00000  0.50000  Biso   1.000  C
  C11      1.0000 0.00000  0.50000  0.72462  Biso   1.000  C
  C12      1.0000 0.00000  0.50000  0.27538  Biso   1.000  C
  C13      1.0000 0.77538  0.00000  0.50000  Biso   1.000  C
  C14      1.0000 0.22462  0.00000  0.50000  Biso   1.000  C
  C15      1.0000 0.50000  0.77538  0.00000  Biso   1.000  C
  C16      1.0000 0.50000  0.22462  0.00000  Biso   1.000  C
  C17      1.0000 0.00000  0.50000  0.77538  Biso   1.000  C
  C18      1.0000 0.00000  0.50000  0.22462  Biso   1.000  C
  C19      1.0000 0.00000  0.77538  0.50000  Biso   1.000  C
  C20      1.0000 0.00000  0.22462  0.50000  Biso   1.000  C
  C21      1.0000 0.77538  0.50000  0.00000  Biso   1.000  C
  C22      1.0000 0.22462  0.50000  0.00000  Biso   1.000  C
  C23      1.0000 0.50000  0.00000  0.22462  Biso   1.000  C
  C24      1.0000 0.50000  0.00000  0.77538  Biso   1.000  C
  C25      1.0000 0.29972  0.50000  0.03834  Biso   1.000  C
  C26      1.0000 0.70028  0.50000  0.03834  Biso   1.000  C
  C27      1.0000 0.70028  0.50000  0.96166  Biso   1.000  C
  C28      1.0000 0.29972  0.50000  0.96166  Biso   1.000  C
  C29      1.0000 0.03834  0.29972  0.50000  Biso   1.000  C
  C30      1.0000 0.03834  0.70028  0.50000  Biso   1.000  C
  C31      1.0000 0.96166  0.70028  0.50000  Biso   1.000  C
  C32      1.0000 0.96166  0.29972  0.50000  Biso   1.000  C
  C33      1.0000 0.50000  0.03834  0.29972  Biso   1.000  C
  C34      1.0000 0.50000  0.03834  0.70028  Biso   1.000  C
  C35      1.0000 0.50000  0.96166  0.70028  Biso   1.000  C
  C36      1.0000 0.50000  0.96166  0.29972  Biso   1.000  C
  C37      1.0000 0.50000  0.29972  0.96166  Biso   1.000  C
  C38      1.0000 0.50000  0.70028  0.96166  Biso   1.000  C
  C39      1.0000 0.50000  0.70028  0.03834  Biso   1.000  C
  C40      1.0000 0.50000  0.29972  0.03834  Biso   1.000  C
  C41      1.0000 0.29972  0.03834  0.50000  Biso   1.000  C
  C42      1.0000 0.70028  0.03834  0.50000  Biso   1.000  C
  C43      1.0000 0.70028  0.96166  0.50000  Biso   1.000  C
  C44      1.0000 0.29972  0.96166  0.50000  Biso   1.000  C
  C45      1.0000 0.03834  0.50000  0.70028  Biso   1.000  C
  C46      1.0000 0.03834  0.50000  0.29972  Biso   1.000  C
  C47      1.0000 0.96166  0.50000  0.29972  Biso   1.000  C
  C48      1.0000 0.96166  0.50000  0.70028  Biso   1.000  C
  C49      1.0000 0.79972  0.00000  0.53834  Biso   1.000  C
  C50      1.0000 0.20028  0.00000  0.53834  Biso   1.000  C
  C51      1.0000 0.20028  0.00000  0.46166  Biso   1.000  C
  C52      1.0000 0.79972  0.00000  0.46166  Biso   1.000  C
  C53      1.0000 0.53834  0.79972  0.00000  Biso   1.000  C
  C54      1.0000 0.53834  0.20028  0.00000  Biso   1.000  C
  C55      1.0000 0.46166  0.20028  0.00000  Biso   1.000  C
  C56      1.0000 0.46166  0.79972  0.00000  Biso   1.000  C
  C57      1.0000 0.00000  0.53834  0.79972  Biso   1.000  C
  C58      1.0000 0.00000  0.53834  0.20028  Biso   1.000  C
  C59      1.0000 0.00000  0.46166  0.20028  Biso   1.000  C
  C60      1.0000 0.00000  0.46166  0.79972  Biso   1.000  C
  C61      1.0000 0.00000  0.79972  0.46166  Biso   1.000  C
  C62      1.0000 0.00000  0.20028  0.46166  Biso   1.000  C
  C63      1.0000 0.00000  0.20028  0.53834  Biso   1.000  C
  C64      1.0000 0.00000  0.79972  0.53834  Biso   1.000  C
  C65      1.0000 0.79972  0.53834  0.00000  Biso   1.000  C
  C66      1.0000 0.20028  0.53834  0.00000  Biso   1.000  C
  C67      1.0000 0.20028  0.46166  0.00000  Biso   1.000  C
  C68      1.0000 0.79972  0.46166  0.00000  Biso   1.000  C
  C69      1.0000 0.53834  0.00000  0.20028  Biso   1.000  C
  C70      1.0000 0.53834  0.00000  0.79972  Biso   1.000  C
  C71      1.0000 0.46166  0.00000  0.79972  Biso   1.000  C
  C72      1.0000 0.46166  0.00000  0.20028  Biso   1.000  C
  C73      1.0000 0.34449  0.50000  0.03811  Biso   1.000  C
  C74      1.0000 0.65551  0.50000  0.03811  Biso   1.000  C
  C75      1.0000 0.65551  0.50000  0.96189  Biso   1.000  C
  C76      1.0000 0.34449  0.50000  0.96189  Biso   1.000  C
  C77      1.0000 0.03811  0.34449  0.50000  Biso   1.000  C
  C78      1.0000 0.03811  0.65551  0.50000  Biso   1.000  C
  C79      1.0000 0.96189  0.65551  0.50000  Biso   1.000  C
  C80      1.0000 0.96189  0.34449  0.50000  Biso   1.000  C
  C81      1.0000 0.50000  0.03811  0.34449  Biso   1.000  C
  C82      1.0000 0.50000  0.03811  0.65551  Biso   1.000  C
  C83      1.0000 0.50000  0.96189  0.65551  Biso   1.000  C
  C84      1.0000 0.50000  0.96189  0.34449  Biso   1.000  C
  C85      1.0000 0.50000  0.34449  0.96189  Biso   1.000  C
  C86      1.0000 0.50000  0.65551  0.96189  Biso   1.000  C
  C87      1.0000 0.50000  0.65551  0.03811  Biso   1.000  C
  C88      1.0000 0.50000  0.34449  0.03811  Biso   1.000  C
  C89      1.0000 0.34449  0.03811  0.50000  Biso   1.000  C
  C90      1.0000 0.65551  0.03811  0.50000  Biso   1.000  C
  C91      1.0000 0.65551  0.96189  0.50000  Biso   1.000  C
  C92      1.0000 0.34449  0.96189  0.50000  Biso   1.000  C
  C93      1.0000 0.03811  0.50000  0.65551  Biso   1.000  C
  C94      1.0000 0.03811  0.50000  0.34449  Biso   1.000  C
  C95      1.0000 0.96189  0.50000  0.34449  Biso   1.000  C
  C96      1.0000 0.96189  0.50000  0.65551  Biso   1.000  C
  C97      1.0000 0.84449  0.00000  0.53811  Biso   1.000  C
  C98      1.0000 0.15551  0.00000  0.53811  Biso   1.000  C
  C99      1.0000 0.15551  0.00000  0.46189  Biso   1.000  C
  C100     1.0000 0.84449  0.00000  0.46189  Biso   1.000  C
  C101     1.0000 0.53811  0.84449  0.00000  Biso   1.000  C
  C102     1.0000 0.53811  0.15551  0.00000  Biso   1.000  C
  C103     1.0000 0.46189  0.15551  0.00000  Biso   1.000  C
  C104     1.0000 0.46189  0.84449  0.00000  Biso   1.000  C
  C105     1.0000 0.00000  0.53811  0.84449  Biso   1.000  C
  C106     1.0000 0.00000  0.53811  0.15551  Biso   1.000  C
  C107     1.0000 0.00000  0.46189  0.15551  Biso   1.000  C
  C108     1.0000 0.00000  0.46189  0.84449  Biso   1.000  C
  C109     1.0000 0.00000  0.84449  0.46189  Biso   1.000  C
  C110     1.0000 0.00000  0.15551  0.46189  Biso   1.000  C
  C111     1.0000 0.00000  0.15551  0.53811  Biso   1.000  C
  C112     1.0000 0.00000  0.84449  0.53811  Biso   1.000  C
  C113     1.0000 0.84449  0.53811  0.00000  Biso   1.000  C
  C114     1.0000 0.15551  0.53811  0.00000  Biso   1.000  C
  C115     1.0000 0.15551  0.46189  0.00000  Biso   1.000  C
  C116     1.0000 0.84449  0.46189  0.00000  Biso   1.000  C
  C117     1.0000 0.53811  0.00000  0.15551  Biso   1.000  C
  C118     1.0000 0.53811  0.00000  0.84449  Biso   1.000  C
  C119     1.0000 0.46189  0.00000  0.84449  Biso   1.000  C
  C120     1.0000 0.46189  0.00000  0.15551  Biso   1.000  C
  H1       1.0000 0.35960  0.50000  0.06520  Biso   1.000  H
  H2       1.0000 0.64040  0.50000  0.06520  Biso   1.000  H
  H3       1.0000 0.64040  0.50000  0.93480  Biso   1.000  H
  H4       1.0000 0.35960  0.50000  0.93480  Biso   1.000  H
  H5       1.0000 0.06520  0.35960  0.50000  Biso   1.000  H
  H6       1.0000 0.06520  0.64040  0.50000  Biso   1.000  H
  H7       1.0000 0.93480  0.64040  0.50000  Biso   1.000  H
  H8       1.0000 0.93480  0.35960  0.50000  Biso   1.000  H
  H9       1.0000 0.50000  0.06520  0.35960  Biso   1.000  H
  H10      1.0000 0.50000  0.06520  0.64040  Biso   1.000  H
  H11      1.0000 0.50000  0.93480  0.64040  Biso   1.000  H
  H12      1.0000 0.50000  0.93480  0.35960  Biso   1.000  H
  H13      1.0000 0.50000  0.35960  0.93480  Biso   1.000  H
  H14      1.0000 0.50000  0.64040  0.93480  Biso   1.000  H
  H15      1.0000 0.50000  0.64040  0.06520  Biso   1.000  H
  H16      1.0000 0.50000  0.35960  0.06520  Biso   1.000  H
  H17      1.0000 0.35960  0.06520  0.50000  Biso   1.000  H
  H18      1.0000 0.64040  0.06520  0.50000  Biso   1.000  H
  H19      1.0000 0.64040  0.93480  0.50000  Biso   1.000  H
  H20      1.0000 0.35960  0.93480  0.50000  Biso   1.000  H
  H21      1.0000 0.06520  0.50000  0.64040  Biso   1.000  H
  H22      1.0000 0.06520  0.50000  0.35960  Biso   1.000  H
  H23      1.0000 0.93480  0.50000  0.35960  Biso   1.000  H
  H24      1.0000 0.93480  0.50000  0.64040  Biso   1.000  H
  H25      1.0000 0.85960  0.00000  0.56520  Biso   1.000  H
  H26      1.0000 0.14040  0.00000  0.56520  Biso   1.000  H
  H27      1.0000 0.14040  0.00000  0.43480  Biso   1.000  H
  H28      1.0000 0.85960  0.00000  0.43480  Biso   1.000  H
  H29      1.0000 0.56520  0.85960  0.00000  Biso   1.000  H
  H30      1.0000 0.56520  0.14040  0.00000  Biso   1.000  H
  H31      1.0000 0.43480  0.14040  0.00000  Biso   1.000  H
  H32      1.0000 0.43480  0.85960  0.00000  Biso   1.000  H
  H33      1.0000 0.00000  0.56520  0.85960  Biso   1.000  H
  H34      1.0000 0.00000  0.56520  0.14040  Biso   1.000  H
  H35      1.0000 0.00000  0.43480  0.14040  Biso   1.000  H
  H36      1.0000 0.00000  0.43480  0.85960  Biso   1.000  H
  H37      1.0000 0.00000  0.85960  0.43480  Biso   1.000  H
  H38      1.0000 0.00000  0.14040  0.43480  Biso   1.000  H
  H39      1.0000 0.00000  0.14040  0.56520  Biso   1.000  H
  H40      1.0000 0.00000  0.85960  0.56520  Biso   1.000  H
  H41      1.0000 0.85960  0.56520  0.00000  Biso   1.000  H
  H42      1.0000 0.14040  0.56520  0.00000  Biso   1.000  H
  H43      1.0000 0.14040  0.43480  0.00000  Biso   1.000  H
  H44      1.0000 0.85960  0.43480  0.00000  Biso   1.000  H
  H45      1.0000 0.56520  0.00000  0.14040  Biso   1.000  H
  H46      1.0000 0.56520  0.00000  0.85960  Biso   1.000  H
  H47      1.0000 0.43480  0.00000  0.85960  Biso   1.000  H
  H48      1.0000 0.43480  0.00000  0.14040  Biso   1.000  H
  C121     1.0000 0.36834  0.50000  0.00000  Biso   1.000  C
  C122     1.0000 0.63166  0.50000  0.00000  Biso   1.000  C
  C123     1.0000 0.00000  0.36834  0.50000  Biso   1.000  C
  C124     1.0000 0.00000  0.63166  0.50000  Biso   1.000  C
  C125     1.0000 0.50000  0.00000  0.36834  Biso   1.000  C
  C126     1.0000 0.50000  0.00000  0.63166  Biso   1.000  C
  C127     1.0000 0.50000  0.36834  0.00000  Biso   1.000  C
  C128     1.0000 0.50000  0.63166  0.00000  Biso   1.000  C
  C129     1.0000 0.36834  0.00000  0.50000  Biso   1.000  C
  C130     1.0000 0.63166  0.00000  0.50000  Biso   1.000  C
  C131     1.0000 0.00000  0.50000  0.63166  Biso   1.000  C
  C132     1.0000 0.00000  0.50000  0.36834  Biso   1.000  C
  C133     1.0000 0.86834  0.00000  0.50000  Biso   1.000  C
  C134     1.0000 0.13166  0.00000  0.50000  Biso   1.000  C
  C135     1.0000 0.50000  0.86834  0.00000  Biso   1.000  C
  C136     1.0000 0.50000  0.13166  0.00000  Biso   1.000  C
  C137     1.0000 0.00000  0.50000  0.86834  Biso   1.000  C
  C138     1.0000 0.00000  0.50000  0.13166  Biso   1.000  C
  C139     1.0000 0.00000  0.86834  0.50000  Biso   1.000  C
  C140     1.0000 0.00000  0.13166  0.50000  Biso   1.000  C
  C141     1.0000 0.86834  0.50000  0.00000  Biso   1.000  C
  C142     1.0000 0.13166  0.50000  0.00000  Biso   1.000  C
  C143     1.0000 0.50000  0.00000  0.13166  Biso   1.000  C
  C144     1.0000 0.50000  0.00000  0.86834  Biso   1.000  C
  C145     1.0000 0.41755  0.50000  0.00000  Biso   1.000  C
  C146     1.0000 0.58245  0.50000  0.00000  Biso   1.000  C
  C147     1.0000 0.00000  0.41755  0.50000  Biso   1.000  C
  C148     1.0000 0.00000  0.58245  0.50000  Biso   1.000  C
  C149     1.0000 0.50000  0.00000  0.41755  Biso   1.000  C
  C150     1.0000 0.50000  0.00000  0.58245  Biso   1.000  C
  C151     1.0000 0.50000  0.41755  0.00000  Biso   1.000  C
  C152     1.0000 0.50000  0.58245  0.00000  Biso   1.000  C
  C153     1.0000 0.41755  0.00000  0.50000  Biso   1.000  C
  C154     1.0000 0.58245  0.00000  0.50000  Biso   1.000  C
  C155     1.0000 0.00000  0.50000  0.58245  Biso   1.000  C
  C156     1.0000 0.00000  0.50000  0.41755  Biso   1.000  C
  C157     1.0000 0.91755  0.00000  0.50000  Biso   1.000  C
  C158     1.0000 0.08245  0.00000  0.50000  Biso   1.000  C
  C159     1.0000 0.50000  0.91755  0.00000  Biso   1.000  C
  C160     1.0000 0.50000  0.08245  0.00000  Biso   1.000  C
  C161     1.0000 0.00000  0.50000  0.91755  Biso   1.000  C
  C162     1.0000 0.00000  0.50000  0.08245  Biso   1.000  C
  C163     1.0000 0.00000  0.91755  0.50000  Biso   1.000  C
  C164     1.0000 0.00000  0.08245  0.50000  Biso   1.000  C
  C165     1.0000 0.91755  0.50000  0.00000  Biso   1.000  C
  C166     1.0000 0.08245  0.50000  0.00000  Biso   1.000  C
  C167     1.0000 0.50000  0.00000  0.08245  Biso   1.000  C
  C168     1.0000 0.50000  0.00000  0.91755  Biso   1.000  C
  N1       1.0000 0.27692  0.50000  0.08080  Biso   1.000  N
  N2       1.0000 0.72308  0.50000  0.08080  Biso   1.000  N
  N3       1.0000 0.72308  0.50000  0.91920  Biso   1.000  N
  N4       1.0000 0.27692  0.50000  0.91920  Biso   1.000  N
  N5       1.0000 0.08080  0.27692  0.50000  Biso   1.000  N
  N6       1.0000 0.08080  0.72308  0.50000  Biso   1.000  N
  N7       1.0000 0.91920  0.72308  0.50000  Biso   1.000  N
  N8       1.0000 0.91920  0.27692  0.50000  Biso   1.000  N
  N9       1.0000 0.50000  0.08080  0.27692  Biso   1.000  N
  N10      1.0000 0.50000  0.08080  0.72308  Biso   1.000  N
  N11      1.0000 0.50000  0.91920  0.72308  Biso   1.000  N
  N12      1.0000 0.50000  0.91920  0.27692  Biso   1.000  N
  N13      1.0000 0.50000  0.27692  0.91920  Biso   1.000  N
  N14      1.0000 0.50000  0.72308  0.91920  Biso   1.000  N
  N15      1.0000 0.50000  0.72308  0.08080  Biso   1.000  N
  N16      1.0000 0.50000  0.27692  0.08080  Biso   1.000  N
  N17      1.0000 0.27692  0.08080  0.50000  Biso   1.000  N
  N18      1.0000 0.72308  0.08080  0.50000  Biso   1.000  N
  N19      1.0000 0.72308  0.91920  0.50000  Biso   1.000  N
  N20      1.0000 0.27692  0.91920  0.50000  Biso   1.000  N
  N21      1.0000 0.08080  0.50000  0.72308  Biso   1.000  N
  N22      1.0000 0.08080  0.50000  0.27692  Biso   1.000  N
  N23      1.0000 0.91920  0.50000  0.27692  Biso   1.000  N
  N24      1.0000 0.91920  0.50000  0.72308  Biso   1.000  N
  N25      1.0000 0.77692  0.00000  0.58080  Biso   1.000  N
  N26      1.0000 0.22308  0.00000  0.58080  Biso   1.000  N
  N27      1.0000 0.22308  0.00000  0.41920  Biso   1.000  N
  N28      1.0000 0.77692  0.00000  0.41920  Biso   1.000  N
  N29      1.0000 0.58080  0.77692  0.00000  Biso   1.000  N
  N30      1.0000 0.58080  0.22308  0.00000  Biso   1.000  N
  N31      1.0000 0.41920  0.22308  0.00000  Biso   1.000  N
  N32      1.0000 0.41920  0.77692  0.00000  Biso   1.000  N
  N33      1.0000 0.00000  0.58080  0.77692  Biso   1.000  N
  N34      1.0000 0.00000  0.58080  0.22308  Biso   1.000  N
  N35      1.0000 0.00000  0.41920  0.22308  Biso   1.000  N
  N36      1.0000 0.00000  0.41920  0.77692  Biso   1.000  N
  N37      1.0000 0.00000  0.77692  0.41920  Biso   1.000  N
  N38      1.0000 0.00000  0.22308  0.41920  Biso   1.000  N
  N39      1.0000 0.00000  0.22308  0.58080  Biso   1.000  N
  N40      1.0000 0.00000  0.77692  0.58080  Biso   1.000  N
  N41      1.0000 0.77692  0.58080  0.00000  Biso   1.000  N
  N42      1.0000 0.22308  0.58080  0.00000  Biso   1.000  N
  N43      1.0000 0.22308  0.41920  0.00000  Biso   1.000  N
  N44      1.0000 0.77692  0.41920  0.00000  Biso   1.000  N
  N45      1.0000 0.58080  0.00000  0.22308  Biso   1.000  N
  N46      1.0000 0.58080  0.00000  0.77692  Biso   1.000  N
  N47      1.0000 0.41920  0.00000  0.77692  Biso   1.000  N
  N48      1.0000 0.41920  0.00000  0.22308  Biso   1.000  N
  O61      1.0000 0.24156  0.50000  0.08470  Biso   1.000  O
  O62      1.0000 0.75844  0.50000  0.08470  Biso   1.000  O
  O63      1.0000 0.75844  0.50000  0.91530  Biso   1.000  O
  O64      1.0000 0.24156  0.50000  0.91530  Biso   1.000  O
  O65      1.0000 0.08470  0.24156  0.50000  Biso   1.000  O
  O66      1.0000 0.08470  0.75844  0.50000  Biso   1.000  O
  O67      1.0000 0.91530  0.75844  0.50000  Biso   1.000  O
  O68      1.0000 0.91530  0.24156  0.50000  Biso   1.000  O
  O69      1.0000 0.50000  0.08470  0.24156  Biso   1.000  O
  O70      1.0000 0.50000  0.08470  0.75844  Biso   1.000  O
  O71      1.0000 0.50000  0.91530  0.75844  Biso   1.000  O
  O72      1.0000 0.50000  0.91530  0.24156  Biso   1.000  O
  O73      1.0000 0.50000  0.24156  0.91530  Biso   1.000  O
  O74      1.0000 0.50000  0.75844  0.91530  Biso   1.000  O
  O75      1.0000 0.50000  0.75844  0.08470  Biso   1.000  O
  O76      1.0000 0.50000  0.24156  0.08470  Biso   1.000  O
  O77      1.0000 0.24156  0.08470  0.50000  Biso   1.000  O
  O78      1.0000 0.75844  0.08470  0.50000  Biso   1.000  O
  O79      1.0000 0.75844  0.91530  0.50000  Biso   1.000  O
  O80      1.0000 0.24156  0.91530  0.50000  Biso   1.000  O
  O81      1.0000 0.08470  0.50000  0.75844  Biso   1.000  O
  O82      1.0000 0.08470  0.50000  0.24156  Biso   1.000  O
  O83      1.0000 0.91530  0.50000  0.24156  Biso   1.000  O
  O84      1.0000 0.91530  0.50000  0.75844  Biso   1.000  O
  O85      1.0000 0.74156  0.00000  0.58470  Biso   1.000  O
  O86      1.0000 0.25844  0.00000  0.58470  Biso   1.000  O
  O87      1.0000 0.25844  0.00000  0.41530  Biso   1.000  O
  O88      1.0000 0.74156  0.00000  0.41530  Biso   1.000  O
  O89      1.0000 0.58470  0.74156  0.00000  Biso   1.000  O
  O90      1.0000 0.58470  0.25844  0.00000  Biso   1.000  O
  O91      1.0000 0.41530  0.25844  0.00000  Biso   1.000  O
  O92      1.0000 0.41530  0.74156  0.00000  Biso   1.000  O
  O93      1.0000 0.00000  0.58470  0.74156  Biso   1.000  O
  O94      1.0000 0.00000  0.58470  0.25844  Biso   1.000  O
  O95      1.0000 0.00000  0.41530  0.25844  Biso   1.000  O
  O96      1.0000 0.00000  0.41530  0.74156  Biso   1.000  O
  O97      1.0000 0.00000  0.74156  0.41530  Biso   1.000  O
  O98      1.0000 0.00000  0.25844  0.41530  Biso   1.000  O
  O99      1.0000 0.00000  0.25844  0.58470  Biso   1.000  O
  O100     1.0000 0.00000  0.74156  0.58470  Biso   1.000  O
  O101     1.0000 0.74156  0.58470  0.00000  Biso   1.000  O
  O102     1.0000 0.25844  0.58470  0.00000  Biso   1.000  O
  O103     1.0000 0.25844  0.41530  0.00000  Biso   1.000  O
  O104     1.0000 0.74156  0.41530  0.00000  Biso   1.000  O
  O105     1.0000 0.58470  0.00000  0.25844  Biso   1.000  O
  O106     1.0000 0.58470  0.00000  0.74156  Biso   1.000  O
  O107     1.0000 0.41530  0.00000  0.74156  Biso   1.000  O
  O108     1.0000 0.41530  0.00000  0.25844  Biso   1.000  O
  O109     1.0000 0.29591  0.50000  0.11140  Biso   1.000  O
  O110     1.0000 0.70409  0.50000  0.11140  Biso   1.000  O
  O111     1.0000 0.70409  0.50000  0.88860  Biso   1.000  O
  O112     1.0000 0.29591  0.50000  0.88860  Biso   1.000  O
  O113     1.0000 0.11140  0.29591  0.50000  Biso   1.000  O
  O114     1.0000 0.11140  0.70409  0.50000  Biso   1.000  O
  O115     1.0000 0.88860  0.70409  0.50000  Biso   1.000  O
  O116     1.0000 0.88860  0.29591  0.50000  Biso   1.000  O
  O117     1.0000 0.50000  0.11140  0.29591  Biso   1.000  O
  O118     1.0000 0.50000  0.11140  0.70409  Biso   1.000  O
  O119     1.0000 0.50000  0.88860  0.70409  Biso   1.000  O
  O120     1.0000 0.50000  0.88860  0.29591  Biso   1.000  O
  O121     1.0000 0.50000  0.29591  0.88860  Biso   1.000  O
  O122     1.0000 0.50000  0.70409  0.88860  Biso   1.000  O
  O123     1.0000 0.50000  0.70409  0.11140  Biso   1.000  O
  O124     1.0000 0.50000  0.29591  0.11140  Biso   1.000  O
  O125     1.0000 0.29591  0.11140  0.50000  Biso   1.000  O
  O126     1.0000 0.70409  0.11140  0.50000  Biso   1.000  O
  O127     1.0000 0.70409  0.88860  0.50000  Biso   1.000  O
  O128     1.0000 0.29591  0.88860  0.50000  Biso   1.000  O
  O129     1.0000 0.11140  0.50000  0.70409  Biso   1.000  O
  O130     1.0000 0.11140  0.50000  0.29591  Biso   1.000  O
  O131     1.0000 0.88860  0.50000  0.29591  Biso   1.000  O
  O132     1.0000 0.88860  0.50000  0.70409  Biso   1.000  O
  O133     1.0000 0.79591  0.00000  0.61140  Biso   1.000  O
  O134     1.0000 0.20409  0.00000  0.61140  Biso   1.000  O
  O135     1.0000 0.20409  0.00000  0.38860  Biso   1.000  O
  O136     1.0000 0.79591  0.00000  0.38860  Biso   1.000  O
  O137     1.0000 0.61140  0.79591  0.00000  Biso   1.000  O
  O138     1.0000 0.61140  0.20409  0.00000  Biso   1.000  O
  O139     1.0000 0.38860  0.20409  0.00000  Biso   1.000  O
  O140     1.0000 0.38860  0.79591  0.00000  Biso   1.000  O
  O141     1.0000 0.00000  0.61140  0.79591  Biso   1.000  O
  O142     1.0000 0.00000  0.61140  0.20409  Biso   1.000  O
  O143     1.0000 0.00000  0.38860  0.20409  Biso   1.000  O
  O144     1.0000 0.00000  0.38860  0.79591  Biso   1.000  O
  O145     1.0000 0.00000  0.79591  0.38860  Biso   1.000  O
  O146     1.0000 0.00000  0.20409  0.38860  Biso   1.000  O
  O147     1.0000 0.00000  0.20409  0.61140  Biso   1.000  O
  O148     1.0000 0.00000  0.79591  0.61140  Biso   1.000  O
  O149     1.0000 0.79591  0.61140  0.00000  Biso   1.000  O
  O150     1.0000 0.20409  0.61140  0.00000  Biso   1.000  O
  O151     1.0000 0.20409  0.38860  0.00000  Biso   1.000  O
  O152     1.0000 0.79591  0.38860  0.00000  Biso   1.000  O
  O153     1.0000 0.61140  0.00000  0.20409  Biso   1.000  O
  O154     1.0000 0.61140  0.00000  0.79591  Biso   1.000  O
  O155     1.0000 0.38860  0.00000  0.79591  Biso   1.000  O
  O156     1.0000 0.38860  0.00000  0.20409  Biso   1.000  O
  H49      1.0000 0.48160  0.48160  0.12540  Biso   1.000  H
  H50      1.0000 0.51840  0.51840  0.12540  Biso   1.000  H
  H51      1.0000 0.51840  0.48160  0.87460  Biso   1.000  H
  H52      1.0000 0.48160  0.51840  0.87460  Biso   1.000  H
  H53      1.0000 0.12540  0.48160  0.48160  Biso   1.000  H
  H54      1.0000 0.12540  0.51840  0.51840  Biso   1.000  H
  H55      1.0000 0.87460  0.51840  0.48160  Biso   1.000  H
  H56      1.0000 0.87460  0.48160  0.51840  Biso   1.000  H
  H57      1.0000 0.48160  0.12540  0.48160  Biso   1.000  H
  H58      1.0000 0.51840  0.12540  0.51840  Biso   1.000  H
  H59      1.0000 0.48160  0.87460  0.51840  Biso   1.000  H
  H60      1.0000 0.51840  0.87460  0.48160  Biso   1.000  H
  H61      1.0000 0.48160  0.48160  0.87460  Biso   1.000  H
  H62      1.0000 0.51840  0.51840  0.87460  Biso   1.000  H
  H63      1.0000 0.48160  0.51840  0.12540  Biso   1.000  H
  H64      1.0000 0.51840  0.48160  0.12540  Biso   1.000  H
  H65      1.0000 0.48160  0.12540  0.51840  Biso   1.000  H
  H66      1.0000 0.51840  0.12540  0.48160  Biso   1.000  H
  H67      1.0000 0.51840  0.87460  0.51840  Biso   1.000  H
  H68      1.0000 0.48160  0.87460  0.48160  Biso   1.000  H
  H69      1.0000 0.12540  0.48160  0.51840  Biso   1.000  H
  H70      1.0000 0.12540  0.51840  0.48160  Biso   1.000  H
  H71      1.0000 0.87460  0.48160  0.48160  Biso   1.000  H
  H72      1.0000 0.87460  0.51840  0.51840  Biso   1.000  H
  H73      1.0000 0.98160  0.98160  0.62540  Biso   1.000  H
  H74      1.0000 0.01840  0.01840  0.62540  Biso   1.000  H
  H75      1.0000 0.01840  0.98160  0.37460  Biso   1.000  H
  H76      1.0000 0.98160  0.01840  0.37460  Biso   1.000  H
  H77      1.0000 0.62540  0.98160  0.98160  Biso   1.000  H
  H78      1.0000 0.62540  0.01840  0.01840  Biso   1.000  H
  H79      1.0000 0.37460  0.01840  0.98160  Biso   1.000  H
  H80      1.0000 0.37460  0.98160  0.01840  Biso   1.000  H
  H81      1.0000 0.98160  0.62540  0.98160  Biso   1.000  H
  H82      1.0000 0.01840  0.62540  0.01840  Biso   1.000  H
  H83      1.0000 0.98160  0.37460  0.01840  Biso   1.000  H
  H84      1.0000 0.01840  0.37460  0.98160  Biso   1.000  H
  H85      1.0000 0.98160  0.98160  0.37460  Biso   1.000  H
  H86      1.0000 0.01840  0.01840  0.37460  Biso   1.000  H
  H87      1.0000 0.98160  0.01840  0.62540  Biso   1.000  H
  H88      1.0000 0.01840  0.98160  0.62540  Biso   1.000  H
  H89      1.0000 0.98160  0.62540  0.01840  Biso   1.000  H
  H90      1.0000 0.01840  0.62540  0.98160  Biso   1.000  H
  H91      1.0000 0.01840  0.37460  0.01840  Biso   1.000  H
  H92      1.0000 0.98160  0.37460  0.98160  Biso   1.000  H
  H93      1.0000 0.62540  0.98160  0.01840  Biso   1.000  H
  H94      1.0000 0.62540  0.01840  0.98160  Biso   1.000  H
  H95      1.0000 0.37460  0.98160  0.98160  Biso   1.000  H
  H96      1.0000 0.37460  0.01840  0.01840  Biso   1.000  H
