data_image0
_cell_length_a       9.963
_cell_length_b       21.623
_cell_length_c       23.29
_cell_angle_alpha    90.025
_cell_angle_beta     90.011
_cell_angle_gamma    89.984

_symmetry_space_group_name_H-M    "P 1"
_symmetry_int_tables_number       1

loop_
  _symmetry_equiv_pos_as_xyz
  'x, y, z'

loop_
  _atom_site_label
  _atom_site_occupancy
  _atom_site_fract_x
  _atom_site_fract_y
  _atom_site_fract_z
  _atom_site_thermal_displace_type
  _atom_site_B_iso_or_equiv
  _atom_site_type_symbol
  Cu1      1.0000 0.00424  0.83142  0.27016  Biso   1.000  Cu
  Cu2      1.0000 0.99576  0.16858  0.72984  Biso   1.000  Cu
  Cu3      1.0000 0.98681  0.70487  0.20529  Biso   1.000  Cu
  Cu4      1.0000 0.01319  0.29513  0.79471  Biso   1.000  Cu
  Cu5      1.0000 0.41931  0.00888  0.05725  Biso   1.000  Cu
  Cu6      1.0000 0.58069  0.99112  0.94275  Biso   1.000  Cu
  Cu7      1.0000 0.48656  0.20492  0.29469  Biso   1.000  Cu
  Cu8      1.0000 0.51344  0.79508  0.70531  Biso   1.000  Cu
  Cu9      1.0000 0.50419  0.33145  0.22983  Biso   1.000  Cu
  Cu10     1.0000 0.49581  0.66855  0.77017  Biso   1.000  Cu
  Cu11     1.0000 0.91921  0.50884  0.44279  Biso   1.000  Cu
  Cu12     1.0000 0.08079  0.49116  0.55721  Biso   1.000  Cu
  Co1      1.0000 0.74576  0.02190  0.21663  Biso   1.000  Co
  Co2      1.0000 0.25424  0.97810  0.78337  Biso   1.000  Co
  Co3      1.0000 0.24578  0.52189  0.28338  Biso   1.000  Co
  Co4      1.0000 0.75422  0.47811  0.71662  Biso   1.000  Co
  O1       1.0000 0.10930  0.77560  0.21970  Biso   1.000  O
  O2       1.0000 0.89070  0.22440  0.78030  Biso   1.000  O
  O3       1.0000 0.88220  0.76030  0.25630  Biso   1.000  O
  O4       1.0000 0.11780  0.23970  0.74370  Biso   1.000  O
  O5       1.0000 0.54320  0.05290  0.00460  Biso   1.000  O
  O6       1.0000 0.45680  0.94710  0.99540  Biso   1.000  O
  O7       1.0000 0.38180  0.26030  0.24380  Biso   1.000  O
  O8       1.0000 0.61820  0.73970  0.75620  Biso   1.000  O
  O9       1.0000 0.60890  0.27560  0.28030  Biso   1.000  O
  O10      1.0000 0.39110  0.72440  0.71970  Biso   1.000  O
  O11      1.0000 0.04350  0.55270  0.49560  Biso   1.000  O
  O12      1.0000 0.95650  0.44730  0.50440  Biso   1.000  O
  O13      1.0000 0.95610  0.76630  0.08600  Biso   1.000  O
  O14      1.0000 0.04390  0.23370  0.91400  Biso   1.000  O
  O15      1.0000 0.45530  0.26660  0.41410  Biso   1.000  O
  O16      1.0000 0.54470  0.73340  0.58590  Biso   1.000  O
  O17      1.0000 0.16780  0.11690  0.49130  Biso   1.000  O
  O18      1.0000 0.83220  0.88310  0.50870  Biso   1.000  O
  O19      1.0000 0.50600  0.07030  0.55460  Biso   1.000  O
  O20      1.0000 0.49400  0.92970  0.44540  Biso   1.000  O
  O21      1.0000 0.94760  0.08430  0.43330  Biso   1.000  O
  O22      1.0000 0.05240  0.91570  0.56670  Biso   1.000  O
  O23      1.0000 0.33290  0.38270  0.99230  Biso   1.000  O
  O24      1.0000 0.66710  0.61730  0.00770  Biso   1.000  O
  O25      1.0000 0.92040  0.41680  0.10020  Biso   1.000  O
  O26      1.0000 0.07960  0.58320  0.89980  Biso   1.000  O
  O27      1.0000 0.55080  0.41650  0.93390  Biso   1.000  O
  O28      1.0000 0.44920  0.58350  0.06610  Biso   1.000  O
  N1       1.0000 0.15990  0.88640  0.28260  Biso   1.000  N
  N2       1.0000 0.84010  0.11360  0.71740  Biso   1.000  N
  N3       1.0000 0.89460  0.86110  0.33580  Biso   1.000  N
  N4       1.0000 0.10540  0.13890  0.66420  Biso   1.000  N
  N5       1.0000 0.82740  0.65250  0.18870  Biso   1.000  N
  N6       1.0000 0.17260  0.34750  0.81130  Biso   1.000  N
  N7       1.0000 0.10900  0.66650  0.14960  Biso   1.000  N
  N8       1.0000 0.89100  0.33350  0.85040  Biso   1.000  N
  N9       1.0000 0.37950  0.08580  0.10100  Biso   1.000  N
  N10      1.0000 0.62050  0.91420  0.89900  Biso   1.000  N
  N11      1.0000 0.27010  0.95940  0.08890  Biso   1.000  N
  N12      1.0000 0.72990  0.04060  0.91110  Biso   1.000  N
  N13      1.0000 0.32780  0.15280  0.31160  Biso   1.000  N
  N14      1.0000 0.67220  0.84720  0.68840  Biso   1.000  N
  N15      1.0000 0.60920  0.16640  0.35040  Biso   1.000  N
  N16      1.0000 0.39080  0.83360  0.64960  Biso   1.000  N
  N17      1.0000 0.65890  0.38650  0.21720  Biso   1.000  N
  N18      1.0000 0.34110  0.61350  0.78280  Biso   1.000  N
  N19      1.0000 0.39360  0.36110  0.16410  Biso   1.000  N
  N20      1.0000 0.60640  0.63890  0.83590  Biso   1.000  N
  N21      1.0000 0.87990  0.58600  0.39890  Biso   1.000  N
  N22      1.0000 0.12010  0.41400  0.60110  Biso   1.000  N
  N23      1.0000 0.76960  0.45890  0.41140  Biso   1.000  N
  N24      1.0000 0.23040  0.54110  0.58860  Biso   1.000  N
  N25      1.0000 0.91130  0.90310  0.21200  Biso   1.000  N
  N26      1.0000 0.08870  0.09690  0.78800  Biso   1.000  N
  N27      1.0000 0.57380  0.97710  0.11740  Biso   1.000  N
  N28      1.0000 0.42620  0.02290  0.88260  Biso   1.000  N
  N29      1.0000 0.57000  0.13780  0.22590  Biso   1.000  N
  N30      1.0000 0.43000  0.86220  0.77410  Biso   1.000  N
  N31      1.0000 0.56390  0.95890  0.30430  Biso   1.000  N
  N32      1.0000 0.43610  0.04110  0.69570  Biso   1.000  N
  N33      1.0000 0.91780  0.07090  0.31550  Biso   1.000  N
  N34      1.0000 0.08220  0.92910  0.68450  Biso   1.000  N
  N35      1.0000 0.92730  0.08300  0.12740  Biso   1.000  N
  N36      1.0000 0.07270  0.91700  0.87260  Biso   1.000  N
  N37      1.0000 0.41060  0.40350  0.28810  Biso   1.000  N
  N38      1.0000 0.58940  0.59650  0.71190  Biso   1.000  N
  N39      1.0000 0.07360  0.47690  0.38260  Biso   1.000  N
  N40      1.0000 0.92640  0.52310  0.61740  Biso   1.000  N
  N41      1.0000 0.06360  0.45920  0.19580  Biso   1.000  N
  N42      1.0000 0.93640  0.54080  0.80420  Biso   1.000  N
  N43      1.0000 0.07110  0.63800  0.27410  Biso   1.000  N
  N44      1.0000 0.92890  0.36200  0.72590  Biso   1.000  N
  N45      1.0000 0.42670  0.58260  0.37240  Biso   1.000  N
  N46      1.0000 0.57330  0.41740  0.62760  Biso   1.000  N
  N47      1.0000 0.41760  0.57100  0.18440  Biso   1.000  N
  N48      1.0000 0.58240  0.42900  0.81560  Biso   1.000  N
  N49      1.0000 0.91350  0.85250  0.03370  Biso   1.000  N
  N50      1.0000 0.08650  0.14750  0.96630  Biso   1.000  N
  N51      1.0000 0.41350  0.35280  0.46620  Biso   1.000  N
  N52      1.0000 0.58650  0.64720  0.53380  Biso   1.000  N
  C1       1.0000 0.34280  0.73070  0.33570  Biso   1.000  C
  C2       1.0000 0.65720  0.26930  0.66430  Biso   1.000  C
  C3       1.0000 0.48570  0.73900  0.31460  Biso   1.000  C
  C4       1.0000 0.51430  0.26100  0.68540  Biso   1.000  C
  C5       1.0000 0.56920  0.78420  0.33680  Biso   1.000  C
  C6       1.0000 0.43080  0.21580  0.66320  Biso   1.000  C
  C7       1.0000 0.70320  0.79250  0.31810  Biso   1.000  C
  C8       1.0000 0.29680  0.20750  0.68190  Biso   1.000  C
  C9       1.0000 0.75660  0.75360  0.27490  Biso   1.000  C
  C10      1.0000 0.24340  0.24640  0.72510  Biso   1.000  C
  C11      1.0000 0.67100  0.70660  0.25280  Biso   1.000  C
  C12      1.0000 0.32900  0.29340  0.74720  Biso   1.000  C
  C13      1.0000 0.53980  0.70070  0.27330  Biso   1.000  C
  C14      1.0000 0.46020  0.29930  0.72670  Biso   1.000  C
  C15      1.0000 0.77580  0.84110  0.34560  Biso   1.000  C
  C16      1.0000 0.22420  0.15890  0.65440  Biso   1.000  C
  C17      1.0000 0.92940  0.91590  0.37050  Biso   1.000  C
  C18      1.0000 0.07060  0.08410  0.62950  Biso   1.000  C
  C19      1.0000 0.08070  0.92570  0.37570  Biso   1.000  C
  C20      1.0000 0.91930  0.07430  0.62430  Biso   1.000  C
  C21      1.0000 0.14600  0.94150  0.31920  Biso   1.000  C
  C22      1.0000 0.85400  0.05850  0.68080  Biso   1.000  C
  C23      1.0000 0.27330  0.88130  0.25770  Biso   1.000  C
  C24      1.0000 0.72670  0.11870  0.74230  Biso   1.000  C
  C25      1.0000 0.63670  0.81390  0.13040  Biso   1.000  C
  C26      1.0000 0.36330  0.18610  0.86960  Biso   1.000  C
  C27      1.0000 0.49900  0.80320  0.15450  Biso   1.000  C
  C28      1.0000 0.50100  0.19680  0.84550  Biso   1.000  C
  C29      1.0000 0.42210  0.75150  0.13900  Biso   1.000  C
  C30      1.0000 0.57790  0.24850  0.86100  Biso   1.000  C
  C31      1.0000 0.29110  0.74190  0.16030  Biso   1.000  C
  C32      1.0000 0.70890  0.25810  0.83970  Biso   1.000  C
  C33      1.0000 0.23320  0.78340  0.19950  Biso   1.000  C
  C34      1.0000 0.76680  0.21660  0.80050  Biso   1.000  C
  C35      1.0000 0.31370  0.83510  0.21680  Biso   1.000  C
  C36      1.0000 0.68630  0.16490  0.78320  Biso   1.000  C
  C37      1.0000 0.44360  0.84240  0.19410  Biso   1.000  C
  C38      1.0000 0.55640  0.15760  0.80590  Biso   1.000  C
  C39      1.0000 0.22620  0.68690  0.13820  Biso   1.000  C
  C40      1.0000 0.77380  0.31310  0.86180  Biso   1.000  C
  C41      1.0000 0.07490  0.60730  0.11980  Biso   1.000  C
  C42      1.0000 0.92510  0.39270  0.88020  Biso   1.000  C
  C43      1.0000 0.93170  0.60550  0.10120  Biso   1.000  C
  C44      1.0000 0.06830  0.39450  0.89880  Biso   1.000  C
  C45      1.0000 0.84040  0.59710  0.15100  Biso   1.000  C
  C46      1.0000 0.15960  0.40290  0.84900  Biso   1.000  C
  C47      1.0000 0.71140  0.66150  0.21110  Biso   1.000  C
  C48      1.0000 0.28860  0.33850  0.78890  Biso   1.000  C
  C49      1.0000 0.74780  0.29880  0.02170  Biso   1.000  C
  C50      1.0000 0.25220  0.70120  0.97830  Biso   1.000  C
  C51      1.0000 0.69310  0.23310  0.01830  Biso   1.000  C
  C52      1.0000 0.30690  0.76690  0.98170  Biso   1.000  C
  C53      1.0000 0.59880  0.21110  0.05570  Biso   1.000  C
  C54      1.0000 0.40120  0.78890  0.94430  Biso   1.000  C
  C55      1.0000 0.54630  0.15070  0.05250  Biso   1.000  C
  C56      1.0000 0.45370  0.84930  0.94750  Biso   1.000  C
  C57      1.0000 0.59090  0.10980  0.00930  Biso   1.000  C
  C58      1.0000 0.40910  0.89020  0.99070  Biso   1.000  C
  C59      1.0000 0.68940  0.13280  0.97110  Biso   1.000  C
  C60      1.0000 0.31060  0.86720  0.02890  Biso   1.000  C
  C61      1.0000 0.73790  0.19270  0.97620  Biso   1.000  C
  C62      1.0000 0.26210  0.80730  0.02380  Biso   1.000  C
  C63      1.0000 0.44560  0.13560  0.09550  Biso   1.000  C
  C64      1.0000 0.55440  0.86440  0.90450  Biso   1.000  C
  C65      1.0000 0.28050  0.08700  0.14920  Biso   1.000  C
  C66      1.0000 0.71950  0.91300  0.85080  Biso   1.000  C
  C67      1.0000 0.25440  0.02600  0.17600  Biso   1.000  C
  C68      1.0000 0.74560  0.97400  0.82400  Biso   1.000  C
  C69      1.0000 0.18250  0.98290  0.13510  Biso   1.000  C
  C70      1.0000 0.81750  0.01710  0.86490  Biso   1.000  C
  C71      1.0000 0.75060  0.09740  0.92570  Biso   1.000  C
  C72      1.0000 0.24940  0.90260  0.07430  Biso   1.000  C
  C73      1.0000 0.13680  0.31320  0.37000  Biso   1.000  C
  C74      1.0000 0.86320  0.68680  0.63000  Biso   1.000  C
  C75      1.0000 0.99940  0.30300  0.34530  Biso   1.000  C
  C76      1.0000 0.00060  0.69700  0.65470  Biso   1.000  C
  C77      1.0000 0.92150  0.25170  0.36110  Biso   1.000  C
  C78      1.0000 0.07850  0.74830  0.63890  Biso   1.000  C
  C79      1.0000 0.79170  0.24180  0.33950  Biso   1.000  C
  C80      1.0000 0.20830  0.75820  0.66050  Biso   1.000  C
  C81      1.0000 0.73350  0.28300  0.30050  Biso   1.000  C
  C82      1.0000 0.26650  0.71700  0.69950  Biso   1.000  C
  C83      1.0000 0.81420  0.33480  0.28290  Biso   1.000  C
  C84      1.0000 0.18580  0.66520  0.71710  Biso   1.000  C
  C85      1.0000 0.94250  0.34250  0.30590  Biso   1.000  C
  C86      1.0000 0.05750  0.65750  0.69410  Biso   1.000  C
  C87      1.0000 0.72690  0.18670  0.36150  Biso   1.000  C
  C88      1.0000 0.27310  0.81330  0.63850  Biso   1.000  C
  C89      1.0000 0.57570  0.10740  0.37960  Biso   1.000  C
  C90      1.0000 0.42430  0.89260  0.62040  Biso   1.000  C
  C91      1.0000 0.43190  0.10570  0.39860  Biso   1.000  C
  C92      1.0000 0.56810  0.89430  0.60140  Biso   1.000  C
  C93      1.0000 0.34010  0.09720  0.34850  Biso   1.000  C
  C94      1.0000 0.65990  0.90280  0.65150  Biso   1.000  C
  C95      1.0000 0.21090  0.16160  0.28910  Biso   1.000  C
  C96      1.0000 0.78910  0.83840  0.71090  Biso   1.000  C
  C97      1.0000 0.84370  0.23070  0.16440  Biso   1.000  C
  C98      1.0000 0.15630  0.76930  0.83560  Biso   1.000  C
  C99      1.0000 0.98540  0.23910  0.18500  Biso   1.000  C
  C100     1.0000 0.01460  0.76090  0.81500  Biso   1.000  C
  C101     1.0000 0.07050  0.28390  0.16350  Biso   1.000  C
  C102     1.0000 0.92950  0.71610  0.83650  Biso   1.000  C
  C103     1.0000 0.20360  0.29230  0.18180  Biso   1.000  C
  C104     1.0000 0.79640  0.70770  0.81820  Biso   1.000  C
  C105     1.0000 0.25700  0.25350  0.22540  Biso   1.000  C
  C106     1.0000 0.74300  0.74650  0.77460  Biso   1.000  C
  C107     1.0000 0.17130  0.20660  0.24740  Biso   1.000  C
  C108     1.0000 0.82870  0.79340  0.75260  Biso   1.000  C
  C109     1.0000 0.03920  0.20070  0.22680  Biso   1.000  C
  C110     1.0000 0.96080  0.79930  0.77320  Biso   1.000  C
  C111     1.0000 0.27530  0.34150  0.15440  Biso   1.000  C
  C112     1.0000 0.72470  0.65850  0.84560  Biso   1.000  C
  C113     1.0000 0.42990  0.41600  0.12950  Biso   1.000  C
  C114     1.0000 0.57010  0.58400  0.87050  Biso   1.000  C
  C115     1.0000 0.58050  0.42590  0.12390  Biso   1.000  C
  C116     1.0000 0.41950  0.57410  0.87610  Biso   1.000  C
  C117     1.0000 0.64620  0.44150  0.18070  Biso   1.000  C
  C118     1.0000 0.35380  0.55850  0.81930  Biso   1.000  C
  C119     1.0000 0.77250  0.38110  0.24230  Biso   1.000  C
  C120     1.0000 0.22750  0.61890  0.75770  Biso   1.000  C
  C121     1.0000 0.24910  0.79880  0.47830  Biso   1.000  C
  C122     1.0000 0.75090  0.20120  0.52170  Biso   1.000  C
  C123     1.0000 0.19200  0.73330  0.48180  Biso   1.000  C
  C124     1.0000 0.80800  0.26670  0.51820  Biso   1.000  C
  C125     1.0000 0.09930  0.71170  0.44380  Biso   1.000  C
  C126     1.0000 0.90070  0.28830  0.55620  Biso   1.000  C
  C127     1.0000 0.04620  0.65060  0.44720  Biso   1.000  C
  C128     1.0000 0.95380  0.34940  0.55280  Biso   1.000  C
  C129     1.0000 0.09100  0.60960  0.49070  Biso   1.000  C
  C130     1.0000 0.90900  0.39040  0.50930  Biso   1.000  C
  C131     1.0000 0.18940  0.63240  0.52910  Biso   1.000  C
  C132     1.0000 0.81060  0.36760  0.47090  Biso   1.000  C
  C133     1.0000 0.23880  0.69300  0.52370  Biso   1.000  C
  C134     1.0000 0.76120  0.30700  0.47630  Biso   1.000  C
  C135     1.0000 0.94590  0.63500  0.40430  Biso   1.000  C
  C136     1.0000 0.05410  0.36500  0.59570  Biso   1.000  C
  C137     1.0000 0.78080  0.58670  0.35080  Biso   1.000  C
  C138     1.0000 0.21920  0.41330  0.64920  Biso   1.000  C
  C139     1.0000 0.75380  0.52570  0.32410  Biso   1.000  C
  C140     1.0000 0.24620  0.47430  0.67590  Biso   1.000  C
  C141     1.0000 0.68130  0.48270  0.36520  Biso   1.000  C
  C142     1.0000 0.31870  0.51730  0.63480  Biso   1.000  C
  C143     1.0000 0.25120  0.59700  0.57450  Biso   1.000  C
  C144     1.0000 0.74880  0.40300  0.42550  Biso   1.000  C
  C145     1.0000 0.85080  0.94820  0.21280  Biso   1.000  C
  C146     1.0000 0.14920  0.05180  0.78720  Biso   1.000  C
  C147     1.0000 0.63920  0.99290  0.15520  Biso   1.000  C
  C148     1.0000 0.36080  0.00710  0.84480  Biso   1.000  C
  C149     1.0000 0.63700  0.09470  0.22110  Biso   1.000  C
  C150     1.0000 0.36300  0.90530  0.77890  Biso   1.000  C
  C151     1.0000 0.63150  0.98220  0.27120  Biso   1.000  C
  C152     1.0000 0.36850  0.01780  0.72880  Biso   1.000  C
  C153     1.0000 0.85400  0.05260  0.27780  Biso   1.000  C
  C154     1.0000 0.14600  0.94740  0.72220  Biso   1.000  C
  C155     1.0000 0.85950  0.06040  0.16130  Biso   1.000  C
  C156     1.0000 0.14050  0.93960  0.83870  Biso   1.000  C
  C157     1.0000 0.35030  0.44830  0.28670  Biso   1.000  C
  C158     1.0000 0.64970  0.55170  0.71330  Biso   1.000  C
  C159     1.0000 0.13820  0.49310  0.34450  Biso   1.000  C
  C160     1.0000 0.86180  0.50690  0.65550  Biso   1.000  C
  C161     1.0000 0.13160  0.48250  0.22870  Biso   1.000  C
  C162     1.0000 0.86840  0.51750  0.77130  Biso   1.000  C
  C163     1.0000 0.13730  0.59440  0.27890  Biso   1.000  C
  C164     1.0000 0.86270  0.40560  0.72110  Biso   1.000  C
  C165     1.0000 0.35990  0.56050  0.33860  Biso   1.000  C
  C166     1.0000 0.64010  0.43950  0.66140  Biso   1.000  C
  C167     1.0000 0.35380  0.55280  0.22230  Biso   1.000  C
  C168     1.0000 0.64620  0.44720  0.77770  Biso   1.000  C
  C169     1.0000 0.93000  0.82120  0.08180  Biso   1.000  C
  C170     1.0000 0.07000  0.17880  0.91820  Biso   1.000  C
  C171     1.0000 0.87610  0.91730  0.03440  Biso   1.000  C
  C172     1.0000 0.12390  0.08270  0.96560  Biso   1.000  C
  C173     1.0000 0.91780  0.82250  0.97870  Biso   1.000  C
  C174     1.0000 0.08220  0.17750  0.02130  Biso   1.000  C
  C175     1.0000 0.43070  0.32150  0.41810  Biso   1.000  C
  C176     1.0000 0.56930  0.67850  0.58190  Biso   1.000  C
  C177     1.0000 0.37630  0.41660  0.46430  Biso   1.000  C
  C178     1.0000 0.62370  0.58340  0.53570  Biso   1.000  C
  C179     1.0000 0.41940  0.32270  0.52130  Biso   1.000  C
  C180     1.0000 0.58060  0.67730  0.47870  Biso   1.000  C
  C181     1.0000 0.17400  0.18330  0.49180  Biso   1.000  C
  C182     1.0000 0.82600  0.81670  0.50820  Biso   1.000  C
  C183     1.0000 0.57840  0.08460  0.60050  Biso   1.000  C
  C184     1.0000 0.42160  0.91540  0.39950  Biso   1.000  C
  C185     1.0000 0.86700  0.04180  0.46060  Biso   1.000  C
  C186     1.0000 0.13300  0.95820  0.53940  Biso   1.000  C
  C187     1.0000 0.32700  0.31610  0.99370  Biso   1.000  C
  C188     1.0000 0.67300  0.68390  0.00630  Biso   1.000  C
  C189     1.0000 0.99100  0.42840  0.05340  Biso   1.000  C
  C190     1.0000 0.00900  0.57160  0.94660  Biso   1.000  C
  C191     1.0000 0.63700  0.46010  0.96060  Biso   1.000  C
  C192     1.0000 0.36300  0.53990  0.03940  Biso   1.000  C
  H1       1.0000 0.33180  0.69050  0.35150  Biso   1.000  H
  H2       1.0000 0.66820  0.30950  0.64850  Biso   1.000  H
  H3       1.0000 0.32200  0.76090  0.36350  Biso   1.000  H
  H4       1.0000 0.67800  0.23910  0.63650  Biso   1.000  H
  H5       1.0000 0.28200  0.73510  0.30380  Biso   1.000  H
  H6       1.0000 0.71800  0.26490  0.69620  Biso   1.000  H
  H7       1.0000 0.53550  0.81110  0.36630  Biso   1.000  H
  H8       1.0000 0.46450  0.18890  0.63370  Biso   1.000  H
  H9       1.0000 0.48400  0.66890  0.25760  Biso   1.000  H
  H10      1.0000 0.51600  0.33110  0.74240  Biso   1.000  H
  H11      1.0000 0.72820  0.86140  0.37580  Biso   1.000  H
  H12      1.0000 0.27180  0.13860  0.62420  Biso   1.000  H
  H13      1.0000 0.89270  0.91110  0.40810  Biso   1.000  H
  H14      1.0000 0.10730  0.08890  0.59190  Biso   1.000  H
  H15      1.0000 0.89210  0.95140  0.35300  Biso   1.000  H
  H16      1.0000 0.10790  0.04860  0.64700  Biso   1.000  H
  H17      1.0000 0.11930  0.88800  0.39030  Biso   1.000  H
  H18      1.0000 0.88070  0.11200  0.60970  Biso   1.000  H
  H19      1.0000 0.09650  0.95760  0.40290  Biso   1.000  H
  H20      1.0000 0.90350  0.04240  0.59710  Biso   1.000  H
  H21      1.0000 0.23230  0.95880  0.32610  Biso   1.000  H
  H22      1.0000 0.76770  0.04120  0.67390  Biso   1.000  H
  H23      1.0000 0.09190  0.97130  0.29970  Biso   1.000  H
  H24      1.0000 0.90810  0.02870  0.70030  Biso   1.000  H
  H25      1.0000 0.33890  0.91170  0.26690  Biso   1.000  H
  H26      1.0000 0.66110  0.08830  0.73310  Biso   1.000  H
  H27      1.0000 0.70230  0.81300  0.15950  Biso   1.000  H
  H28      1.0000 0.29770  0.18700  0.84050  Biso   1.000  H
  H29      1.0000 0.64030  0.85210  0.11040  Biso   1.000  H
  H30      1.0000 0.35970  0.14790  0.88960  Biso   1.000  H
  H31      1.0000 0.65800  0.78120  0.10280  Biso   1.000  H
  H32      1.0000 0.34200  0.21880  0.89720  Biso   1.000  H
  H33      1.0000 0.45860  0.72090  0.11310  Biso   1.000  H
  H34      1.0000 0.54140  0.27910  0.88690  Biso   1.000  H
  H35      1.0000 0.49530  0.87670  0.20770  Biso   1.000  H
  H36      1.0000 0.50470  0.12330  0.79230  Biso   1.000  H
  H37      1.0000 0.27750  0.66250  0.11180  Biso   1.000  H
  H38      1.0000 0.72250  0.33750  0.88820  Biso   1.000  H
  H39      1.0000 0.09380  0.57390  0.14520  Biso   1.000  H
  H40      1.0000 0.90620  0.42610  0.85480  Biso   1.000  H
  H41      1.0000 0.13220  0.60360  0.08690  Biso   1.000  H
  H42      1.0000 0.86780  0.39640  0.91310  Biso   1.000  H
  H43      1.0000 0.91790  0.57210  0.07500  Biso   1.000  H
  H44      1.0000 0.08210  0.42790  0.92500  Biso   1.000  H
  H45      1.0000 0.90760  0.64320  0.08290  Biso   1.000  H
  H46      1.0000 0.09240  0.35680  0.91710  Biso   1.000  H
  H47      1.0000 0.75260  0.58550  0.13790  Biso   1.000  H
  H48      1.0000 0.24740  0.41450  0.86210  Biso   1.000  H
  H49      1.0000 0.87370  0.56320  0.17430  Biso   1.000  H
  H50      1.0000 0.12630  0.43680  0.82570  Biso   1.000  H
  H51      1.0000 0.64130  0.63450  0.19780  Biso   1.000  H
  H52      1.0000 0.35870  0.36550  0.80220  Biso   1.000  H
  H53      1.0000 0.84380  0.29770  0.02700  Biso   1.000  H
  H54      1.0000 0.15620  0.70230  0.97300  Biso   1.000  H
  H55      1.0000 0.70890  0.32020  0.05290  Biso   1.000  H
  H56      1.0000 0.29110  0.67980  0.94710  Biso   1.000  H
  H57      1.0000 0.72940  0.32030  0.98690  Biso   1.000  H
  H58      1.0000 0.27060  0.67970  0.01310  Biso   1.000  H
  H59      1.0000 0.56640  0.23760  0.08540  Biso   1.000  H
  H60      1.0000 0.43360  0.76240  0.91460  Biso   1.000  H
  H61      1.0000 0.80360  0.20690  0.94990  Biso   1.000  H
  H62      1.0000 0.19640  0.79310  0.05010  Biso   1.000  H
  H63      1.0000 0.42760  0.16700  0.12360  Biso   1.000  H
  H64      1.0000 0.57240  0.83300  0.87640  Biso   1.000  H
  H65      1.0000 0.31250  0.11520  0.17780  Biso   1.000  H
  H66      1.0000 0.68750  0.88480  0.82220  Biso   1.000  H
  H67      1.0000 0.19720  0.10270  0.13460  Biso   1.000  H
  H68      1.0000 0.80280  0.89730  0.86540  Biso   1.000  H
  H69      1.0000 0.33930  0.00770  0.18660  Biso   1.000  H
  H70      1.0000 0.66070  0.99230  0.81340  Biso   1.000  H
  H71      1.0000 0.20310  0.03140  0.21030  Biso   1.000  H
  H72      1.0000 0.79690  0.96860  0.78970  Biso   1.000  H
  H73      1.0000 0.14630  0.94870  0.15580  Biso   1.000  H
  H74      1.0000 0.85370  0.05130  0.84420  Biso   1.000  H
  H75      1.0000 0.10900  0.00510  0.11790  Biso   1.000  H
  H76      1.0000 0.89100  0.99490  0.88210  Biso   1.000  H
  H77      1.0000 0.81650  0.11890  0.90360  Biso   1.000  H
  H78      1.0000 0.18350  0.88110  0.09640  Biso   1.000  H
  H79      1.0000 0.20150  0.31380  0.34030  Biso   1.000  H
  H80      1.0000 0.79850  0.68620  0.65970  Biso   1.000  H
  H81      1.0000 0.13870  0.35180  0.39010  Biso   1.000  H
  H82      1.0000 0.86130  0.64820  0.60990  Biso   1.000  H
  H83      1.0000 0.15780  0.28090  0.39650  Biso   1.000  H
  H84      1.0000 0.84220  0.71910  0.60350  Biso   1.000  H
  H85      1.0000 0.95720  0.22180  0.38800  Biso   1.000  H
  H86      1.0000 0.04280  0.77820  0.61200  Biso   1.000  H
  H87      1.0000 0.99370  0.37710  0.29320  Biso   1.000  H
  H88      1.0000 0.00630  0.62290  0.70680  Biso   1.000  H
  H89      1.0000 0.77850  0.16180  0.38770  Biso   1.000  H
  H90      1.0000 0.22150  0.83820  0.61230  Biso   1.000  H
  H91      1.0000 0.59250  0.07410  0.35400  Biso   1.000  H
  H92      1.0000 0.40750  0.92590  0.64600  Biso   1.000  H
  H93      1.0000 0.63330  0.10290  0.41250  Biso   1.000  H
  H94      1.0000 0.36670  0.89710  0.58750  Biso   1.000  H
  H95      1.0000 0.41790  0.07290  0.42570  Biso   1.000  H
  H96      1.0000 0.58210  0.92710  0.57430  Biso   1.000  H
  H97      1.0000 0.40820  0.14390  0.41730  Biso   1.000  H
  H98      1.0000 0.59180  0.85610  0.58270  Biso   1.000  H
  H99      1.0000 0.37410  0.06340  0.32570  Biso   1.000  H
  H100     1.0000 0.62590  0.93660  0.67430  Biso   1.000  H
  H101     1.0000 0.25240  0.08540  0.36180  Biso   1.000  H
  H102     1.0000 0.74760  0.91460  0.63820  Biso   1.000  H
  H103     1.0000 0.14080  0.13470  0.30190  Biso   1.000  H
  H104     1.0000 0.85920  0.86530  0.69810  Biso   1.000  H
  H105     1.0000 0.83200  0.19060  0.14840  Biso   1.000  H
  H106     1.0000 0.16800  0.80940  0.85160  Biso   1.000  H
  H107     1.0000 0.82350  0.26080  0.13530  Biso   1.000  H
  H108     1.0000 0.17650  0.73920  0.86470  Biso   1.000  H
  H109     1.0000 0.78250  0.23610  0.19530  Biso   1.000  H
  H110     1.0000 0.21750  0.76390  0.80470  Biso   1.000  H
  H111     1.0000 0.03590  0.31080  0.13410  Biso   1.000  H
  H112     1.0000 0.96410  0.68920  0.86590  Biso   1.000  H
  H113     1.0000 0.98340  0.16910  0.24250  Biso   1.000  H
  H114     1.0000 0.01660  0.83090  0.75750  Biso   1.000  H
  H115     1.0000 0.22630  0.36220  0.12480  Biso   1.000  H
  H116     1.0000 0.77370  0.63780  0.87520  Biso   1.000  H
  H117     1.0000 0.39240  0.41150  0.09220  Biso   1.000  H
  H118     1.0000 0.60760  0.58850  0.90780  Biso   1.000  H
  H119     1.0000 0.39240  0.45160  0.14750  Biso   1.000  H
  H120     1.0000 0.60760  0.54840  0.85250  Biso   1.000  H
  H121     1.0000 0.61920  0.38850  0.10930  Biso   1.000  H
  H122     1.0000 0.38080  0.61150  0.89070  Biso   1.000  H
  H123     1.0000 0.59590  0.45820  0.09720  Biso   1.000  H
  H124     1.0000 0.40410  0.54180  0.90280  Biso   1.000  H
  H125     1.0000 0.73350  0.45850  0.17430  Biso   1.000  H
  H126     1.0000 0.26650  0.54150  0.82570  Biso   1.000  H
  H127     1.0000 0.59340  0.47180  0.20060  Biso   1.000  H
  H128     1.0000 0.40660  0.52820  0.79940  Biso   1.000  H
  H129     1.0000 0.83790  0.41170  0.23300  Biso   1.000  H
  H130     1.0000 0.16210  0.58830  0.76700  Biso   1.000  H
  H131     1.0000 0.23350  0.82040  0.51370  Biso   1.000  H
  H132     1.0000 0.76650  0.17960  0.48630  Biso   1.000  H
  H133     1.0000 0.34390  0.79740  0.47180  Biso   1.000  H
  H134     1.0000 0.65610  0.20260  0.52820  Biso   1.000  H
  H135     1.0000 0.20780  0.82100  0.44800  Biso   1.000  H
  H136     1.0000 0.79220  0.17900  0.55200  Biso   1.000  H
  H137     1.0000 0.06720  0.73800  0.41380  Biso   1.000  H
  H138     1.0000 0.93280  0.26200  0.58620  Biso   1.000  H
  H139     1.0000 0.30540  0.70710  0.55020  Biso   1.000  H
  H140     1.0000 0.69460  0.29290  0.44980  Biso   1.000  H
  H141     1.0000 0.92820  0.66630  0.37600  Biso   1.000  H
  H142     1.0000 0.07180  0.33370  0.62400  Biso   1.000  H
  H143     1.0000 0.69820  0.60300  0.36520  Biso   1.000  H
  H144     1.0000 0.30180  0.39700  0.63480  Biso   1.000  H
  H145     1.0000 0.81390  0.61480  0.32200  Biso   1.000  H
  H146     1.0000 0.18610  0.38520  0.67800  Biso   1.000  H
  H147     1.0000 0.70150  0.53110  0.28990  Biso   1.000  H
  H148     1.0000 0.29850  0.46890  0.71010  Biso   1.000  H
  H149     1.0000 0.83780  0.50700  0.31310  Biso   1.000  H
  H150     1.0000 0.16220  0.49300  0.68690  Biso   1.000  H
  H151     1.0000 0.60860  0.50520  0.38260  Biso   1.000  H
  H152     1.0000 0.39140  0.49480  0.61740  Biso   1.000  H
  H153     1.0000 0.64440  0.44860  0.34470  Biso   1.000  H
  H154     1.0000 0.35560  0.55140  0.65530  Biso   1.000  H
  H155     1.0000 0.31630  0.61890  0.59670  Biso   1.000  H
  H156     1.0000 0.68370  0.38110  0.40330  Biso   1.000  H
  H157     1.0000 0.92420  0.84480  0.11740  Biso   1.000  H
  H158     1.0000 0.07580  0.15520  0.88260  Biso   1.000  H
  H159     1.0000 0.79080  0.92190  0.05510  Biso   1.000  H
  H160     1.0000 0.20920  0.07810  0.94490  Biso   1.000  H
  H161     1.0000 0.94090  0.94090  0.05630  Biso   1.000  H
  H162     1.0000 0.05910  0.05910  0.94370  Biso   1.000  H
  H163     1.0000 0.86700  0.93360  0.99810  Biso   1.000  H
  H164     1.0000 0.13300  0.06640  0.00190  Biso   1.000  H
  H165     1.0000 0.90460  0.85080  0.94860  Biso   1.000  H
  H166     1.0000 0.09540  0.14920  0.05140  Biso   1.000  H
  H167     1.0000 0.84930  0.79100  0.97670  Biso   1.000  H
  H168     1.0000 0.15070  0.20900  0.02330  Biso   1.000  H
  H169     1.0000 0.00290  0.80210  0.97350  Biso   1.000  H
  H170     1.0000 0.99710  0.19790  0.02650  Biso   1.000  H
  H171     1.0000 0.42410  0.34440  0.38280  Biso   1.000  H
  H172     1.0000 0.57590  0.65560  0.61720  Biso   1.000  H
  H173     1.0000 0.36790  0.43420  0.50060  Biso   1.000  H
  H174     1.0000 0.63210  0.56580  0.49940  Biso   1.000  H
  H175     1.0000 0.44260  0.44010  0.44240  Biso   1.000  H
  H176     1.0000 0.55740  0.55990  0.55760  Biso   1.000  H
  H177     1.0000 0.29220  0.42160  0.44350  Biso   1.000  H
  H178     1.0000 0.70780  0.57840  0.55650  Biso   1.000  H
  H179     1.0000 0.40480  0.35090  0.55150  Biso   1.000  H
  H180     1.0000 0.59520  0.64910  0.44850  Biso   1.000  H
  H181     1.0000 0.35250  0.29040  0.52340  Biso   1.000  H
  H182     1.0000 0.64750  0.70960  0.47660  Biso   1.000  H
  H183     1.0000 0.50560  0.30320  0.52670  Biso   1.000  H
  H184     1.0000 0.49440  0.69680  0.47330  Biso   1.000  H
  H185     1.0000 0.25420  0.19600  0.51160  Biso   1.000  H
  H186     1.0000 0.74580  0.80400  0.48840  Biso   1.000  H
  H187     1.0000 0.09870  0.19960  0.51160  Biso   1.000  H
  H188     1.0000 0.90130  0.80040  0.48840  Biso   1.000  H
  H189     1.0000 0.17670  0.19950  0.45390  Biso   1.000  H
  H190     1.0000 0.82330  0.80050  0.54610  Biso   1.000  H
  H191     1.0000 0.65680  0.10640  0.59020  Biso   1.000  H
  H192     1.0000 0.34320  0.89360  0.40980  Biso   1.000  H
  H193     1.0000 0.52640  0.10690  0.62660  Biso   1.000  H
  H194     1.0000 0.47360  0.89310  0.37340  Biso   1.000  H
  H195     1.0000 0.60550  0.04570  0.61800  Biso   1.000  H
  H196     1.0000 0.39450  0.95430  0.38200  Biso   1.000  H
  H197     1.0000 0.79570  0.02750  0.43570  Biso   1.000  H
  H198     1.0000 0.20430  0.97250  0.56430  Biso   1.000  H
  H199     1.0000 0.82470  0.05920  0.49420  Biso   1.000  H
  H200     1.0000 0.17530  0.94080  0.50580  Biso   1.000  H
  H201     1.0000 0.91580  0.00570  0.47300  Biso   1.000  H
  H202     1.0000 0.08420  0.99430  0.52700  Biso   1.000  H
  H203     1.0000 0.29390  0.30210  0.02670  Biso   1.000  H
  H204     1.0000 0.70610  0.69790  0.97330  Biso   1.000  H
  H205     1.0000 0.41820  0.30050  0.98660  Biso   1.000  H
  H206     1.0000 0.58180  0.69950  0.01340  Biso   1.000  H
  H207     1.0000 0.27490  0.30230  0.96060  Biso   1.000  H
  H208     1.0000 0.72510  0.69770  0.03940  Biso   1.000  H
  H209     1.0000 0.96210  0.40280  0.02200  Biso   1.000  H
  H210     1.0000 0.03790  0.59720  0.97800  Biso   1.000  H
  H211     1.0000 0.98320  0.47050  0.04210  Biso   1.000  H
  H212     1.0000 0.01680  0.52950  0.95790  Biso   1.000  H
  H213     1.0000 0.08490  0.41960  0.05990  Biso   1.000  H
  H214     1.0000 0.91510  0.58040  0.94010  Biso   1.000  H
  H215     1.0000 0.71470  0.43960  0.97670  Biso   1.000  H
  H216     1.0000 0.28530  0.56040  0.02330  Biso   1.000  H
  H217     1.0000 0.59360  0.48230  0.99030  Biso   1.000  H
  H218     1.0000 0.40640  0.51770  0.00970  Biso   1.000  H
  H219     1.0000 0.67050  0.48950  0.93280  Biso   1.000  H
  H220     1.0000 0.32950  0.51050  0.06720  Biso   1.000  H
