data_image0
_cell_length_a       12.039
_cell_length_b       14.213
_cell_length_c       21.632
_cell_angle_alpha    90
_cell_angle_beta     90
_cell_angle_gamma    90

_symmetry_space_group_name_H-M    "P 1"
_symmetry_int_tables_number       1

loop_
  _symmetry_equiv_pos_as_xyz
  'x, y, z'

loop_
  _atom_site_label
  _atom_site_occupancy
  _atom_site_fract_x
  _atom_site_fract_y
  _atom_site_fract_z
  _atom_site_thermal_displace_type
  _atom_site_B_iso_or_equiv
  _atom_site_type_symbol
  Cu1      1.0000 0.09457  0.42622  0.37239  Biso   1.000  Cu
  Cu2      1.0000 0.40543  0.57378  0.87239  Biso   1.000  Cu
  Cu3      1.0000 0.90543  0.92622  0.12761  Biso   1.000  Cu
  Cu4      1.0000 0.59457  0.07378  0.62761  Biso   1.000  Cu
  Cu5      1.0000 0.90543  0.57378  0.62761  Biso   1.000  Cu
  Cu6      1.0000 0.59457  0.42622  0.12761  Biso   1.000  Cu
  Cu7      1.0000 0.09457  0.07378  0.87239  Biso   1.000  Cu
  Cu8      1.0000 0.40543  0.92622  0.37239  Biso   1.000  Cu
  P1       1.0000 0.21677  0.46224  0.48805  Biso   1.000  P
  P2       1.0000 0.28323  0.53776  0.98805  Biso   1.000  P
  P3       1.0000 0.78323  0.96224  0.01195  Biso   1.000  P
  P4       1.0000 0.71677  0.03776  0.51195  Biso   1.000  P
  P5       1.0000 0.78323  0.53776  0.51195  Biso   1.000  P
  P6       1.0000 0.71677  0.46224  0.01195  Biso   1.000  P
  P7       1.0000 0.21677  0.03776  0.98805  Biso   1.000  P
  P8       1.0000 0.28323  0.96224  0.48805  Biso   1.000  P
  P9       1.0000 0.91301  0.28087  0.38283  Biso   1.000  P
  P10      1.0000 0.58699  0.71913  0.88283  Biso   1.000  P
  P11      1.0000 0.08699  0.78087  0.11717  Biso   1.000  P
  P12      1.0000 0.41301  0.21913  0.61717  Biso   1.000  P
  P13      1.0000 0.08699  0.71913  0.61717  Biso   1.000  P
  P14      1.0000 0.41301  0.28087  0.11717  Biso   1.000  P
  P15      1.0000 0.91301  0.21913  0.88283  Biso   1.000  P
  P16      1.0000 0.58699  0.78087  0.38283  Biso   1.000  P
  P17      1.0000 0.49137  0.61478  0.18824  Biso   1.000  P
  P18      1.0000 0.00863  0.38522  0.68824  Biso   1.000  P
  P19      1.0000 0.50863  0.11478  0.31176  Biso   1.000  P
  P20      1.0000 0.99137  0.88522  0.81176  Biso   1.000  P
  P21      1.0000 0.50863  0.38522  0.81176  Biso   1.000  P
  P22      1.0000 0.99137  0.61478  0.31176  Biso   1.000  P
  P23      1.0000 0.49137  0.88522  0.68824  Biso   1.000  P
  P24      1.0000 0.00863  0.11478  0.18824  Biso   1.000  P
  N1       1.0000 0.12120  0.31230  0.43152  Biso   1.000  N
  N2       1.0000 0.37880  0.68770  0.93152  Biso   1.000  N
  N3       1.0000 0.87880  0.81230  0.06848  Biso   1.000  N
  N4       1.0000 0.62120  0.18770  0.56848  Biso   1.000  N
  N5       1.0000 0.87880  0.68770  0.56848  Biso   1.000  N
  N6       1.0000 0.62120  0.31230  0.06848  Biso   1.000  N
  N7       1.0000 0.12120  0.18770  0.93152  Biso   1.000  N
  N8       1.0000 0.37880  0.81230  0.43152  Biso   1.000  N
  N9       1.0000 0.23080  0.35620  0.31224  Biso   1.000  N
  N10      1.0000 0.26920  0.64380  0.81224  Biso   1.000  N
  N11      1.0000 0.76920  0.85620  0.18776  Biso   1.000  N
  N12      1.0000 0.73080  0.14380  0.68776  Biso   1.000  N
  N13      1.0000 0.76920  0.64380  0.68776  Biso   1.000  N
  N14      1.0000 0.73080  0.35620  0.18776  Biso   1.000  N
  N15      1.0000 0.23080  0.14380  0.81224  Biso   1.000  N
  N16      1.0000 0.26920  0.85620  0.31224  Biso   1.000  N
  N17      1.0000 0.33240  0.48400  0.22290  Biso   1.000  N
  N18      1.0000 0.16760  0.51600  0.72290  Biso   1.000  N
  N19      1.0000 0.66760  0.98400  0.27710  Biso   1.000  N
  N20      1.0000 0.83240  0.01600  0.77710  Biso   1.000  N
  N21      1.0000 0.66760  0.51600  0.77710  Biso   1.000  N
  N22      1.0000 0.83240  0.48400  0.27710  Biso   1.000  N
  N23      1.0000 0.33240  0.01600  0.72290  Biso   1.000  N
  N24      1.0000 0.16760  0.98400  0.22290  Biso   1.000  N
  H1       1.0000 0.38120  0.44190  0.20660  Biso   1.000  H
  H2       1.0000 0.11880  0.55810  0.70660  Biso   1.000  H
  H3       1.0000 0.61880  0.94190  0.29340  Biso   1.000  H
  H4       1.0000 0.88120  0.05810  0.79340  Biso   1.000  H
  H5       1.0000 0.61880  0.55810  0.79340  Biso   1.000  H
  H6       1.0000 0.88120  0.44190  0.29340  Biso   1.000  H
  H7       1.0000 0.38120  0.05810  0.70660  Biso   1.000  H
  H8       1.0000 0.11880  0.94190  0.20660  Biso   1.000  H
  C1       1.0000 0.13850  0.35330  0.49420  Biso   1.000  C
  C2       1.0000 0.36150  0.64670  0.99420  Biso   1.000  C
  C3       1.0000 0.86150  0.85330  0.00580  Biso   1.000  C
  C4       1.0000 0.63850  0.14670  0.50580  Biso   1.000  C
  C5       1.0000 0.86150  0.64670  0.50580  Biso   1.000  C
  C6       1.0000 0.63850  0.35330  0.00580  Biso   1.000  C
  C7       1.0000 0.13850  0.14670  0.99420  Biso   1.000  C
  C8       1.0000 0.36150  0.85330  0.49420  Biso   1.000  C
  H9       1.0000 0.17870  0.30890  0.51990  Biso   1.000  H
  H10      1.0000 0.32130  0.69110  0.01990  Biso   1.000  H
  H11      1.0000 0.82130  0.80890  0.98010  Biso   1.000  H
  H12      1.0000 0.67870  0.19110  0.48010  Biso   1.000  H
  H13      1.0000 0.82130  0.69110  0.48010  Biso   1.000  H
  H14      1.0000 0.67870  0.30890  0.98010  Biso   1.000  H
  H15      1.0000 0.17870  0.19110  0.01990  Biso   1.000  H
  H16      1.0000 0.32130  0.80890  0.51990  Biso   1.000  H
  H17      1.0000 0.06720  0.36550  0.51340  Biso   1.000  H
  H18      1.0000 0.43280  0.63450  0.01340  Biso   1.000  H
  H19      1.0000 0.93280  0.86550  0.98660  Biso   1.000  H
  H20      1.0000 0.56720  0.13450  0.48660  Biso   1.000  H
  H21      1.0000 0.93280  0.63450  0.48660  Biso   1.000  H
  H22      1.0000 0.56720  0.36550  0.98660  Biso   1.000  H
  H23      1.0000 0.06720  0.13450  0.01340  Biso   1.000  H
  H24      1.0000 0.43280  0.86550  0.51340  Biso   1.000  H
  C9       1.0000 0.02680  0.24330  0.43170  Biso   1.000  C
  C10      1.0000 0.47320  0.75670  0.93170  Biso   1.000  C
  C11      1.0000 0.97320  0.74330  0.06830  Biso   1.000  C
  C12      1.0000 0.52680  0.25670  0.56830  Biso   1.000  C
  C13      1.0000 0.97320  0.75670  0.56830  Biso   1.000  C
  C14      1.0000 0.52680  0.24330  0.06830  Biso   1.000  C
  C15      1.0000 0.02680  0.25670  0.93170  Biso   1.000  C
  C16      1.0000 0.47320  0.74330  0.43170  Biso   1.000  C
  H25      1.0000 0.00000  0.23560  0.47370  Biso   1.000  H
  H26      1.0000 0.50000  0.76440  0.97370  Biso   1.000  H
  H27      1.0000 0.00000  0.73560  0.02630  Biso   1.000  H
  H28      1.0000 0.50000  0.26440  0.52630  Biso   1.000  H
  H29      1.0000 0.00000  0.76440  0.52630  Biso   1.000  H
  H30      1.0000 0.50000  0.23560  0.02630  Biso   1.000  H
  H31      1.0000 0.00000  0.26440  0.97370  Biso   1.000  H
  H32      1.0000 0.50000  0.73560  0.47370  Biso   1.000  H
  H33      1.0000 0.05360  0.18260  0.41750  Biso   1.000  H
  H34      1.0000 0.44640  0.81740  0.91750  Biso   1.000  H
  H35      1.0000 0.94640  0.68260  0.08250  Biso   1.000  H
  H36      1.0000 0.55360  0.31740  0.58250  Biso   1.000  H
  H37      1.0000 0.94640  0.81740  0.58250  Biso   1.000  H
  H38      1.0000 0.55360  0.18260  0.08250  Biso   1.000  H
  H39      1.0000 0.05360  0.31740  0.91750  Biso   1.000  H
  H40      1.0000 0.44640  0.68260  0.41750  Biso   1.000  H
  C17      1.0000 0.22490  0.26470  0.40890  Biso   1.000  C
  C18      1.0000 0.27510  0.73530  0.90890  Biso   1.000  C
  C19      1.0000 0.77510  0.76470  0.09110  Biso   1.000  C
  C20      1.0000 0.72490  0.23530  0.59110  Biso   1.000  C
  C21      1.0000 0.77510  0.73530  0.59110  Biso   1.000  C
  C22      1.0000 0.72490  0.26470  0.09110  Biso   1.000  C
  C23      1.0000 0.22490  0.23530  0.90890  Biso   1.000  C
  C24      1.0000 0.27510  0.76470  0.40890  Biso   1.000  C
  H41      1.0000 0.22880  0.20150  0.42570  Biso   1.000  H
  H42      1.0000 0.27120  0.79850  0.92570  Biso   1.000  H
  H43      1.0000 0.77120  0.70150  0.07430  Biso   1.000  H
  H44      1.0000 0.72880  0.29850  0.57430  Biso   1.000  H
  H45      1.0000 0.77120  0.79850  0.57430  Biso   1.000  H
  H46      1.0000 0.72880  0.20150  0.07430  Biso   1.000  H
  H47      1.0000 0.22880  0.29850  0.92570  Biso   1.000  H
  H48      1.0000 0.27120  0.70150  0.42570  Biso   1.000  H
  H49      1.0000 0.28950  0.29930  0.42310  Biso   1.000  H
  H50      1.0000 0.21050  0.70070  0.92310  Biso   1.000  H
  H51      1.0000 0.71050  0.79930  0.07690  Biso   1.000  H
  H52      1.0000 0.78950  0.20070  0.57690  Biso   1.000  H
  H53      1.0000 0.71050  0.70070  0.57690  Biso   1.000  H
  H54      1.0000 0.78950  0.29930  0.07690  Biso   1.000  H
  H55      1.0000 0.28950  0.20070  0.92310  Biso   1.000  H
  H56      1.0000 0.21050  0.79930  0.42310  Biso   1.000  H
  C25      1.0000 0.22520  0.26030  0.33880  Biso   1.000  C
  C26      1.0000 0.27480  0.73970  0.83880  Biso   1.000  C
  C27      1.0000 0.77480  0.76030  0.16120  Biso   1.000  C
  C28      1.0000 0.72520  0.23970  0.66120  Biso   1.000  C
  C29      1.0000 0.77480  0.73970  0.66120  Biso   1.000  C
  C30      1.0000 0.72520  0.26030  0.16120  Biso   1.000  C
  C31      1.0000 0.22520  0.23970  0.83880  Biso   1.000  C
  C32      1.0000 0.27480  0.76030  0.33880  Biso   1.000  C
  H57      1.0000 0.28860  0.22390  0.32490  Biso   1.000  H
  H58      1.0000 0.21140  0.77610  0.82490  Biso   1.000  H
  H59      1.0000 0.71140  0.72390  0.17510  Biso   1.000  H
  H60      1.0000 0.78860  0.27610  0.67510  Biso   1.000  H
  H61      1.0000 0.71140  0.77610  0.67510  Biso   1.000  H
  H62      1.0000 0.78860  0.22390  0.17510  Biso   1.000  H
  H63      1.0000 0.28860  0.27610  0.82490  Biso   1.000  H
  H64      1.0000 0.21140  0.72390  0.32490  Biso   1.000  H
  H65      1.0000 0.15830  0.22910  0.32460  Biso   1.000  H
  H66      1.0000 0.34170  0.77090  0.82460  Biso   1.000  H
  H67      1.0000 0.84170  0.72910  0.17540  Biso   1.000  H
  H68      1.0000 0.65830  0.27090  0.67540  Biso   1.000  H
  H69      1.0000 0.84170  0.77090  0.67540  Biso   1.000  H
  H70      1.0000 0.65830  0.22910  0.17540  Biso   1.000  H
  H71      1.0000 0.15830  0.27090  0.82460  Biso   1.000  H
  H72      1.0000 0.34170  0.72910  0.32460  Biso   1.000  H
  C33      1.0000 0.20390  0.35160  0.24555  Biso   1.000  C
  C34      1.0000 0.29610  0.64840  0.74555  Biso   1.000  C
  C35      1.0000 0.79610  0.85160  0.25445  Biso   1.000  C
  C36      1.0000 0.70390  0.14840  0.75445  Biso   1.000  C
  C37      1.0000 0.79610  0.64840  0.75445  Biso   1.000  C
  C38      1.0000 0.70390  0.35160  0.25445  Biso   1.000  C
  C39      1.0000 0.20390  0.14840  0.74555  Biso   1.000  C
  C40      1.0000 0.29610  0.85160  0.24555  Biso   1.000  C
  H73      1.0000 0.12780  0.33040  0.24060  Biso   1.000  H
  H74      1.0000 0.37220  0.66960  0.74060  Biso   1.000  H
  H75      1.0000 0.87220  0.83040  0.25940  Biso   1.000  H
  H76      1.0000 0.62780  0.16960  0.75940  Biso   1.000  H
  H77      1.0000 0.87220  0.66960  0.75940  Biso   1.000  H
  H78      1.0000 0.62780  0.33040  0.25940  Biso   1.000  H
  H79      1.0000 0.12780  0.16960  0.74060  Biso   1.000  H
  H80      1.0000 0.37220  0.83040  0.24060  Biso   1.000  H
  H81      1.0000 0.25200  0.30570  0.22590  Biso   1.000  H
  H82      1.0000 0.24800  0.69430  0.72590  Biso   1.000  H
  H83      1.0000 0.74800  0.80570  0.27410  Biso   1.000  H
  H84      1.0000 0.75200  0.19430  0.77410  Biso   1.000  H
  H85      1.0000 0.74800  0.69430  0.77410  Biso   1.000  H
  H86      1.0000 0.75200  0.30570  0.27410  Biso   1.000  H
  H87      1.0000 0.25200  0.19430  0.72590  Biso   1.000  H
  H88      1.0000 0.24800  0.80570  0.22590  Biso   1.000  H
  C41      1.0000 0.21780  0.44540  0.21370  Biso   1.000  C
  C42      1.0000 0.28220  0.55460  0.71370  Biso   1.000  C
  C43      1.0000 0.78220  0.94540  0.28630  Biso   1.000  C
  C44      1.0000 0.71780  0.05460  0.78630  Biso   1.000  C
  C45      1.0000 0.78220  0.55460  0.78630  Biso   1.000  C
  C46      1.0000 0.71780  0.44540  0.28630  Biso   1.000  C
  C47      1.0000 0.21780  0.05460  0.71370  Biso   1.000  C
  C48      1.0000 0.28220  0.94540  0.21370  Biso   1.000  C
  H89      1.0000 0.20360  0.43810  0.16980  Biso   1.000  H
  H90      1.0000 0.29640  0.56190  0.66980  Biso   1.000  H
  H91      1.0000 0.79640  0.93810  0.33020  Biso   1.000  H
  H92      1.0000 0.70360  0.06190  0.83020  Biso   1.000  H
  H93      1.0000 0.79640  0.56190  0.83020  Biso   1.000  H
  H94      1.0000 0.70360  0.43810  0.33020  Biso   1.000  H
  H95      1.0000 0.20360  0.06190  0.66980  Biso   1.000  H
  H96      1.0000 0.29640  0.93810  0.16980  Biso   1.000  H
  H97      1.0000 0.16380  0.48960  0.23010  Biso   1.000  H
  H98      1.0000 0.33620  0.51040  0.73010  Biso   1.000  H
  H99      1.0000 0.83620  0.98960  0.26990  Biso   1.000  H
  H100     1.0000 0.66380  0.01040  0.76990  Biso   1.000  H
  H101     1.0000 0.83620  0.51040  0.76990  Biso   1.000  H
  H102     1.0000 0.66380  0.48960  0.26990  Biso   1.000  H
  H103     1.0000 0.16380  0.01040  0.73010  Biso   1.000  H
  H104     1.0000 0.33620  0.98960  0.23010  Biso   1.000  H
  C49      1.0000 0.35470  0.49020  0.29111  Biso   1.000  C
  C50      1.0000 0.14530  0.50980  0.79111  Biso   1.000  C
  C51      1.0000 0.64530  0.99020  0.20889  Biso   1.000  C
  C52      1.0000 0.85470  0.00980  0.70889  Biso   1.000  C
  C53      1.0000 0.64530  0.50980  0.70889  Biso   1.000  C
  C54      1.0000 0.85470  0.49020  0.20889  Biso   1.000  C
  C55      1.0000 0.35470  0.00980  0.79111  Biso   1.000  C
  C56      1.0000 0.14530  0.99020  0.29111  Biso   1.000  C
  H105     1.0000 0.42890  0.51470  0.29810  Biso   1.000  H
  H106     1.0000 0.07110  0.48530  0.79810  Biso   1.000  H
  H107     1.0000 0.57110  0.01470  0.20190  Biso   1.000  H
  H108     1.0000 0.92890  0.98530  0.70190  Biso   1.000  H
  H109     1.0000 0.57110  0.48530  0.70190  Biso   1.000  H
  H110     1.0000 0.92890  0.51470  0.20190  Biso   1.000  H
  H111     1.0000 0.42890  0.98530  0.79810  Biso   1.000  H
  H112     1.0000 0.07110  0.01470  0.29810  Biso   1.000  H
  H113     1.0000 0.30190  0.53270  0.31030  Biso   1.000  H
  H114     1.0000 0.19810  0.46730  0.81030  Biso   1.000  H
  H115     1.0000 0.69810  0.03270  0.18970  Biso   1.000  H
  H116     1.0000 0.80190  0.96730  0.68970  Biso   1.000  H
  H117     1.0000 0.69810  0.46730  0.68970  Biso   1.000  H
  H118     1.0000 0.80190  0.53270  0.18970  Biso   1.000  H
  H119     1.0000 0.30190  0.96730  0.81030  Biso   1.000  H
  H120     1.0000 0.19810  0.03270  0.31030  Biso   1.000  H
  C57      1.0000 0.34460  0.39420  0.31940  Biso   1.000  C
  C58      1.0000 0.15540  0.60580  0.81940  Biso   1.000  C
  C59      1.0000 0.65540  0.89420  0.18060  Biso   1.000  C
  C60      1.0000 0.84460  0.10580  0.68060  Biso   1.000  C
  C61      1.0000 0.65540  0.60580  0.68060  Biso   1.000  C
  C62      1.0000 0.84460  0.39420  0.18060  Biso   1.000  C
  C63      1.0000 0.34460  0.10580  0.81940  Biso   1.000  C
  C64      1.0000 0.15540  0.89420  0.31940  Biso   1.000  C
  H121     1.0000 0.39720  0.35200  0.29990  Biso   1.000  H
  H122     1.0000 0.10280  0.64800  0.79990  Biso   1.000  H
  H123     1.0000 0.60280  0.85200  0.20010  Biso   1.000  H
  H124     1.0000 0.89720  0.14800  0.70010  Biso   1.000  H
  H125     1.0000 0.60280  0.64800  0.70010  Biso   1.000  H
  H126     1.0000 0.89720  0.35200  0.20010  Biso   1.000  H
  H127     1.0000 0.39720  0.14800  0.79990  Biso   1.000  H
  H128     1.0000 0.10280  0.85200  0.29990  Biso   1.000  H
  H129     1.0000 0.36290  0.39780  0.36300  Biso   1.000  H
  H130     1.0000 0.13710  0.60220  0.86300  Biso   1.000  H
  H131     1.0000 0.63710  0.89780  0.13700  Biso   1.000  H
  H132     1.0000 0.86290  0.10220  0.63700  Biso   1.000  H
  H133     1.0000 0.63710  0.60220  0.63700  Biso   1.000  H
  H134     1.0000 0.86290  0.39780  0.13700  Biso   1.000  H
  H135     1.0000 0.36290  0.10220  0.86300  Biso   1.000  H
  H136     1.0000 0.13710  0.89780  0.36300  Biso   1.000  H
  C65      1.0000 0.34680  0.57470  0.18880  Biso   1.000  C
  C66      1.0000 0.15320  0.42530  0.68880  Biso   1.000  C
  C67      1.0000 0.65320  0.07470  0.31120  Biso   1.000  C
  C68      1.0000 0.84680  0.92530  0.81120  Biso   1.000  C
  C69      1.0000 0.65320  0.42530  0.81120  Biso   1.000  C
  C70      1.0000 0.84680  0.57470  0.31120  Biso   1.000  C
  C71      1.0000 0.34680  0.92530  0.68880  Biso   1.000  C
  C72      1.0000 0.15320  0.07470  0.18880  Biso   1.000  C
  H137     1.0000 0.30080  0.62250  0.20800  Biso   1.000  H
  H138     1.0000 0.19920  0.37750  0.70800  Biso   1.000  H
  H139     1.0000 0.69920  0.12250  0.29200  Biso   1.000  H
  H140     1.0000 0.80080  0.87750  0.79200  Biso   1.000  H
  H141     1.0000 0.69920  0.37750  0.79200  Biso   1.000  H
  H142     1.0000 0.80080  0.62250  0.29200  Biso   1.000  H
  H143     1.0000 0.30080  0.87750  0.70800  Biso   1.000  H
  H144     1.0000 0.19920  0.12250  0.20800  Biso   1.000  H
  H145     1.0000 0.32150  0.56670  0.14660  Biso   1.000  H
  H146     1.0000 0.17850  0.43330  0.64660  Biso   1.000  H
  H147     1.0000 0.67850  0.06670  0.35340  Biso   1.000  H
  H148     1.0000 0.82150  0.93330  0.85340  Biso   1.000  H
  H149     1.0000 0.67850  0.43330  0.85340  Biso   1.000  H
  H150     1.0000 0.82150  0.56670  0.35340  Biso   1.000  H
  H151     1.0000 0.32150  0.93330  0.64660  Biso   1.000  H
  H152     1.0000 0.17850  0.06670  0.14660  Biso   1.000  H
  O1       1.0000 0.33730  0.44800  0.49780  Biso   1.000  O
  O2       1.0000 0.16270  0.55200  0.99780  Biso   1.000  O
  O3       1.0000 0.66270  0.94800  0.00220  Biso   1.000  O
  O4       1.0000 0.83730  0.05200  0.50220  Biso   1.000  O
  O5       1.0000 0.66270  0.55200  0.50220  Biso   1.000  O
  O6       1.0000 0.83730  0.44800  0.00220  Biso   1.000  O
  O7       1.0000 0.33730  0.05200  0.99780  Biso   1.000  O
  O8       1.0000 0.16270  0.94800  0.49780  Biso   1.000  O
  O9       1.0000 0.16160  0.51930  0.54197  Biso   1.000  O
  O10      1.0000 0.33840  0.48070  0.04197  Biso   1.000  O
  O11      1.0000 0.83840  0.01930  0.95803  Biso   1.000  O
  O12      1.0000 0.66160  0.98070  0.45803  Biso   1.000  O
  O13      1.0000 0.83840  0.48070  0.45803  Biso   1.000  O
  O14      1.0000 0.66160  0.51930  0.95803  Biso   1.000  O
  O15      1.0000 0.16160  0.98070  0.04197  Biso   1.000  O
  O16      1.0000 0.33840  0.01930  0.54197  Biso   1.000  O
  H153     1.0000 0.18640  0.57310  0.54220  Biso   1.000  H
  H154     1.0000 0.31360  0.42690  0.04220  Biso   1.000  H
  H155     1.0000 0.81360  0.07310  0.95780  Biso   1.000  H
  H156     1.0000 0.68640  0.92690  0.45780  Biso   1.000  H
  H157     1.0000 0.81360  0.42690  0.45780  Biso   1.000  H
  H158     1.0000 0.68640  0.57310  0.95780  Biso   1.000  H
  H159     1.0000 0.18640  0.92690  0.04220  Biso   1.000  H
  H160     1.0000 0.31360  0.07310  0.54220  Biso   1.000  H
  O17      1.0000 0.18700  0.50220  0.42602  Biso   1.000  O
  O18      1.0000 0.31300  0.49780  0.92602  Biso   1.000  O
  O19      1.0000 0.81300  0.00220  0.07398  Biso   1.000  O
  O20      1.0000 0.68700  0.99780  0.57398  Biso   1.000  O
  O21      1.0000 0.81300  0.49780  0.57398  Biso   1.000  O
  O22      1.0000 0.68700  0.50220  0.07398  Biso   1.000  O
  O23      1.0000 0.18700  0.99780  0.92602  Biso   1.000  O
  O24      1.0000 0.31300  0.00220  0.42602  Biso   1.000  O
  O25      1.0000 0.87850  0.19600  0.34235  Biso   1.000  O
  O26      1.0000 0.62150  0.80400  0.84235  Biso   1.000  O
  O27      1.0000 0.12150  0.69600  0.15765  Biso   1.000  O
  O28      1.0000 0.37850  0.30400  0.65765  Biso   1.000  O
  O29      1.0000 0.12150  0.80400  0.65765  Biso   1.000  O
  O30      1.0000 0.37850  0.19600  0.15765  Biso   1.000  O
  O31      1.0000 0.87850  0.30400  0.84235  Biso   1.000  O
  O32      1.0000 0.62150  0.69600  0.34235  Biso   1.000  O
  H161     1.0000 0.91780  0.19410  0.31140  Biso   1.000  H
  H162     1.0000 0.58220  0.80590  0.81140  Biso   1.000  H
  H163     1.0000 0.08220  0.69410  0.18860  Biso   1.000  H
  H164     1.0000 0.41780  0.30590  0.68860  Biso   1.000  H
  H165     1.0000 0.08220  0.80590  0.68860  Biso   1.000  H
  H166     1.0000 0.41780  0.19410  0.18860  Biso   1.000  H
  H167     1.0000 0.91780  0.30590  0.81140  Biso   1.000  H
  H168     1.0000 0.58220  0.69410  0.31140  Biso   1.000  H
  O33      1.0000 0.81550  0.31030  0.42091  Biso   1.000  O
  O34      1.0000 0.68450  0.68970  0.92091  Biso   1.000  O
  O35      1.0000 0.18450  0.81030  0.07909  Biso   1.000  O
  O36      1.0000 0.31550  0.18970  0.57909  Biso   1.000  O
  O37      1.0000 0.18450  0.68970  0.57909  Biso   1.000  O
  O38      1.0000 0.31550  0.31030  0.07909  Biso   1.000  O
  O39      1.0000 0.81550  0.18970  0.92091  Biso   1.000  O
  O40      1.0000 0.68450  0.81030  0.42091  Biso   1.000  O
  O41      1.0000 0.96330  0.35780  0.34211  Biso   1.000  O
  O42      1.0000 0.53670  0.64220  0.84211  Biso   1.000  O
  O43      1.0000 0.03670  0.85780  0.15789  Biso   1.000  O
  O44      1.0000 0.46330  0.14220  0.65789  Biso   1.000  O
  O45      1.0000 0.03670  0.64220  0.65789  Biso   1.000  O
  O46      1.0000 0.46330  0.35780  0.15789  Biso   1.000  O
  O47      1.0000 0.96330  0.14220  0.84211  Biso   1.000  O
  O48      1.0000 0.53670  0.85780  0.34211  Biso   1.000  O
  O49      1.0000 0.51000  0.67570  0.24339  Biso   1.000  O
  O50      1.0000 0.99000  0.32430  0.74339  Biso   1.000  O
  O51      1.0000 0.49000  0.17570  0.25661  Biso   1.000  O
  O52      1.0000 0.01000  0.82430  0.75661  Biso   1.000  O
  O53      1.0000 0.49000  0.32430  0.75661  Biso   1.000  O
  O54      1.0000 0.01000  0.67570  0.25661  Biso   1.000  O
  O55      1.0000 0.51000  0.82430  0.74339  Biso   1.000  O
  O56      1.0000 0.99000  0.17570  0.24339  Biso   1.000  O
  O57      1.0000 0.56230  0.52810  0.18490  Biso   1.000  O
  O58      1.0000 0.93770  0.47190  0.68490  Biso   1.000  O
  O59      1.0000 0.43770  0.02810  0.31510  Biso   1.000  O
  O60      1.0000 0.06230  0.97190  0.81510  Biso   1.000  O
  O61      1.0000 0.43770  0.47190  0.81510  Biso   1.000  O
  O62      1.0000 0.06230  0.52810  0.31510  Biso   1.000  O
  O63      1.0000 0.56230  0.97190  0.68490  Biso   1.000  O
  O64      1.0000 0.93770  0.02810  0.18490  Biso   1.000  O
  O65      1.0000 0.50160  0.66920  0.12628  Biso   1.000  O
  O66      1.0000 0.99840  0.33080  0.62628  Biso   1.000  O
  O67      1.0000 0.49840  0.16920  0.37372  Biso   1.000  O
  O68      1.0000 0.00160  0.83080  0.87372  Biso   1.000  O
  O69      1.0000 0.49840  0.33080  0.87372  Biso   1.000  O
  O70      1.0000 0.00160  0.66920  0.37372  Biso   1.000  O
  O71      1.0000 0.50160  0.83080  0.62628  Biso   1.000  O
  O72      1.0000 0.99840  0.16920  0.12628  Biso   1.000  O
  H169     1.0000 0.56490  0.68960  0.12260  Biso   1.000  H
  H170     1.0000 0.93510  0.31040  0.62260  Biso   1.000  H
  H171     1.0000 0.43510  0.18960  0.37740  Biso   1.000  H
  H172     1.0000 0.06490  0.81040  0.87740  Biso   1.000  H
  H173     1.0000 0.43510  0.31040  0.87740  Biso   1.000  H
  H174     1.0000 0.06490  0.68960  0.37740  Biso   1.000  H
  H175     1.0000 0.56490  0.81040  0.62260  Biso   1.000  H
  H176     1.0000 0.93510  0.18960  0.12260  Biso   1.000  H
  O73      1.0000 0.40650  0.82320  0.10507  Biso   1.000  O
  O74      1.0000 0.09350  0.17680  0.60507  Biso   1.000  O
  O75      1.0000 0.59350  0.32320  0.39493  Biso   1.000  O
  O76      1.0000 0.90650  0.67680  0.89493  Biso   1.000  O
  O77      1.0000 0.59350  0.17680  0.89493  Biso   1.000  O
  O78      1.0000 0.90650  0.82320  0.39493  Biso   1.000  O
  O79      1.0000 0.40650  0.67680  0.60507  Biso   1.000  O
  O80      1.0000 0.09350  0.32320  0.10507  Biso   1.000  O
  O81      1.0000 0.49150  0.99470  0.08130  Biso   1.000  O
  O82      1.0000 0.00850  0.00530  0.58130  Biso   1.000  O
  O83      1.0000 0.50850  0.49470  0.41870  Biso   1.000  O
  O84      1.0000 0.99150  0.50530  0.91870  Biso   1.000  O
  O85      1.0000 0.50850  0.00530  0.91870  Biso   1.000  O
  O86      1.0000 0.99150  0.99470  0.41870  Biso   1.000  O
  O87      1.0000 0.49150  0.50530  0.58130  Biso   1.000  O
  O88      1.0000 0.00850  0.49470  0.08130  Biso   1.000  O
