data_image0
_cell_length_a       6.787
_cell_length_b       10.723
_cell_length_c       12.201
_cell_angle_alpha    97.539
_cell_angle_beta     102.719
_cell_angle_gamma    91.092

_symmetry_space_group_name_H-M    "P 1"
_symmetry_int_tables_number       1

loop_
  _symmetry_equiv_pos_as_xyz
  'x, y, z'

loop_
  _atom_site_label
  _atom_site_occupancy
  _atom_site_fract_x
  _atom_site_fract_y
  _atom_site_fract_z
  _atom_site_thermal_displace_type
  _atom_site_B_iso_or_equiv
  _atom_site_type_symbol
  Cu1      1.0000 0.00000  0.00000  0.00000  Biso   1.000  Cu
  Cu2      1.0000 0.50000  0.50000  0.00000  Biso   1.000  Cu
  Cu3      1.0000 0.50000  0.50000  0.50000  Biso   1.000  Cu
  S1       1.0000 0.14470  0.24890  0.46167  Biso   1.000  S
  S2       1.0000 0.85530  0.75110  0.53833  Biso   1.000  S
  O1       1.0000 0.33440  0.19370  0.51270  Biso   1.000  O
  O2       1.0000 0.66560  0.80630  0.48730  Biso   1.000  O
  O3       1.0000 0.01340  0.26280  0.54400  Biso   1.000  O
  O4       1.0000 0.98660  0.73720  0.45600  Biso   1.000  O
  O5       1.0000 0.03960  0.16640  0.35960  Biso   1.000  O
  O6       1.0000 0.96040  0.83360  0.64040  Biso   1.000  O
  O7       1.0000 0.18860  0.37450  0.43590  Biso   1.000  O
  O8       1.0000 0.81140  0.62550  0.56410  Biso   1.000  O
  O9       1.0000 0.63130  0.34410  0.46930  Biso   1.000  O
  O10      1.0000 0.36870  0.65590  0.53070  Biso   1.000  O
  N1       1.0000 0.43850  0.53340  0.15320  Biso   1.000  N
  N2       1.0000 0.56150  0.46660  0.84680  Biso   1.000  N
  N3       1.0000 0.25780  0.56800  0.17480  Biso   1.000  N
  N4       1.0000 0.74220  0.43200  0.82520  Biso   1.000  N
  N5       1.0000 0.26460  0.56800  0.28170  Biso   1.000  N
  N6       1.0000 0.73540  0.43200  0.71830  Biso   1.000  N
  N7       1.0000 0.44790  0.52980  0.33330  Biso   1.000  N
  N8       1.0000 0.55210  0.47020  0.66670  Biso   1.000  N
  N9       1.0000 0.68360  0.36960  0.06220  Biso   1.000  N
  N10      1.0000 0.31640  0.63040  0.93780  Biso   1.000  N
  N11      1.0000 0.73370  0.26370  0.00350  Biso   1.000  N
  N12      1.0000 0.26630  0.73630  0.99650  Biso   1.000  N
  N13      1.0000 0.85640  0.20380  0.07070  Biso   1.000  N
  N14      1.0000 0.14360  0.79620  0.92930  Biso   1.000  N
  N15      1.0000 0.88570  0.27040  0.17550  Biso   1.000  N
  N16      1.0000 0.11430  0.72960  0.82450  Biso   1.000  N
  H1       1.0000 0.96270  0.25070  0.23610  Biso   1.000  H
  H2       1.0000 0.03730  0.74930  0.76390  Biso   1.000  H
  N17      1.0000 0.24070  0.06440  0.11860  Biso   1.000  N
  N18      1.0000 0.75930  0.93560  0.88140  Biso   1.000  N
  N19      1.0000 0.34210  0.17750  0.12590  Biso   1.000  N
  N20      1.0000 0.65790  0.82250  0.87410  Biso   1.000  N
  N21      1.0000 0.47410  0.19740  0.21970  Biso   1.000  N
  N22      1.0000 0.52590  0.80260  0.78030  Biso   1.000  N
  N23      1.0000 0.46060  0.09930  0.27520  Biso   1.000  N
  N24      1.0000 0.53940  0.90070  0.72480  Biso   1.000  N
  H3       1.0000 0.53390  0.09030  0.34050  Biso   1.000  H
  H4       1.0000 0.46610  0.90970  0.65950  Biso   1.000  H
  N25      1.0000 0.90390  0.92430  0.12250  Biso   1.000  N
  N26      1.0000 0.09610  0.07570  0.87750  Biso   1.000  N
  N27      1.0000 0.70960  0.90390  0.12720  Biso   1.000  N
  N28      1.0000 0.29040  0.09610  0.87280  Biso   1.000  N
  N29      1.0000 0.70460  0.85350  0.21680  Biso   1.000  N
  N30      1.0000 0.29540  0.14650  0.78320  Biso   1.000  N
  N31      1.0000 0.89670  0.84220  0.27070  Biso   1.000  N
  N32      1.0000 0.10330  0.15780  0.72930  Biso   1.000  N
  H5       1.0000 0.93440  0.81060  0.33280  Biso   1.000  H
  H6       1.0000 0.06560  0.18940  0.66720  Biso   1.000  H
  C1       1.0000 0.55180  0.51050  0.25100  Biso   1.000  C
  C2       1.0000 0.44820  0.48950  0.74900  Biso   1.000  C
  C3       1.0000 0.75960  0.46720  0.26660  Biso   1.000  C
  C4       1.0000 0.24040  0.53280  0.73340  Biso   1.000  C
  H7       1.0000 0.79500  0.43120  0.33680  Biso   1.000  H
  H8       1.0000 0.20500  0.56880  0.66320  Biso   1.000  H
  H9       1.0000 0.85340  0.53820  0.27160  Biso   1.000  H
  H10      1.0000 0.14660  0.46180  0.72840  Biso   1.000  H
  C5       1.0000 0.77660  0.37020  0.16910  Biso   1.000  C
  C6       1.0000 0.22340  0.62980  0.83090  Biso   1.000  C
  C7       1.0000 0.01850  0.88740  0.21320  Biso   1.000  C
  C8       1.0000 0.98150  0.11260  0.78680  Biso   1.000  C
  C9       1.0000 0.24640  0.89860  0.24490  Biso   1.000  C
  C10      1.0000 0.75360  0.10140  0.75510  Biso   1.000  C
  H11      1.0000 0.29360  0.89770  0.32580  Biso   1.000  H
  H12      1.0000 0.70640  0.10230  0.67420  Biso   1.000  H
  H13      1.0000 0.30110  0.82780  0.20520  Biso   1.000  H
  H14      1.0000 0.69890  0.17220  0.79480  Biso   1.000  H
  C11      1.0000 0.31660  0.01830  0.21350  Biso   1.000  C
  C12      1.0000 0.68340  0.98170  0.78650  Biso   1.000  C
  O11      1.0000 0.17830  0.36550  0.94590  Biso   1.000  O
  O12      1.0000 0.82170  0.63450  0.05410  Biso   1.000  O
  H15      1.0000 0.57300  0.29500  0.50800  Biso   1.000  H
  H16      1.0000 0.42700  0.70500  0.49200  Biso   1.000  H
  H17      1.0000 0.19600  0.29000  0.97000  Biso   1.000  H
  H18      1.0000 0.80400  0.71000  0.03000  Biso   1.000  H
  H19      1.0000 0.16000  0.44300  0.97800  Biso   1.000  H
  H20      1.0000 0.84000  0.55700  0.02200  Biso   1.000  H
  H21      1.0000 0.74300  0.31200  0.50700  Biso   1.000  H
  H22      1.0000 0.25700  0.68800  0.49300  Biso   1.000  H
  O13      1.0000 0.70190  0.05570  0.46520  Biso   1.000  O
  O14      1.0000 0.29810  0.94430  0.53480  Biso   1.000  O
  H23      1.0000 0.69600  0.98600  0.47900  Biso   1.000  H
  H24      1.0000 0.30400  0.01400  0.52100  Biso   1.000  H
  H25      1.0000 0.83300  0.04600  0.46400  Biso   1.000  H
  H26      1.0000 0.16700  0.95400  0.53600  Biso   1.000  H
