data_image0
_cell_length_a       9.865
_cell_length_b       9.841
_cell_length_c       8.302
_cell_angle_alpha    90
_cell_angle_beta     109.868
_cell_angle_gamma    90

_symmetry_space_group_name_H-M    "P 1"
_symmetry_int_tables_number       1

loop_
  _symmetry_equiv_pos_as_xyz
  'x, y, z'

loop_
  _atom_site_label
  _atom_site_occupancy
  _atom_site_fract_x
  _atom_site_fract_y
  _atom_site_fract_z
  _atom_site_thermal_displace_type
  _atom_site_B_iso_or_equiv
  _atom_site_type_symbol
  C1       1.0000 0.05720  0.74960  0.32150  Biso   1.000  C
  C2       1.0000 0.94280  0.24960  0.17850  Biso   1.000  C
  C3       1.0000 0.94280  0.25040  0.67850  Biso   1.000  C
  C4       1.0000 0.05720  0.75040  0.82150  Biso   1.000  C
  C5       1.0000 0.19550  0.69220  0.31200  Biso   1.000  C
  C6       1.0000 0.80450  0.19220  0.18800  Biso   1.000  C
  C7       1.0000 0.80450  0.30780  0.68800  Biso   1.000  C
  C8       1.0000 0.19550  0.80780  0.81200  Biso   1.000  C
  H1       1.0000 0.17450  0.63030  0.21570  Biso   1.000  H
  H2       1.0000 0.82550  0.13030  0.28430  Biso   1.000  H
  H3       1.0000 0.82550  0.36970  0.78430  Biso   1.000  H
  H4       1.0000 0.17450  0.86970  0.71570  Biso   1.000  H
  H5       1.0000 0.25500  0.76520  0.29440  Biso   1.000  H
  H6       1.0000 0.74500  0.26520  0.20560  Biso   1.000  H
  H7       1.0000 0.74500  0.23480  0.70560  Biso   1.000  H
  H8       1.0000 0.25500  0.73480  0.79440  Biso   1.000  H
  C9       1.0000 0.27530  0.61800  0.47450  Biso   1.000  C
  C10      1.0000 0.72470  0.11800  0.02550  Biso   1.000  C
  C11      1.0000 0.72470  0.38200  0.52550  Biso   1.000  C
  C12      1.0000 0.27530  0.88200  0.97450  Biso   1.000  C
  Cu1      1.0000 0.00000  0.50000  0.50000  Biso   1.000  Cu
  Cu2      1.0000 0.00000  0.00000  0.00000  Biso   1.000  Cu
  N1       1.0000 0.97220  0.68210  0.38930  Biso   1.000  N
  N2       1.0000 0.02780  0.18210  0.11070  Biso   1.000  N
  N3       1.0000 0.02780  0.31790  0.61070  Biso   1.000  N
  N4       1.0000 0.97220  0.81790  0.88930  Biso   1.000  N
  N5       1.0000 0.86390  0.76800  0.38080  Biso   1.000  N
  N6       1.0000 0.13610  0.26800  0.11920  Biso   1.000  N
  N7       1.0000 0.13610  0.23200  0.61920  Biso   1.000  N
  N8       1.0000 0.86390  0.73200  0.88080  Biso   1.000  N
  N9       1.0000 0.00480  0.87230  0.26880  Biso   1.000  N
  N10      1.0000 0.99520  0.37230  0.23120  Biso   1.000  N
  N11      1.0000 0.99520  0.12770  0.73120  Biso   1.000  N
  N12      1.0000 0.00480  0.62770  0.76880  Biso   1.000  N
  N13      1.0000 0.21330  0.53180  0.55290  Biso   1.000  N
  N14      1.0000 0.78670  0.03180  0.94710  Biso   1.000  N
  N15      1.0000 0.78670  0.46820  0.44710  Biso   1.000  N
  N16      1.0000 0.21330  0.96820  0.05290  Biso   1.000  N
  N17      1.0000 0.31940  0.49090  0.69450  Biso   1.000  N
  N18      1.0000 0.68060  0.99090  0.80550  Biso   1.000  N
  N19      1.0000 0.68060  0.50910  0.30550  Biso   1.000  N
  N20      1.0000 0.31940  0.00910  0.19450  Biso   1.000  N
  N21      1.0000 0.41470  0.63190  0.56190  Biso   1.000  N
  N22      1.0000 0.58530  0.13190  0.93810  Biso   1.000  N
  N23      1.0000 0.58530  0.36810  0.43810  Biso   1.000  N
  N24      1.0000 0.41470  0.86810  0.06190  Biso   1.000  N
  N25      1.0000 0.88310  0.88050  0.30850  Biso   1.000  N
  N26      1.0000 0.11690  0.38050  0.19150  Biso   1.000  N
  N27      1.0000 0.11690  0.11950  0.69150  Biso   1.000  N
  N28      1.0000 0.88310  0.61950  0.80850  Biso   1.000  N
  N29      1.0000 0.43940  0.55000  0.69990  Biso   1.000  N
  N30      1.0000 0.56060  0.05000  0.80010  Biso   1.000  N
  N31      1.0000 0.56060  0.45000  0.30010  Biso   1.000  N
  N32      1.0000 0.43940  0.95000  0.19990  Biso   1.000  N
  N33      1.0000 0.63300  0.81270  0.50940  Biso   1.000  N
  N34      1.0000 0.36700  0.31270  0.99060  Biso   1.000  N
  N35      1.0000 0.36700  0.18730  0.49060  Biso   1.000  N
  N36      1.0000 0.63300  0.68730  0.00940  Biso   1.000  N
  H9       1.0000 0.66300  0.86600  0.61000  Biso   1.000  H
  H10      1.0000 0.33700  0.36600  0.89000  Biso   1.000  H
  H11      1.0000 0.33700  0.13400  0.39000  Biso   1.000  H
  H12      1.0000 0.66300  0.63400  0.11000  Biso   1.000  H
  H13      1.0000 0.58000  0.87200  0.41500  Biso   1.000  H
  H14      1.0000 0.42000  0.37200  0.08500  Biso   1.000  H
  H15      1.0000 0.42000  0.12800  0.58500  Biso   1.000  H
  H16      1.0000 0.58000  0.62800  0.91500  Biso   1.000  H
  H17      1.0000 0.70900  0.77400  0.48500  Biso   1.000  H
  H18      1.0000 0.29100  0.27400  0.01500  Biso   1.000  H
  H19      1.0000 0.29100  0.22600  0.51500  Biso   1.000  H
  H20      1.0000 0.70900  0.72600  0.98500  Biso   1.000  H
  H21      1.0000 0.57900  0.74600  0.52100  Biso   1.000  H
  H22      1.0000 0.42100  0.24600  0.97900  Biso   1.000  H
  H23      1.0000 0.42100  0.25400  0.47900  Biso   1.000  H
  H24      1.0000 0.57900  0.75400  0.02100  Biso   1.000  H
