data_image0
_cell_length_a       8.041
_cell_length_b       15.768
_cell_length_c       14.549
_cell_angle_alpha    90
_cell_angle_beta     91.73
_cell_angle_gamma    90

_symmetry_space_group_name_H-M    "P 1"
_symmetry_int_tables_number       1

loop_
  _symmetry_equiv_pos_as_xyz
  'x, y, z'

loop_
  _atom_site_label
  _atom_site_occupancy
  _atom_site_fract_x
  _atom_site_fract_y
  _atom_site_fract_z
  _atom_site_thermal_displace_type
  _atom_site_B_iso_or_equiv
  _atom_site_type_symbol
  Cu1      1.0000 0.16100  0.25877  0.69172  Biso   1.000  Cu
  Cu2      1.0000 0.66100  0.24123  0.69172  Biso   1.000  Cu
  Cu3      1.0000 0.83900  0.74123  0.30828  Biso   1.000  Cu
  Cu4      1.0000 0.33900  0.75877  0.30828  Biso   1.000  Cu
  Cl1      1.0000 0.35341  0.22274  0.58785  Biso   1.000  Cl
  Cl2      1.0000 0.85341  0.27726  0.58785  Biso   1.000  Cl
  Cl3      1.0000 0.64659  0.77726  0.41215  Biso   1.000  Cl
  Cl4      1.0000 0.14659  0.72274  0.41215  Biso   1.000  Cl
  Cl5      1.0000 0.05090  0.29689  0.83147  Biso   1.000  Cl
  Cl6      1.0000 0.55090  0.20311  0.83147  Biso   1.000  Cl
  Cl7      1.0000 0.94910  0.70311  0.16853  Biso   1.000  Cl
  Cl8      1.0000 0.44910  0.79689  0.16853  Biso   1.000  Cl
  N1       1.0000 0.11490  0.13730  0.71940  Biso   1.000  N
  N2       1.0000 0.61490  0.36270  0.71940  Biso   1.000  N
  N3       1.0000 0.88510  0.86270  0.28060  Biso   1.000  N
  N4       1.0000 0.38510  0.63730  0.28060  Biso   1.000  N
  C1       1.0000 0.15390  0.06590  0.67790  Biso   1.000  C
  C2       1.0000 0.65390  0.43410  0.67790  Biso   1.000  C
  C3       1.0000 0.84610  0.93410  0.32210  Biso   1.000  C
  C4       1.0000 0.34610  0.56590  0.32210  Biso   1.000  C
  H1       1.0000 0.21650  0.06300  0.62530  Biso   1.000  H
  H2       1.0000 0.71650  0.43700  0.62530  Biso   1.000  H
  H3       1.0000 0.78350  0.93700  0.37470  Biso   1.000  H
  H4       1.0000 0.28350  0.56300  0.37470  Biso   1.000  H
  C5       1.0000 0.09040  0.99580  0.72200  Biso   1.000  C
  C6       1.0000 0.59040  0.50420  0.72200  Biso   1.000  C
  C7       1.0000 0.90960  0.00420  0.27800  Biso   1.000  C
  C8       1.0000 0.40960  0.49580  0.27800  Biso   1.000  C
  H5       1.0000 0.10210  0.93910  0.70560  Biso   1.000  H
  H6       1.0000 0.60210  0.56090  0.70560  Biso   1.000  H
  H7       1.0000 0.89790  0.06090  0.29440  Biso   1.000  H
  H8       1.0000 0.39790  0.43910  0.29440  Biso   1.000  H
  C9       1.0000 0.00620  0.02790  0.79510  Biso   1.000  C
  C10      1.0000 0.50620  0.47210  0.79510  Biso   1.000  C
  C11      1.0000 0.99380  0.97210  0.20490  Biso   1.000  C
  C12      1.0000 0.49380  0.52790  0.20490  Biso   1.000  C
  N5       1.0000 0.02370  0.11210  0.79030  Biso   1.000  N
  N6       1.0000 0.52370  0.38790  0.79030  Biso   1.000  N
  N7       1.0000 0.97630  0.88790  0.20970  Biso   1.000  N
  N8       1.0000 0.47630  0.61210  0.20970  Biso   1.000  N
  H9       1.0000 0.00500  0.15200  0.82000  Biso   1.000  H
  H10      1.0000 0.50500  0.34800  0.82000  Biso   1.000  H
  H11      1.0000 0.99500  0.84800  0.18000  Biso   1.000  H
  H12      1.0000 0.49500  0.65200  0.18000  Biso   1.000  H
  C13      1.0000 0.91290  0.98580  0.86840  Biso   1.000  C
  C14      1.0000 0.41290  0.51420  0.86840  Biso   1.000  C
  C15      1.0000 0.08710  0.01420  0.13160  Biso   1.000  C
  C16      1.0000 0.58710  0.48580  0.13160  Biso   1.000  C
  C17      1.0000 0.93430  0.89990  0.88420  Biso   1.000  C
  C18      1.0000 0.43430  0.60010  0.88420  Biso   1.000  C
  C19      1.0000 0.06570  0.10010  0.11580  Biso   1.000  C
  C20      1.0000 0.56570  0.39990  0.11580  Biso   1.000  C
  H13      1.0000 0.00510  0.86850  0.84800  Biso   1.000  H
  H14      1.0000 0.50510  0.63150  0.84800  Biso   1.000  H
  H15      1.0000 0.99490  0.13150  0.15200  Biso   1.000  H
  H16      1.0000 0.49490  0.36850  0.15200  Biso   1.000  H
  C21      1.0000 0.85010  0.86110  0.95380  Biso   1.000  C
  C22      1.0000 0.35010  0.63890  0.95380  Biso   1.000  C
  C23      1.0000 0.14990  0.13890  0.04620  Biso   1.000  C
  C24      1.0000 0.64990  0.36110  0.04620  Biso   1.000  C
  H17      1.0000 0.86370  0.80320  0.96370  Biso   1.000  H
  H18      1.0000 0.36370  0.69680  0.96370  Biso   1.000  H
  H19      1.0000 0.13630  0.19680  0.03630  Biso   1.000  H
  H20      1.0000 0.63630  0.30320  0.03630  Biso   1.000  H
  C25      1.0000 0.74840  0.90560  0.00790  Biso   1.000  C
  C26      1.0000 0.24840  0.59440  0.00790  Biso   1.000  C
  C27      1.0000 0.25160  0.09440  0.99210  Biso   1.000  C
  C28      1.0000 0.75160  0.40560  0.99210  Biso   1.000  C
  H21      1.0000 0.69390  0.87830  0.05500  Biso   1.000  H
  H22      1.0000 0.19390  0.62170  0.05500  Biso   1.000  H
  H23      1.0000 0.30610  0.12170  0.94500  Biso   1.000  H
  H24      1.0000 0.80610  0.37830  0.94500  Biso   1.000  H
  C29      1.0000 0.72490  0.99100  0.99370  Biso   1.000  C
  C30      1.0000 0.22490  0.50900  0.99370  Biso   1.000  C
  C31      1.0000 0.27510  0.00900  0.00630  Biso   1.000  C
  C32      1.0000 0.77510  0.49100  0.00630  Biso   1.000  C
  H25      1.0000 0.65450  0.02170  0.03090  Biso   1.000  H
  H26      1.0000 0.15450  0.47830  0.03090  Biso   1.000  H
  H27      1.0000 0.34550  0.97830  0.96910  Biso   1.000  H
  H28      1.0000 0.84550  0.52170  0.96910  Biso   1.000  H
  C33      1.0000 0.80670  0.03080  0.92380  Biso   1.000  C
  C34      1.0000 0.30670  0.46920  0.92380  Biso   1.000  C
  C35      1.0000 0.19330  0.96920  0.07620  Biso   1.000  C
  C36      1.0000 0.69330  0.53080  0.07620  Biso   1.000  C
  H29      1.0000 0.79050  0.08850  0.91370  Biso   1.000  H
  H30      1.0000 0.29050  0.41150  0.91370  Biso   1.000  H
  H31      1.0000 0.20950  0.91150  0.08630  Biso   1.000  H
  H32      1.0000 0.70950  0.58850  0.08630  Biso   1.000  H
  N9       1.0000 0.18490  0.38110  0.65750  Biso   1.000  N
  N10      1.0000 0.68490  0.11890  0.65750  Biso   1.000  N
  N11      1.0000 0.81510  0.61890  0.34250  Biso   1.000  N
  N12      1.0000 0.31510  0.88110  0.34250  Biso   1.000  N
  C37      1.0000 0.25040  0.41980  0.58690  Biso   1.000  C
  C38      1.0000 0.75040  0.08020  0.58690  Biso   1.000  C
  C39      1.0000 0.74960  0.58020  0.41310  Biso   1.000  C
  C40      1.0000 0.24960  0.91980  0.41310  Biso   1.000  C
  H33      1.0000 0.32040  0.39440  0.54530  Biso   1.000  H
  H34      1.0000 0.82040  0.10560  0.54530  Biso   1.000  H
  H35      1.0000 0.67960  0.60560  0.45470  Biso   1.000  H
  H36      1.0000 0.17960  0.89440  0.45470  Biso   1.000  H
  C41      1.0000 0.20010  0.50380  0.58340  Biso   1.000  C
  C42      1.0000 0.70010  0.99620  0.58340  Biso   1.000  C
  C43      1.0000 0.79990  0.49620  0.41660  Biso   1.000  C
  C44      1.0000 0.29990  0.00380  0.41660  Biso   1.000  C
  H37      1.0000 0.22910  0.54410  0.54010  Biso   1.000  H
  H38      1.0000 0.72910  0.95590  0.54010  Biso   1.000  H
  H39      1.0000 0.77090  0.45590  0.45990  Biso   1.000  H
  H40      1.0000 0.27090  0.04410  0.45990  Biso   1.000  H
  C45      1.0000 0.09890  0.51590  0.65680  Biso   1.000  C
  C46      1.0000 0.59890  0.98410  0.65680  Biso   1.000  C
  C47      1.0000 0.90110  0.48410  0.34320  Biso   1.000  C
  C48      1.0000 0.40110  0.01590  0.34320  Biso   1.000  C
  N13      1.0000 0.09530  0.44100  0.70040  Biso   1.000  N
  N14      1.0000 0.59530  0.05900  0.70040  Biso   1.000  N
  N15      1.0000 0.90470  0.55900  0.29960  Biso   1.000  N
  N16      1.0000 0.40470  0.94100  0.29960  Biso   1.000  N
  H41      1.0000 0.03200  0.42300  0.74600  Biso   1.000  H
  H42      1.0000 0.53200  0.07700  0.74600  Biso   1.000  H
  H43      1.0000 0.96800  0.57700  0.25400  Biso   1.000  H
  H44      1.0000 0.46800  0.92300  0.25400  Biso   1.000  H
  C49      1.0000 0.00810  0.58980  0.68900  Biso   1.000  C
  C50      1.0000 0.50810  0.91020  0.68900  Biso   1.000  C
  C51      1.0000 0.99190  0.41020  0.31100  Biso   1.000  C
  C52      1.0000 0.49190  0.08980  0.31100  Biso   1.000  C
  C53      1.0000 0.97360  0.60040  0.78030  Biso   1.000  C
  C54      1.0000 0.47360  0.89960  0.78030  Biso   1.000  C
  C55      1.0000 0.02640  0.39960  0.21970  Biso   1.000  C
  C56      1.0000 0.52640  0.10040  0.21970  Biso   1.000  C
  H45      1.0000 0.01450  0.56160  0.82340  Biso   1.000  H
  H46      1.0000 0.51450  0.93840  0.82340  Biso   1.000  H
  H47      1.0000 0.98550  0.43840  0.17660  Biso   1.000  H
  H48      1.0000 0.48550  0.06160  0.17660  Biso   1.000  H
  C57      1.0000 0.87840  0.66840  0.80860  Biso   1.000  C
  C58      1.0000 0.37840  0.83160  0.80860  Biso   1.000  C
  C59      1.0000 0.12160  0.33160  0.19140  Biso   1.000  C
  C60      1.0000 0.62160  0.16840  0.19140  Biso   1.000  C
  H49      1.0000 0.85630  0.67500  0.87060  Biso   1.000  H
  H50      1.0000 0.35630  0.82500  0.87060  Biso   1.000  H
  H51      1.0000 0.14370  0.32500  0.12940  Biso   1.000  H
  H52      1.0000 0.64370  0.17500  0.12940  Biso   1.000  H
  C61      1.0000 0.81710  0.72560  0.74590  Biso   1.000  C
  C62      1.0000 0.31710  0.77440  0.74590  Biso   1.000  C
  C63      1.0000 0.18290  0.27440  0.25410  Biso   1.000  C
  C64      1.0000 0.68290  0.22560  0.25410  Biso   1.000  C
  H53      1.0000 0.75010  0.77010  0.76460  Biso   1.000  H
  H54      1.0000 0.25010  0.72990  0.76460  Biso   1.000  H
  H55      1.0000 0.24990  0.22990  0.23540  Biso   1.000  H
  H56      1.0000 0.74990  0.27010  0.23540  Biso   1.000  H
  C65      1.0000 0.85500  0.71700  0.65510  Biso   1.000  C
  C66      1.0000 0.35500  0.78300  0.65510  Biso   1.000  C
  C67      1.0000 0.14500  0.28300  0.34490  Biso   1.000  C
  C68      1.0000 0.64500  0.21700  0.34490  Biso   1.000  C
  H57      1.0000 0.81670  0.75700  0.61260  Biso   1.000  H
  H58      1.0000 0.31670  0.74300  0.61260  Biso   1.000  H
  H59      1.0000 0.18330  0.24300  0.38740  Biso   1.000  H
  H60      1.0000 0.68330  0.25700  0.38740  Biso   1.000  H
  C69      1.0000 0.94900  0.64990  0.62660  Biso   1.000  C
  C70      1.0000 0.44900  0.85010  0.62660  Biso   1.000  C
  C71      1.0000 0.05100  0.35010  0.37340  Biso   1.000  C
  C72      1.0000 0.55100  0.14990  0.37340  Biso   1.000  C
  H61      1.0000 0.97320  0.64460  0.56470  Biso   1.000  H
  H62      1.0000 0.47320  0.85540  0.56470  Biso   1.000  H
  H63      1.0000 0.02680  0.35540  0.43530  Biso   1.000  H
  H64      1.0000 0.52680  0.14460  0.43530  Biso   1.000  H
