data_image0
_cell_length_a       13.253
_cell_length_b       17.436
_cell_length_c       22.578
_cell_angle_alpha    75.832
_cell_angle_beta     79.58
_cell_angle_gamma    88.295

_symmetry_space_group_name_H-M    "P 1"
_symmetry_int_tables_number       1

loop_
  _symmetry_equiv_pos_as_xyz
  'x, y, z'

loop_
  _atom_site_label
  _atom_site_occupancy
  _atom_site_fract_x
  _atom_site_fract_y
  _atom_site_fract_z
  _atom_site_thermal_displace_type
  _atom_site_B_iso_or_equiv
  _atom_site_type_symbol
  Cu1      1.0000 0.25329  0.36676  0.49122  Biso   1.000  Cu
  Cu2      1.0000 0.74671  0.63324  0.50878  Biso   1.000  Cu
  C1       1.0000 0.15910  0.48710  0.44430  Biso   1.000  C
  C2       1.0000 0.84090  0.51290  0.55570  Biso   1.000  C
  C3       1.0000 0.10320  0.55480  0.40630  Biso   1.000  C
  C4       1.0000 0.89680  0.44520  0.59370  Biso   1.000  C
  H1       1.0000 0.03350  0.55840  0.42780  Biso   1.000  H
  H2       1.0000 0.96650  0.44160  0.57220  Biso   1.000  H
  H3       1.0000 0.13840  0.60480  0.40070  Biso   1.000  H
  H4       1.0000 0.86160  0.39520  0.59930  Biso   1.000  H
  C5       1.0000 0.06730  0.60260  0.30490  Biso   1.000  C
  C6       1.0000 0.93270  0.39740  0.69510  Biso   1.000  C
  C7       1.0000 0.96500  0.61320  0.30350  Biso   1.000  C
  C8       1.0000 0.03500  0.38680  0.69650  Biso   1.000  C
  C9       1.0000 0.93760  0.67800  0.26020  Biso   1.000  C
  C10      1.0000 0.06240  0.32200  0.73980  Biso   1.000  C
  H5       1.0000 0.86820  0.68660  0.25950  Biso   1.000  H
  H6       1.0000 0.13180  0.31340  0.74050  Biso   1.000  H
  C11      1.0000 0.00790  0.73050  0.21810  Biso   1.000  C
  C12      1.0000 0.99210  0.26950  0.78190  Biso   1.000  C
  C13      1.0000 0.11010  0.71560  0.22010  Biso   1.000  C
  C14      1.0000 0.88990  0.28440  0.77990  Biso   1.000  C
  H7       1.0000 0.15960  0.74850  0.19150  Biso   1.000  H
  H8       1.0000 0.84040  0.25150  0.80850  Biso   1.000  H
  C15      1.0000 0.14160  0.65190  0.26430  Biso   1.000  C
  C16      1.0000 0.85840  0.34810  0.73570  Biso   1.000  C
  C17      1.0000 0.97790  0.80240  0.17060  Biso   1.000  C
  C18      1.0000 0.02210  0.19760  0.82940  Biso   1.000  C
  C19      1.0000 0.87480  0.78800  0.15460  Biso   1.000  C
  C20      1.0000 0.12520  0.21200  0.84540  Biso   1.000  C
  H9       1.0000 0.82420  0.77510  0.19200  Biso   1.000  H
  H10      1.0000 0.17580  0.22490  0.80800  Biso   1.000  H
  H11      1.0000 0.88010  0.74490  0.13480  Biso   1.000  H
  H12      1.0000 0.11990  0.25510  0.86520  Biso   1.000  H
  H13      1.0000 0.85480  0.83480  0.12710  Biso   1.000  H
  H14      1.0000 0.14520  0.16520  0.87290  Biso   1.000  H
  C21      1.0000 0.96300  0.87060  0.20190  Biso   1.000  C
  C22      1.0000 0.03700  0.12940  0.79810  Biso   1.000  C
  H15      1.0000 0.91160  0.85630  0.23880  Biso   1.000  H
  H16      1.0000 0.08840  0.14370  0.76120  Biso   1.000  H
  H17      1.0000 0.94140  0.91640  0.17400  Biso   1.000  H
  H18      1.0000 0.05860  0.08360  0.82600  Biso   1.000  H
  H19      1.0000 0.02650  0.88230  0.21290  Biso   1.000  H
  H20      1.0000 0.97350  0.11770  0.78710  Biso   1.000  H
  C23      1.0000 0.05700  0.82560  0.11400  Biso   1.000  C
  C24      1.0000 0.94300  0.17440  0.88600  Biso   1.000  C
  H21      1.0000 0.12100  0.83550  0.12530  Biso   1.000  H
  H22      1.0000 0.87900  0.16450  0.87470  Biso   1.000  H
  H23      1.0000 0.03630  0.87280  0.08720  Biso   1.000  H
  H24      1.0000 0.96370  0.12720  0.91280  Biso   1.000  H
  H25      1.0000 0.06510  0.78380  0.09280  Biso   1.000  H
  H26      1.0000 0.93490  0.21620  0.90720  Biso   1.000  H
  C25      1.0000 0.25600  0.63490  0.26120  Biso   1.000  C
  C26      1.0000 0.74400  0.36510  0.73880  Biso   1.000  C
  H27      1.0000 0.29380  0.68430  0.25310  Biso   1.000  H
  H28      1.0000 0.70620  0.31570  0.74690  Biso   1.000  H
  H29      1.0000 0.26720  0.60250  0.30100  Biso   1.000  H
  H30      1.0000 0.73280  0.39750  0.69900  Biso   1.000  H
  C27      1.0000 0.29570  0.59250  0.21060  Biso   1.000  C
  C28      1.0000 0.70430  0.40750  0.78940  Biso   1.000  C
  C29      1.0000 0.28490  0.51090  0.22030  Biso   1.000  C
  C30      1.0000 0.71510  0.48910  0.77970  Biso   1.000  C
  C31      1.0000 0.31530  0.47370  0.17340  Biso   1.000  C
  C32      1.0000 0.68470  0.52630  0.82660  Biso   1.000  C
  C33      1.0000 0.35560  0.52110  0.11400  Biso   1.000  C
  C34      1.0000 0.64440  0.47890  0.88600  Biso   1.000  C
  H31      1.0000 0.37550  0.49610  0.08190  Biso   1.000  H
  H32      1.0000 0.62450  0.50390  0.91810  Biso   1.000  H
  C35      1.0000 0.36710  0.60100  0.10100  Biso   1.000  C
  C36      1.0000 0.63290  0.39900  0.89900  Biso   1.000  C
  C37      1.0000 0.33550  0.63590  0.14960  Biso   1.000  C
  C38      1.0000 0.66450  0.36410  0.85040  Biso   1.000  C
  H33      1.0000 0.34060  0.69060  0.14190  Biso   1.000  H
  H34      1.0000 0.65940  0.30940  0.85810  Biso   1.000  H
  C39      1.0000 0.40690  0.64790  0.03640  Biso   1.000  C
  C40      1.0000 0.59310  0.35210  0.96360  Biso   1.000  C
  C41      1.0000 0.41650  0.73500  0.03070  Biso   1.000  C
  C42      1.0000 0.58350  0.26500  0.96930  Biso   1.000  C
  H35      1.0000 0.35090  0.75510  0.04540  Biso   1.000  H
  H36      1.0000 0.64910  0.24490  0.95460  Biso   1.000  H
  H37      1.0000 0.43960  0.76160  0.98800  Biso   1.000  H
  H38      1.0000 0.56040  0.23840  0.01200  Biso   1.000  H
  H39      1.0000 0.46510  0.74410  0.05510  Biso   1.000  H
  H40      1.0000 0.53490  0.25590  0.94490  Biso   1.000  H
  C43      1.0000 0.33910  0.64230  0.99430  Biso   1.000  C
  C44      1.0000 0.66090  0.35770  0.00570  Biso   1.000  C
  H41      1.0000 0.27270  0.66160  0.00840  Biso   1.000  H
  H42      1.0000 0.72730  0.33840  0.99160  Biso   1.000  H
  H43      1.0000 0.33280  0.58800  0.99290  Biso   1.000  H
  H44      1.0000 0.66720  0.41200  0.00710  Biso   1.000  H
  H45      1.0000 0.36650  0.67350  0.95350  Biso   1.000  H
  H46      1.0000 0.63350  0.32650  0.04650  Biso   1.000  H
  C45      1.0000 0.50560  0.62240  0.00820  Biso   1.000  C
  C46      1.0000 0.49440  0.37760  0.99180  Biso   1.000  C
  H47      1.0000 0.50100  0.56770  0.00800  Biso   1.000  H
  H48      1.0000 0.49900  0.43230  0.99200  Biso   1.000  H
  H49      1.0000 0.55680  0.62910  0.03180  Biso   1.000  H
  H50      1.0000 0.44320  0.37090  0.96820  Biso   1.000  H
  H51      1.0000 0.52420  0.65360  0.96640  Biso   1.000  H
  H52      1.0000 0.47580  0.34640  0.03360  Biso   1.000  H
  C47      1.0000 0.30340  0.38530  0.18050  Biso   1.000  C
  C48      1.0000 0.69660  0.61470  0.81950  Biso   1.000  C
  H53      1.0000 0.31330  0.35730  0.22170  Biso   1.000  H
  H54      1.0000 0.68670  0.64270  0.77830  Biso   1.000  H
  H55      1.0000 0.35610  0.36860  0.15060  Biso   1.000  H
  H56      1.0000 0.64390  0.63140  0.84940  Biso   1.000  H
  C49      1.0000 0.19840  0.36300  0.17060  Biso   1.000  C
  C50      1.0000 0.80160  0.63700  0.82940  Biso   1.000  C
  C51      1.0000 0.11210  0.34720  0.21820  Biso   1.000  C
  C52      1.0000 0.88790  0.65280  0.78180  Biso   1.000  C
  C53      1.0000 0.01710  0.33130  0.20440  Biso   1.000  C
  C54      1.0000 0.98290  0.66870  0.79560  Biso   1.000  C
  C55      1.0000 0.00930  0.33080  0.14540  Biso   1.000  C
  C56      1.0000 0.99070  0.66920  0.85460  Biso   1.000  C
  H57      1.0000 0.94550  0.32040  0.13720  Biso   1.000  H
  H58      1.0000 0.05450  0.67960  0.86280  Biso   1.000  H
  C57      1.0000 0.09170  0.34500  0.09720  Biso   1.000  C
  C58      1.0000 0.90830  0.65500  0.90280  Biso   1.000  C
  C59      1.0000 0.18370  0.36110  0.11110  Biso   1.000  C
  C60      1.0000 0.81630  0.63890  0.88890  Biso   1.000  C
  H59      1.0000 0.24020  0.37150  0.07900  Biso   1.000  H
  H60      1.0000 0.75980  0.62850  0.92100  Biso   1.000  H
  C61      1.0000 0.08450  0.34560  0.02950  Biso   1.000  C
  C62      1.0000 0.91550  0.65440  0.97050  Biso   1.000  C
  C63      1.0000 0.12540  0.42410  0.98830  Biso   1.000  C
  C64      1.0000 0.87460  0.57590  0.01170  Biso   1.000  C
  H61      1.0000 0.08290  0.46570  0.99950  Biso   1.000  H
  H62      1.0000 0.91710  0.53430  0.00050  Biso   1.000  H
  H63      1.0000 0.12500  0.42440  0.94580  Biso   1.000  H
  H64      1.0000 0.87500  0.57560  0.05420  Biso   1.000  H
  H65      1.0000 0.19430  0.43210  0.99350  Biso   1.000  H
  H66      1.0000 0.80570  0.56790  0.00650  Biso   1.000  H
  C65      1.0000 0.15000  0.28000  0.01180  Biso   1.000  C
  C66      1.0000 0.85000  0.72000  0.98820  Biso   1.000  C
  H67      1.0000 0.14600  0.27850  0.97010  Biso   1.000  H
  H68      1.0000 0.85400  0.72150  0.02990  Biso   1.000  H
  H69      1.0000 0.12600  0.23040  0.03960  Biso   1.000  H
  H70      1.0000 0.87400  0.76960  0.96040  Biso   1.000  H
  H71      1.0000 0.22000  0.28900  0.01450  Biso   1.000  H
  H72      1.0000 0.78000  0.71100  0.98550  Biso   1.000  H
  C67      1.0000 0.97630  0.33590  0.02280  Biso   1.000  C
  C68      1.0000 0.02370  0.66410  0.97720  Biso   1.000  C
  H73      1.0000 0.93660  0.37920  0.03340  Biso   1.000  H
  H74      1.0000 0.06340  0.62080  0.96660  Biso   1.000  H
  H75      1.0000 0.94840  0.28710  0.05010  Biso   1.000  H
  H76      1.0000 0.05160  0.71290  0.94990  Biso   1.000  H
  H77      1.0000 0.97410  0.33530  0.98070  Biso   1.000  H
  H78      1.0000 0.02590  0.66470  0.01930  Biso   1.000  H
  C69      1.0000 0.92300  0.31610  0.25550  Biso   1.000  C
  C70      1.0000 0.07700  0.68390  0.74450  Biso   1.000  C
  H79      1.0000 0.94390  0.28950  0.29430  Biso   1.000  H
  H80      1.0000 0.05610  0.71050  0.70570  Biso   1.000  H
  H81      1.0000 0.87630  0.28070  0.24610  Biso   1.000  H
  H82      1.0000 0.12370  0.71930  0.75390  Biso   1.000  H
  C71      1.0000 0.86560  0.39180  0.26390  Biso   1.000  C
  C72      1.0000 0.13440  0.60820  0.73610  Biso   1.000  C
  C73      1.0000 0.89180  0.43380  0.30360  Biso   1.000  C
  C74      1.0000 0.10820  0.56620  0.69640  Biso   1.000  C
  C75      1.0000 0.84370  0.50500  0.30790  Biso   1.000  C
  C76      1.0000 0.15630  0.49500  0.69210  Biso   1.000  C
  C77      1.0000 0.76480  0.53060  0.27450  Biso   1.000  C
  C78      1.0000 0.23520  0.46940  0.72550  Biso   1.000  C
  H83      1.0000 0.73180  0.57760  0.27790  Biso   1.000  H
  H84      1.0000 0.26820  0.42240  0.72210  Biso   1.000  H
  C79      1.0000 0.73440  0.48760  0.23610  Biso   1.000  C
  C80      1.0000 0.26560  0.51240  0.76390  Biso   1.000  C
  C81      1.0000 0.78660  0.41860  0.22970  Biso   1.000  C
  C82      1.0000 0.21340  0.58140  0.77030  Biso   1.000  C
  H85      1.0000 0.76950  0.39030  0.20300  Biso   1.000  H
  H86      1.0000 0.23050  0.60970  0.79700  Biso   1.000  H
  C83      1.0000 0.64740  0.51660  0.20040  Biso   1.000  C
  C84      1.0000 0.35260  0.48340  0.79960  Biso   1.000  C
  C85      1.0000 0.66890  0.60260  0.16360  Biso   1.000  C
  C86      1.0000 0.33110  0.39740  0.83640  Biso   1.000  C
  H87      1.0000 0.73100  0.60540  0.13370  Biso   1.000  H
  H88      1.0000 0.26900  0.39460  0.86630  Biso   1.000  H
  H89      1.0000 0.67620  0.63480  0.19160  Biso   1.000  H
  H90      1.0000 0.32380  0.36520  0.80840  Biso   1.000  H
  H91      1.0000 0.61290  0.62140  0.14260  Biso   1.000  H
  H92      1.0000 0.38710  0.37860  0.85740  Biso   1.000  H
  C87      1.0000 0.54730  0.51120  0.24530  Biso   1.000  C
  C88      1.0000 0.45270  0.48880  0.75470  Biso   1.000  C
  H93      1.0000 0.55270  0.54130  0.27500  Biso   1.000  H
  H94      1.0000 0.44730  0.45870  0.72500  Biso   1.000  H
  H95      1.0000 0.53210  0.45690  0.26640  Biso   1.000  H
  H96      1.0000 0.46790  0.54310  0.73360  Biso   1.000  H
  H97      1.0000 0.49340  0.53210  0.22290  Biso   1.000  H
  H98      1.0000 0.50660  0.46790  0.77710  Biso   1.000  H
  C89      1.0000 0.63260  0.47020  0.15420  Biso   1.000  C
  C90      1.0000 0.36740  0.52980  0.84580  Biso   1.000  C
  H99      1.0000 0.69430  0.47320  0.12390  Biso   1.000  H
  H100     1.0000 0.30570  0.52680  0.87610  Biso   1.000  H
  H101     1.0000 0.57690  0.49200  0.13380  Biso   1.000  H
  H102     1.0000 0.42310  0.50800  0.86620  Biso   1.000  H
  H103     1.0000 0.61720  0.41590  0.17550  Biso   1.000  H
  H104     1.0000 0.38280  0.58410  0.82450  Biso   1.000  H
  C91      1.0000 0.88040  0.55540  0.34350  Biso   1.000  C
  C92      1.0000 0.11960  0.44460  0.65650  Biso   1.000  C
  H105     1.0000 0.90660  0.52220  0.37850  Biso   1.000  H
  H106     1.0000 0.09340  0.47780  0.62150  Biso   1.000  H
  H107     1.0000 0.82340  0.58500  0.35980  Biso   1.000  H
  H108     1.0000 0.17660  0.41500  0.64020  Biso   1.000  H
  C93      1.0000 0.31900  0.25850  0.58950  Biso   1.000  C
  C94      1.0000 0.68100  0.74150  0.41050  Biso   1.000  C
  C95      1.0000 0.33030  0.23170  0.65730  Biso   1.000  C
  C96      1.0000 0.66970  0.76830  0.34270  Biso   1.000  C
  H109     1.0000 0.36390  0.27310  0.66880  Biso   1.000  H
  H110     1.0000 0.63610  0.72690  0.33120  Biso   1.000  H
  H111     1.0000 0.26300  0.22180  0.68340  Biso   1.000  H
  H112     1.0000 0.73700  0.77820  0.31660  Biso   1.000  H
  C97      1.0000 0.34640  0.10020  0.71660  Biso   1.000  C
  C98      1.0000 0.65360  0.89980  0.28340  Biso   1.000  C
  C99      1.0000 0.35020  0.10090  0.77530  Biso   1.000  C
  C100     1.0000 0.64980  0.89910  0.22470  Biso   1.000  C
  C101     1.0000 0.30460  0.03820  0.82520  Biso   1.000  C
  C102     1.0000 0.69540  0.96180  0.17480  Biso   1.000  C
  H113     1.0000 0.30550  0.03900  0.86610  Biso   1.000  H
  H114     1.0000 0.69450  0.96100  0.13390  Biso   1.000  H
  C103     1.0000 0.25840  0.97490  0.81140  Biso   1.000  C
  C104     1.0000 0.74160  0.02510  0.18860  Biso   1.000  C
  C105     1.0000 0.26100  0.97630  0.75020  Biso   1.000  C
  C106     1.0000 0.73900  0.02370  0.24980  Biso   1.000  C
  H115     1.0000 0.23000  0.93420  0.74150  Biso   1.000  H
  H116     1.0000 0.77000  0.06580  0.25850  Biso   1.000  H
  C107     1.0000 0.30520  0.03440  0.70140  Biso   1.000  C
  C108     1.0000 0.69480  0.96560  0.29860  Biso   1.000  C
  C109     1.0000 0.20450  0.90580  0.86330  Biso   1.000  C
  C110     1.0000 0.79550  0.09420  0.13670  Biso   1.000  C
  C111     1.0000 0.21610  0.90930  0.92370  Biso   1.000  C
  C112     1.0000 0.78390  0.09070  0.07630  Biso   1.000  C
  H117     1.0000 0.18320  0.86390  0.95340  Biso   1.000  H
  H118     1.0000 0.81680  0.13610  0.04660  Biso   1.000  H
  H119     1.0000 0.18530  0.95660  0.93280  Biso   1.000  H
  H120     1.0000 0.81470  0.04340  0.06720  Biso   1.000  H
  H121     1.0000 0.28780  0.90970  0.92580  Biso   1.000  H
  H122     1.0000 0.71220  0.09030  0.07420  Biso   1.000  H
  C113     1.0000 0.09870  0.89320  0.85830  Biso   1.000  C
  C114     1.0000 0.90130  0.10680  0.14170  Biso   1.000  C
  H123     1.0000 0.09610  0.88770  0.81730  Biso   1.000  H
  H124     1.0000 0.90390  0.11230  0.18270  Biso   1.000  H
  H125     1.0000 0.05840  0.93760  0.86600  Biso   1.000  H
  H126     1.0000 0.94160  0.06240  0.13400  Biso   1.000  H
  H127     1.0000 0.07160  0.84590  0.88820  Biso   1.000  H
  H128     1.0000 0.92840  0.15410  0.11180  Biso   1.000  H
  C115     1.0000 0.25610  0.83190  0.85330  Biso   1.000  C
  C116     1.0000 0.74390  0.16810  0.14670  Biso   1.000  C
  H129     1.0000 0.25270  0.82690  0.81220  Biso   1.000  H
  H130     1.0000 0.74730  0.17310  0.18780  Biso   1.000  H
  H131     1.0000 0.22220  0.78720  0.88330  Biso   1.000  H
  H132     1.0000 0.77780  0.21280  0.11670  Biso   1.000  H
  H133     1.0000 0.32650  0.83380  0.85770  Biso   1.000  H
  H134     1.0000 0.67350  0.16620  0.14230  Biso   1.000  H
  C117     1.0000 0.40930  0.16580  0.79390  Biso   1.000  C
  C118     1.0000 0.59070  0.83420  0.20610  Biso   1.000  C
  H135     1.0000 0.40600  0.21630  0.76450  Biso   1.000  H
  H136     1.0000 0.59400  0.78370  0.23550  Biso   1.000  H
  H137     1.0000 0.37710  0.17120  0.83480  Biso   1.000  H
  H138     1.0000 0.62290  0.82880  0.16520  Biso   1.000  H
  C119     1.0000 0.52040  0.14250  0.79420  Biso   1.000  C
  C120     1.0000 0.47960  0.85750  0.20580  Biso   1.000  C
  C121     1.0000 0.59680  0.17330  0.74400  Biso   1.000  C
  C122     1.0000 0.40320  0.82670  0.25600  Biso   1.000  C
  C123     1.0000 0.69490  0.14770  0.74170  Biso   1.000  C
  C124     1.0000 0.30510  0.85230  0.25830  Biso   1.000  C
  C125     1.0000 0.71680  0.09020  0.79040  Biso   1.000  C
  C126     1.0000 0.28320  0.90980  0.20960  Biso   1.000  C
  H139     1.0000 0.78340  0.07130  0.78810  Biso   1.000  H
  H140     1.0000 0.21660  0.92870  0.21190  Biso   1.000  H
  C127     1.0000 0.64510  0.05830  0.84320  Biso   1.000  C
  C128     1.0000 0.35490  0.94170  0.15680  Biso   1.000  C
  C129     1.0000 0.54720  0.08620  0.84340  Biso   1.000  C
  C130     1.0000 0.45280  0.91380  0.15660  Biso   1.000  C
  H141     1.0000 0.49690  0.06660  0.87800  Biso   1.000  H
  H142     1.0000 0.50310  0.93340  0.12200  Biso   1.000  H
  C131     1.0000 0.66900  0.98870  0.89470  Biso   1.000  C
  C132     1.0000 0.33100  0.01130  0.10530  Biso   1.000  C
  C133     1.0000 0.77690  0.96520  0.88750  Biso   1.000  C
  C134     1.0000 0.22310  0.03480  0.11250  Biso   1.000  C
  H143     1.0000 0.82030  0.01150  0.87570  Biso   1.000  H
  H144     1.0000 0.17970  0.98850  0.12430  Biso   1.000  H
  H145     1.0000 0.79100  0.93620  0.85590  Biso   1.000  H
  H146     1.0000 0.20900  0.06380  0.14410  Biso   1.000  H
  H147     1.0000 0.79000  0.93240  0.92610  Biso   1.000  H
  H148     1.0000 0.21000  0.06760  0.07390  Biso   1.000  H
  C135     1.0000 0.65880  0.02810  0.95180  Biso   1.000  C
  C136     1.0000 0.34120  0.97190  0.04820  Biso   1.000  C
  H149     1.0000 0.70820  0.07060  0.94220  Biso   1.000  H
  H150     1.0000 0.29180  0.92940  0.05780  Biso   1.000  H
  H151     1.0000 0.67110  0.98920  0.98780  Biso   1.000  H
  H152     1.0000 0.32890  0.01080  0.01220  Biso   1.000  H
  H153     1.0000 0.59090  0.04850  0.95980  Biso   1.000  H
  H154     1.0000 0.40910  0.95150  0.04020  Biso   1.000  H
  C137     1.0000 0.59040  0.92620  0.91780  Biso   1.000  C
  C138     1.0000 0.40960  0.07380  0.08220  Biso   1.000  C
  H155     1.0000 0.52390  0.94950  0.92380  Biso   1.000  H
  H156     1.0000 0.47610  0.05050  0.07620  Biso   1.000  H
  H157     1.0000 0.60260  0.89330  0.95660  Biso   1.000  H
  H158     1.0000 0.39740  0.10670  0.04340  Biso   1.000  H
  H159     1.0000 0.59300  0.89470  0.88820  Biso   1.000  H
  H160     1.0000 0.40700  0.10530  0.11180  Biso   1.000  H
  C139     1.0000 0.77970  0.17550  0.68490  Biso   1.000  C
  C140     1.0000 0.22030  0.82450  0.31510  Biso   1.000  C
  H161     1.0000 0.76070  0.22560  0.65990  Biso   1.000  H
  H162     1.0000 0.23930  0.77440  0.34010  Biso   1.000  H
  H163     1.0000 0.84290  0.18390  0.69860  Biso   1.000  H
  H164     1.0000 0.15710  0.81610  0.30140  Biso   1.000  H
  C141     1.0000 0.79690  0.11640  0.64650  Biso   1.000  C
  C142     1.0000 0.20310  0.88360  0.35350  Biso   1.000  C
  C143     1.0000 0.73640  0.11230  0.60360  Biso   1.000  C
  C144     1.0000 0.26360  0.88770  0.39640  Biso   1.000  C
  C145     1.0000 0.75130  0.05340  0.56990  Biso   1.000  C
  C146     1.0000 0.24870  0.94660  0.43010  Biso   1.000  C
  C147     1.0000 0.82770  0.99730  0.58140  Biso   1.000  C
  C148     1.0000 0.17230  0.00270  0.41860  Biso   1.000  C
  H165     1.0000 0.83900  0.95930  0.55840  Biso   1.000  H
  H166     1.0000 0.16100  0.04070  0.44160  Biso   1.000  H
  C149     1.0000 0.88590  0.99680  0.62560  Biso   1.000  C
  C150     1.0000 0.11410  0.00320  0.37440  Biso   1.000  C
  C151     1.0000 0.87150  0.05770  0.65640  Biso   1.000  C
  C152     1.0000 0.12850  0.94230  0.34360  Biso   1.000  C
  H167     1.0000 0.91340  0.05960  0.68500  Biso   1.000  H
  H168     1.0000 0.08660  0.94040  0.31500  Biso   1.000  H
  C153     1.0000 0.96700  0.93410  0.63920  Biso   1.000  C
  C154     1.0000 0.03300  0.06590  0.36080  Biso   1.000  C
  C155     1.0000 0.92680  0.85470  0.64080  Biso   1.000  C
  C156     1.0000 0.07320  0.14530  0.35920  Biso   1.000  C
  H169     1.0000 0.90120  0.85700  0.60330  Biso   1.000  H
  H170     1.0000 0.09880  0.14300  0.39670  Biso   1.000  H
  H171     1.0000 0.87230  0.83900  0.67580  Biso   1.000  H
  H172     1.0000 0.12770  0.16100  0.32420  Biso   1.000  H
  H173     1.0000 0.98090  0.81700  0.64430  Biso   1.000  H
  H174     1.0000 0.01910  0.18300  0.35570  Biso   1.000  H
  C157     1.0000 0.05800  0.94800  0.58550  Biso   1.000  C
  C158     1.0000 0.94200  0.05200  0.41450  Biso   1.000  C
  H175     1.0000 0.08960  0.99830  0.58130  Biso   1.000  H
  H176     1.0000 0.91040  0.00170  0.41870  Biso   1.000  H
  H177     1.0000 0.03460  0.94740  0.54780  Biso   1.000  H
  H178     1.0000 0.96540  0.05260  0.45220  Biso   1.000  H
  H179     1.0000 0.10710  0.90690  0.59370  Biso   1.000  H
  H180     1.0000 0.89290  0.09310  0.40630  Biso   1.000  H
  C159     1.0000 0.00850  0.92940  0.69840  Biso   1.000  C
  C160     1.0000 0.99150  0.07060  0.30160  Biso   1.000  C
  H181     1.0000 0.03700  0.97990  0.69700  Biso   1.000  H
  H182     1.0000 0.96300  0.02010  0.30300  Biso   1.000  H
  H183     1.0000 0.06080  0.89020  0.70200  Biso   1.000  H
  H184     1.0000 0.93920  0.10980  0.29800  Biso   1.000  H
  H185     1.0000 0.95380  0.91520  0.73350  Biso   1.000  H
  H186     1.0000 0.04620  0.08480  0.26650  Biso   1.000  H
  C161     1.0000 0.68600  0.04370  0.52440  Biso   1.000  C
  C162     1.0000 0.31400  0.95630  0.47560  Biso   1.000  C
  H187     1.0000 0.72300  0.01480  0.49580  Biso   1.000  H
  H188     1.0000 0.27700  0.98520  0.50420  Biso   1.000  H
  H189     1.0000 0.66860  0.09500  0.50070  Biso   1.000  H
  H190     1.0000 0.33140  0.90500  0.49930  Biso   1.000  H
  C163     1.0000 0.58800  0.99770  0.56120  Biso   1.000  C
  C164     1.0000 0.41200  0.00230  0.43880  Biso   1.000  C
  C165     1.0000 0.49510  0.03440  0.57710  Biso   1.000  C
  C166     1.0000 0.50490  0.96560  0.42290  Biso   1.000  C
  C167     1.0000 0.41160  0.99060  0.61320  Biso   1.000  C
  C168     1.0000 0.58840  0.00940  0.38680  Biso   1.000  C
  C169     1.0000 0.42230  0.91010  0.63160  Biso   1.000  C
  C170     1.0000 0.57770  0.08990  0.36840  Biso   1.000  C
  H191     1.0000 0.36570  0.87990  0.65520  Biso   1.000  H
  H192     1.0000 0.63430  0.12010  0.34480  Biso   1.000  H
  C171     1.0000 0.51270  0.87140  0.61690  Biso   1.000  C
  C172     1.0000 0.48730  0.12860  0.38310  Biso   1.000  C
  C173     1.0000 0.59250  0.91580  0.57960  Biso   1.000  C
  C174     1.0000 0.40750  0.08420  0.42040  Biso   1.000  C
  H193     1.0000 0.65190  0.89070  0.56590  Biso   1.000  H
  H194     1.0000 0.34810  0.10930  0.43410  Biso   1.000  H
  C175     1.0000 0.51500  0.78270  0.64200  Biso   1.000  C
  C176     1.0000 0.48500  0.21730  0.35800  Biso   1.000  C
  C177     1.0000 0.48950  0.76230  0.71160  Biso   1.000  C
  C178     1.0000 0.51050  0.23770  0.28840  Biso   1.000  C
  H195     1.0000 0.49000  0.70590  0.72710  Biso   1.000  H
  H196     1.0000 0.51000  0.29410  0.27290  Biso   1.000  H
  H197     1.0000 0.42260  0.78170  0.72460  Biso   1.000  H
  H198     1.0000 0.57740  0.21830  0.27540  Biso   1.000  H
  H199     1.0000 0.53950  0.78630  0.72760  Biso   1.000  H
  H200     1.0000 0.46050  0.21370  0.27240  Biso   1.000  H
  C179     1.0000 0.44170  0.74140  0.61460  Biso   1.000  C
  C180     1.0000 0.55830  0.25860  0.38540  Biso   1.000  C
  H201     1.0000 0.46090  0.75450  0.57010  Biso   1.000  H
  H202     1.0000 0.53910  0.24550  0.42990  Biso   1.000  H
  H203     1.0000 0.37300  0.75840  0.62600  Biso   1.000  H
  H204     1.0000 0.62700  0.24160  0.37400  Biso   1.000  H
  H205     1.0000 0.44520  0.68520  0.63030  Biso   1.000  H
  H206     1.0000 0.55480  0.31480  0.36970  Biso   1.000  H
  C181     1.0000 0.62090  0.74790  0.62310  Biso   1.000  C
  C182     1.0000 0.37910  0.25210  0.37690  Biso   1.000  C
  H207     1.0000 0.63770  0.75820  0.57860  Biso   1.000  H
  H208     1.0000 0.36230  0.24180  0.42140  Biso   1.000  H
  H209     1.0000 0.61900  0.69180  0.64060  Biso   1.000  H
  H210     1.0000 0.38100  0.30820  0.35940  Biso   1.000  H
  H211     1.0000 0.67190  0.77200  0.63820  Biso   1.000  H
  H212     1.0000 0.32810  0.22800  0.36180  Biso   1.000  H
  C183     1.0000 0.31240  0.02970  0.63570  Biso   1.000  C
  C184     1.0000 0.68760  0.97030  0.36430  Biso   1.000  C
  H213     1.0000 0.30980  0.08260  0.60950  Biso   1.000  H
  H214     1.0000 0.69020  0.91740  0.39050  Biso   1.000  H
  H215     1.0000 0.25420  0.99960  0.63230  Biso   1.000  H
  H216     1.0000 0.74580  0.00040  0.36770  Biso   1.000  H
  C185     1.0000 0.05610  0.31470  0.46670  Biso   1.000  C
  C186     1.0000 0.94390  0.68530  0.53330  Biso   1.000  C
  H217     1.0000 0.05440  0.35920  0.43440  Biso   1.000  H
  H218     1.0000 0.94560  0.64080  0.56560  Biso   1.000  H
  C187     1.0000 0.10570  0.22740  0.53900  Biso   1.000  C
  C188     1.0000 0.89430  0.77260  0.46100  Biso   1.000  C
  H219     1.0000 0.14430  0.19910  0.56730  Biso   1.000  H
  H220     1.0000 0.85570  0.80090  0.43270  Biso   1.000  H
  C189     1.0000 0.01240  0.20520  0.53140  Biso   1.000  C
  C190     1.0000 0.98760  0.79480  0.46860  Biso   1.000  C
  H221     1.0000 0.97620  0.15920  0.55370  Biso   1.000  H
  H222     1.0000 0.02380  0.84080  0.44630  Biso   1.000  H
  C191     1.0000 0.88290  0.26470  0.46560  Biso   1.000  C
  C192     1.0000 0.11710  0.73530  0.53440  Biso   1.000  C
  H223     1.0000 0.84720  0.21410  0.48170  Biso   1.000  H
  H224     1.0000 0.15280  0.78590  0.51830  Biso   1.000  H
  H225     1.0000 0.89390  0.27660  0.42060  Biso   1.000  H
  H226     1.0000 0.10610  0.72340  0.57940  Biso   1.000  H
  C193     1.0000 0.81770  0.32920  0.48850  Biso   1.000  C
  C194     1.0000 0.18230  0.67080  0.51150  Biso   1.000  C
  H227     1.0000 0.80300  0.31470  0.53360  Biso   1.000  H
  H228     1.0000 0.19700  0.68530  0.46640  Biso   1.000  H
  H229     1.0000 0.85690  0.37840  0.47550  Biso   1.000  H
  H230     1.0000 0.14310  0.62160  0.52450  Biso   1.000  H
  C195     1.0000 0.71700  0.34230  0.46440  Biso   1.000  C
  C196     1.0000 0.28300  0.65770  0.53560  Biso   1.000  C
  H231     1.0000 0.67440  0.29490  0.48030  Biso   1.000  H
  H232     1.0000 0.32560  0.70510  0.51970  Biso   1.000  H
  H233     1.0000 0.73040  0.35330  0.41950  Biso   1.000  H
  H234     1.0000 0.26960  0.64670  0.58050  Biso   1.000  H
  C197     1.0000 0.66100  0.41190  0.48530  Biso   1.000  C
  C198     1.0000 0.33900  0.58810  0.51470  Biso   1.000  C
  H235     1.0000 0.65150  0.40210  0.53010  Biso   1.000  H
  H236     1.0000 0.34850  0.59790  0.46990  Biso   1.000  H
  H237     1.0000 0.70210  0.45980  0.46740  Biso   1.000  H
  H238     1.0000 0.29790  0.54020  0.53260  Biso   1.000  H
  C199     1.0000 0.46960  0.39130  0.49750  Biso   1.000  C
  C200     1.0000 0.53040  0.60870  0.50250  Biso   1.000  C
  H239     1.0000 0.46110  0.35950  0.53770  Biso   1.000  H
  H240     1.0000 0.53890  0.64050  0.46230  Biso   1.000  H
  C201     1.0000 0.54240  0.46510  0.40980  Biso   1.000  C
  C202     1.0000 0.45760  0.53490  0.59020  Biso   1.000  C
  H241     1.0000 0.59020  0.49460  0.37760  Biso   1.000  H
  H242     1.0000 0.40980  0.50540  0.62240  Biso   1.000  H
  C203     1.0000 0.44120  0.45600  0.41060  Biso   1.000  C
  C204     1.0000 0.55880  0.54400  0.58940  Biso   1.000  C
  H243     1.0000 0.40800  0.47800  0.37760  Biso   1.000  H
  H244     1.0000 0.59200  0.52200  0.62240  Biso   1.000  H
  N1       1.0000 0.13350  0.29880  0.49780  Biso   1.000  N
  N2       1.0000 0.86650  0.70120  0.50220  Biso   1.000  N
  N3       1.0000 0.98190  0.26080  0.48660  Biso   1.000  N
  N4       1.0000 0.01810  0.73920  0.51340  Biso   1.000  N
  N5       1.0000 0.55980  0.42250  0.46550  Biso   1.000  N
  N6       1.0000 0.44020  0.57750  0.53450  Biso   1.000  N
  N7       1.0000 0.39420  0.41000  0.46640  Biso   1.000  N
  N8       1.0000 0.60580  0.59000  0.53360  Biso   1.000  N
  O1       1.0000 0.14630  0.48490  0.50130  Biso   1.000  O
  O2       1.0000 0.85370  0.51510  0.49870  Biso   1.000  O
  O3       1.0000 0.21260  0.44340  0.41800  Biso   1.000  O
  O4       1.0000 0.78740  0.55660  0.58200  Biso   1.000  O
  O5       1.0000 0.10220  0.53860  0.34720  Biso   1.000  O
  O6       1.0000 0.89780  0.46140  0.65280  Biso   1.000  O
  O7       1.0000 0.96550  0.40950  0.33980  Biso   1.000  O
  O8       1.0000 0.03450  0.59050  0.66020  Biso   1.000  O
  H245     1.0000 0.98940  0.36750  0.33390  Biso   1.000  H
  H246     1.0000 0.01060  0.63250  0.66610  Biso   1.000  H
  O9       1.0000 0.24800  0.46150  0.27720  Biso   1.000  O
  O10      1.0000 0.75200  0.53850  0.72280  Biso   1.000  O
  H247     1.0000 0.23180  0.48770  0.30290  Biso   1.000  H
  H248     1.0000 0.76820  0.51230  0.69710  Biso   1.000  H
  O11      1.0000 0.27150  0.32300  0.57720  Biso   1.000  O
  O12      1.0000 0.72850  0.67700  0.42280  Biso   1.000  O
  O13      1.0000 0.35110  0.21920  0.55190  Biso   1.000  O
  O14      1.0000 0.64890  0.78080  0.44810  Biso   1.000  O
  O15      1.0000 0.38950  0.16100  0.66700  Biso   1.000  O
  O16      1.0000 0.61050  0.83900  0.33300  Biso   1.000  O
  O17      1.0000 0.50060  0.11600  0.55620  Biso   1.000  O
  O18      1.0000 0.49940  0.88400  0.44380  Biso   1.000  O
  H249     1.0000 0.44570  0.13490  0.56850  Biso   1.000  H
  H250     1.0000 0.55430  0.86510  0.43150  Biso   1.000  H
  O19      1.0000 0.66090  0.16780  0.59490  Biso   1.000  O
  O20      1.0000 0.33910  0.83220  0.40510  Biso   1.000  O
  H251     1.0000 0.63010  0.16020  0.56840  Biso   1.000  H
  H252     1.0000 0.36990  0.83980  0.43160  Biso   1.000  H
  O21      1.0000 0.57320  0.23220  0.69450  Biso   1.000  O
  O22      1.0000 0.42680  0.76780  0.30550  Biso   1.000  O
  H253     1.0000 0.55060  0.21170  0.67040  Biso   1.000  H
  H254     1.0000 0.44940  0.78830  0.32960  Biso   1.000  H
  O23      1.0000 0.11940  0.34450  0.27850  Biso   1.000  O
  O24      1.0000 0.88060  0.65550  0.72150  Biso   1.000  O
  H255     1.0000 0.17300  0.36800  0.28800  Biso   1.000  H
  H256     1.0000 0.82700  0.63200  0.71200  Biso   1.000  H
