data_image0
_cell_length_a       9.901
_cell_length_b       13.314
_cell_length_c       9.555
_cell_angle_alpha    100.34
_cell_angle_beta     117.81
_cell_angle_gamma    69.25

_symmetry_space_group_name_H-M    "P 1"
_symmetry_int_tables_number       1

loop_
  _symmetry_equiv_pos_as_xyz
  'x, y, z'

loop_
  _atom_site_label
  _atom_site_occupancy
  _atom_site_fract_x
  _atom_site_fract_y
  _atom_site_fract_z
  _atom_site_thermal_displace_type
  _atom_site_B_iso_or_equiv
  _atom_site_type_symbol
  Cr1      1.0000 0.34908  0.38580  0.24387  Biso   1.000  Cr
  Cr2      1.0000 0.65092  0.61420  0.75613  Biso   1.000  Cr
  Cr3      1.0000 0.51435  0.12937  0.29193  Biso   1.000  Cr
  Cr4      1.0000 0.48565  0.87063  0.70807  Biso   1.000  Cr
  Cu1      1.0000 0.00000  0.00000  0.50000  Biso   1.000  Cu
  Cu2      1.0000 0.50000  0.50000  0.00000  Biso   1.000  Cu
  N1       1.0000 0.00390  0.86340  0.37100  Biso   1.000  N
  N2       1.0000 0.99610  0.13660  0.62900  Biso   1.000  N
  N3       1.0000 0.93770  0.75000  0.17670  Biso   1.000  N
  N4       1.0000 0.06230  0.25000  0.82330  Biso   1.000  N
  H1       1.0000 0.88080  0.72250  0.08990  Biso   1.000  H
  H2       1.0000 0.11920  0.27750  0.91010  Biso   1.000  H
  N5       1.0000 0.97920  0.93840  0.66240  Biso   1.000  N
  N6       1.0000 0.02080  0.06160  0.33760  Biso   1.000  N
  N7       1.0000 0.87610  0.89810  0.79350  Biso   1.000  N
  N8       1.0000 0.12390  0.10190  0.20650  Biso   1.000  N
  H3       1.0000 0.80550  0.89030  0.81550  Biso   1.000  H
  H4       1.0000 0.19450  0.10970  0.18450  Biso   1.000  H
  N9       1.0000 0.27230  0.55870  0.83900  Biso   1.000  N
  N10      1.0000 0.72770  0.44130  0.16100  Biso   1.000  N
  N11      1.0000 0.01400  0.58970  0.71230  Biso   1.000  N
  N12      1.0000 0.98600  0.41030  0.28770  Biso   1.000  N
  H5       1.0000 0.91060  0.59250  0.68930  Biso   1.000  H
  H6       1.0000 0.08940  0.40750  0.31070  Biso   1.000  H
  N13      1.0000 0.49530  0.64300  0.11000  Biso   1.000  N
  N14      1.0000 0.50470  0.35700  0.89000  Biso   1.000  N
  N15      1.0000 0.50810  0.76990  0.29050  Biso   1.000  N
  N16      1.0000 0.49190  0.23010  0.70950  Biso   1.000  N
  H7       1.0000 0.51780  0.80230  0.37950  Biso   1.000  H
  H8       1.0000 0.48220  0.19770  0.62050  Biso   1.000  H
  O1       1.0000 0.18940  0.36650  0.10110  Biso   1.000  O
  O2       1.0000 0.81060  0.63350  0.89890  Biso   1.000  O
  O3       1.0000 0.40270  0.46750  0.19060  Biso   1.000  O
  O4       1.0000 0.59730  0.53250  0.80940  Biso   1.000  O
  O5       1.0000 0.31190  0.43150  0.39320  Biso   1.000  O
  O6       1.0000 0.68810  0.56850  0.60680  Biso   1.000  O
  O7       1.0000 0.51030  0.26340  0.29170  Biso   1.000  O
  O8       1.0000 0.48970  0.73660  0.70830  Biso   1.000  O
  O9       1.0000 0.69590  0.05520  0.33310  Biso   1.000  O
  O10      1.0000 0.30410  0.94480  0.66690  Biso   1.000  O
  O11      1.0000 0.38840  0.09840  0.12280  Biso   1.000  O
  O12      1.0000 0.61160  0.90160  0.87720  Biso   1.000  O
  O13      1.0000 0.46550  0.11850  0.42510  Biso   1.000  O
  O14      1.0000 0.53450  0.88150  0.57490  Biso   1.000  O
  C1       1.0000 0.88880  0.84510  0.23720  Biso   1.000  C
  C2       1.0000 0.11120  0.15490  0.76280  Biso   1.000  C
  H9       1.0000 0.78570  0.89320  0.19090  Biso   1.000  H
  H10      1.0000 0.21430  0.10680  0.80910  Biso   1.000  H
  C3       1.0000 0.09100  0.70400  0.27440  Biso   1.000  C
  C4       1.0000 0.90900  0.29600  0.72560  Biso   1.000  C
  H11      1.0000 0.15700  0.63680  0.26160  Biso   1.000  H
  H12      1.0000 0.84300  0.36320  0.73840  Biso   1.000  H
  C5       1.0000 0.13140  0.77410  0.39520  Biso   1.000  C
  C6       1.0000 0.86860  0.22590  0.60480  Biso   1.000  C
  H13      1.0000 0.23150  0.76270  0.48190  Biso   1.000  H
  H14      1.0000 0.76850  0.23730  0.51810  Biso   1.000  H
  C7       1.0000 0.84750  0.93530  0.65920  Biso   1.000  C
  C8       1.0000 0.15250  0.06470  0.34080  Biso   1.000  C
  H15      1.0000 0.74660  0.95650  0.57380  Biso   1.000  H
  H16      1.0000 0.25340  0.04350  0.42620  Biso   1.000  H
  C9       1.0000 0.03300  0.87490  0.88830  Biso   1.000  C
  C10      1.0000 0.96700  0.12510  0.11170  Biso   1.000  C
  H17      1.0000 0.08730  0.84660  0.98930  Biso   1.000  H
  H18      1.0000 0.91270  0.15340  0.01070  Biso   1.000  H
  C11      1.0000 0.09600  0.90040  0.80880  Biso   1.000  C
  C12      1.0000 0.90400  0.09960  0.19120  Biso   1.000  C
  H19      1.0000 0.20410  0.89350  0.84710  Biso   1.000  H
  H20      1.0000 0.79590  0.10650  0.15290  Biso   1.000  H
  C13      1.0000 0.14330  0.55330  0.84220  Biso   1.000  C
  C14      1.0000 0.85670  0.44670  0.15780  Biso   1.000  C
  H21      1.0000 0.14420  0.52690  0.92650  Biso   1.000  H
  H22      1.0000 0.85580  0.47310  0.07350  Biso   1.000  H
  C15      1.0000 0.05520  0.62150  0.61990  Biso   1.000  C
  C16      1.0000 0.94480  0.37850  0.38010  Biso   1.000  C
  H23      1.0000 0.99180  0.64910  0.52790  Biso   1.000  H
  H24      1.0000 0.00820  0.35090  0.47210  Biso   1.000  H
  C17      1.0000 0.21620  0.60270  0.69620  Biso   1.000  C
  C18      1.0000 0.78380  0.39730  0.30380  Biso   1.000  C
  H25      1.0000 0.27810  0.61720  0.65780  Biso   1.000  H
  H26      1.0000 0.72190  0.38280  0.34220  Biso   1.000  H
  C19      1.0000 0.51240  0.66700  0.25510  Biso   1.000  C
  C20      1.0000 0.48760  0.33300  0.74490  Biso   1.000  C
  H27      1.0000 0.52580  0.61940  0.32420  Biso   1.000  H
  H28      1.0000 0.47420  0.38060  0.67580  Biso   1.000  H
  C21      1.0000 0.48600  0.81360  0.16190  Biso   1.000  C
  C22      1.0000 0.51400  0.18640  0.83810  Biso   1.000  C
  H29      1.0000 0.47780  0.88400  0.15210  Biso   1.000  H
  H30      1.0000 0.52220  0.11600  0.84790  Biso   1.000  H
  C23      1.0000 0.47790  0.73570  0.05090  Biso   1.000  C
  C24      1.0000 0.52210  0.26430  0.94910  Biso   1.000  C
  H31      1.0000 0.46280  0.74320  0.94930  Biso   1.000  H
  H32      1.0000 0.53720  0.25680  0.05070  Biso   1.000  H
