data_image0
_cell_length_a       8.874
_cell_length_b       10.1413
_cell_length_c       13.767
_cell_angle_alpha    72.769
_cell_angle_beta     78.59
_cell_angle_gamma    80.606

_symmetry_space_group_name_H-M    "P 1"
_symmetry_int_tables_number       1

loop_
  _symmetry_equiv_pos_as_xyz
  'x, y, z'

loop_
  _atom_site_label
  _atom_site_occupancy
  _atom_site_fract_x
  _atom_site_fract_y
  _atom_site_fract_z
  _atom_site_thermal_displace_type
  _atom_site_B_iso_or_equiv
  _atom_site_type_symbol
  Cu1      1.0000 0.82984  0.36098  0.54891  Biso   1.000  Cu
  Cu2      1.0000 0.17016  0.63902  0.45109  Biso   1.000  Cu
  N1       1.0000 0.89530  0.29130  0.69100  Biso   1.000  N
  N2       1.0000 0.10470  0.70870  0.30900  Biso   1.000  N
  C1       1.0000 0.81750  0.33550  0.77070  Biso   1.000  C
  C2       1.0000 0.18250  0.66450  0.22930  Biso   1.000  C
  H1       1.0000 0.72720  0.39610  0.76300  Biso   1.000  H
  H2       1.0000 0.27280  0.60390  0.23700  Biso   1.000  H
  O1       1.0000 0.82640  0.16280  0.54410  Biso   1.000  O
  O2       1.0000 0.17360  0.83720  0.45590  Biso   1.000  O
  O3       1.0000 0.59770  0.23050  0.61850  Biso   1.000  O
  O4       1.0000 0.40230  0.76950  0.38150  Biso   1.000  O
  C3       1.0000 0.86990  0.29200  0.86590  Biso   1.000  C
  C4       1.0000 0.13010  0.70800  0.13410  Biso   1.000  C
  H3       1.0000 0.81590  0.32740  0.91950  Biso   1.000  H
  H4       1.0000 0.18410  0.67260  0.08050  Biso   1.000  H
  N3       1.0000 0.21470  0.56560  0.59790  Biso   1.000  N
  N4       1.0000 0.78530  0.43440  0.40210  Biso   1.000  N
  C5       1.0000 0.99300  0.20270  0.88130  Biso   1.000  C
  C6       1.0000 0.00700  0.79730  0.11870  Biso   1.000  C
  N5       1.0000 0.19100  0.08740  0.99650  Biso   1.000  N
  N6       1.0000 0.80900  0.91260  0.00350  Biso   1.000  N
  O5       1.0000 0.91840  0.66380  0.51700  Biso   1.000  O
  O6       1.0000 0.08160  0.33620  0.48300  Biso   1.000  O
  N7       1.0000 0.20900  0.07890  0.09260  Biso   1.000  N
  N8       1.0000 0.79100  0.92110  0.90740  Biso   1.000  N
  C7       1.0000 0.07290  0.15380  0.80140  Biso   1.000  C
  C8       1.0000 0.92710  0.84620  0.19860  Biso   1.000  C
  H5       1.0000 0.16200  0.09180  0.80960  Biso   1.000  H
  H6       1.0000 0.83800  0.90820  0.19040  Biso   1.000  H
  O7       1.0000 0.72660  0.53180  0.58250  Biso   1.000  O
  O8       1.0000 0.27340  0.46820  0.41750  Biso   1.000  O
  N9       1.0000 0.07900  0.13980  0.12990  Biso   1.000  N
  N10      1.0000 0.92100  0.86020  0.87010  Biso   1.000  N
  C9       1.0000 0.01940  0.19780  0.70790  Biso   1.000  C
  C10      1.0000 0.98060  0.80220  0.29210  Biso   1.000  C
  H7       1.0000 0.07170  0.16100  0.65460  Biso   1.000  H
  H8       1.0000 0.92830  0.83900  0.34540  Biso   1.000  H
  N11      1.0000 0.97900  0.19170  0.06150  Biso   1.000  N
  N12      1.0000 0.02100  0.80830  0.93850  Biso   1.000  N
  C11      1.0000 0.05780  0.15990  0.98130  Biso   1.000  C
  C12      1.0000 0.94220  0.84010  0.01870  Biso   1.000  C
  C13      1.0000 0.13730  0.62680  0.67070  Biso   1.000  C
  C14      1.0000 0.86270  0.37320  0.32930  Biso   1.000  C
  H9       1.0000 0.06170  0.70060  0.65260  Biso   1.000  H
  H10      1.0000 0.93830  0.29940  0.34740  Biso   1.000  H
  N13      1.0000 0.39210  0.31820  0.03900  Biso   1.000  N
  N14      1.0000 0.60790  0.68180  0.96100  Biso   1.000  N
  C15      1.0000 0.16540  0.58480  0.77040  Biso   1.000  C
  C16      1.0000 0.83460  0.41520  0.22960  Biso   1.000  C
  H11      1.0000 0.10970  0.62970  0.81840  Biso   1.000  H
  H12      1.0000 0.89030  0.37030  0.18160  Biso   1.000  H
  N15      1.0000 0.30610  0.41810  0.06230  Biso   1.000  N
  N16      1.0000 0.69390  0.58190  0.93770  Biso   1.000  N
  N17      1.0000 0.40540  0.31790  0.94160  Biso   1.000  N
  N18      1.0000 0.59460  0.68210  0.05840  Biso   1.000  N
  C17      1.0000 0.27910  0.47330  0.79930  Biso   1.000  C
  C18      1.0000 0.72090  0.52670  0.20070  Biso   1.000  C
  C19      1.0000 0.35730  0.41280  0.72450  Biso   1.000  C
  C20      1.0000 0.64270  0.58720  0.27550  Biso   1.000  C
  H13      1.0000 0.43400  0.33930  0.74060  Biso   1.000  H
  H14      1.0000 0.56600  0.66070  0.25940  Biso   1.000  H
  N19      1.0000 0.24910  0.49270  0.97740  Biso   1.000  N
  N20      1.0000 0.75090  0.50730  0.02260  Biso   1.000  N
  C21      1.0000 0.32440  0.45860  0.62720  Biso   1.000  C
  C22      1.0000 0.67560  0.54140  0.37280  Biso   1.000  C
  H15      1.0000 0.37960  0.41470  0.57830  Biso   1.000  H
  H16      1.0000 0.62040  0.58530  0.42170  Biso   1.000  H
  C23      1.0000 0.69080  0.14280  0.58520  Biso   1.000  C
  C24      1.0000 0.30920  0.85720  0.41480  Biso   1.000  C
  C25      1.0000 0.63370  0.00360  0.59750  Biso   1.000  C
  C26      1.0000 0.36630  0.99640  0.40250  Biso   1.000  C
  C27      1.0000 0.48040  0.98960  0.63120  Biso   1.000  C
  C28      1.0000 0.51960  0.01040  0.36880  Biso   1.000  C
  H17      1.0000 0.41370  0.06480  0.64530  Biso   1.000  H
  H18      1.0000 0.58630  0.93520  0.35470  Biso   1.000  H
  C29      1.0000 0.42180  0.86510  0.64500  Biso   1.000  C
  C30      1.0000 0.57820  0.13490  0.35500  Biso   1.000  C
  H19      1.0000 0.31750  0.85580  0.66920  Biso   1.000  H
  H20      1.0000 0.68250  0.14420  0.33080  Biso   1.000  H
  C31      1.0000 0.52360  0.75460  0.62160  Biso   1.000  C
  C32      1.0000 0.47640  0.24540  0.37840  Biso   1.000  C
  H21      1.0000 0.48610  0.67100  0.62930  Biso   1.000  H
  H22      1.0000 0.51390  0.32900  0.37070  Biso   1.000  H
  C33      1.0000 0.67760  0.76690  0.58760  Biso   1.000  C
  C34      1.0000 0.32240  0.23310  0.41240  Biso   1.000  C
  C35      1.0000 0.73610  0.89300  0.57390  Biso   1.000  C
  C36      1.0000 0.26390  0.10700  0.42610  Biso   1.000  C
  H23      1.0000 0.84040  0.90270  0.54970  Biso   1.000  H
  H24      1.0000 0.15960  0.09730  0.45030  Biso   1.000  H
  C37      1.0000 0.33820  0.01960  0.14700  Biso   1.000  C
  C38      1.0000 0.66180  0.98040  0.85300  Biso   1.000  C
  H25      1.0000 0.35930  0.92230  0.14830  Biso   1.000  H
  H26      1.0000 0.64070  0.07770  0.85170  Biso   1.000  H
  H27      1.0000 0.30590  0.02340  0.21780  Biso   1.000  H
  H28      1.0000 0.69410  0.97660  0.78220  Biso   1.000  H
  C39      1.0000 0.48230  0.08110  0.10870  Biso   1.000  C
  C40      1.0000 0.51770  0.91890  0.89130  Biso   1.000  C
  H29      1.0000 0.56190  0.02330  0.14630  Biso   1.000  H
  H30      1.0000 0.43810  0.97670  0.85370  Biso   1.000  H
  H31      1.0000 0.51370  0.08290  0.03670  Biso   1.000  H
  H32      1.0000 0.48630  0.91710  0.96330  Biso   1.000  H
  C41      1.0000 0.47100  0.21290  0.11780  Biso   1.000  C
  C42      1.0000 0.52900  0.78710  0.88220  Biso   1.000  C
  H33      1.0000 0.57480  0.23690  0.11260  Biso   1.000  H
  H34      1.0000 0.42520  0.76310  0.88740  Biso   1.000  H
  H35      1.0000 0.41590  0.21520  0.18550  Biso   1.000  H
  H36      1.0000 0.58410  0.78480  0.81450  Biso   1.000  H
  C43      1.0000 0.78470  0.64550  0.56020  Biso   1.000  C
  C44      1.0000 0.21530  0.35450  0.43980  Biso   1.000  C
  C45      1.0000 0.31200  0.43020  0.90470  Biso   1.000  C
  C46      1.0000 0.68800  0.56980  0.09530  Biso   1.000  C
