data_image0
_cell_length_a       9.8647
_cell_length_b       11.3846
_cell_length_c       12.9516
_cell_angle_alpha    90
_cell_angle_beta     107.446
_cell_angle_gamma    90

_symmetry_space_group_name_H-M    "P 1"
_symmetry_int_tables_number       1

loop_
  _symmetry_equiv_pos_as_xyz
  'x, y, z'

loop_
  _atom_site_label
  _atom_site_occupancy
  _atom_site_fract_x
  _atom_site_fract_y
  _atom_site_fract_z
  _atom_site_thermal_displace_type
  _atom_site_B_iso_or_equiv
  _atom_site_type_symbol
  Cu1      1.0000 0.00000  0.37558  0.25000  Biso   1.000  Cu
  Cu2      1.0000 0.00000  0.62442  0.75000  Biso   1.000  Cu
  S1       1.0000 0.25875  0.39859  0.49274  Biso   1.000  S
  S2       1.0000 0.74125  0.39859  0.00726  Biso   1.000  S
  S3       1.0000 0.74125  0.60141  0.50726  Biso   1.000  S
  S4       1.0000 0.25875  0.60141  0.99274  Biso   1.000  S
  N1       1.0000 0.00000  0.18530  0.25000  Biso   1.000  N
  N2       1.0000 0.00000  0.81470  0.75000  Biso   1.000  N
  N3       1.0000 0.18440  0.37126  0.21701  Biso   1.000  N
  N4       1.0000 0.81560  0.37126  0.28299  Biso   1.000  N
  N5       1.0000 0.81560  0.62874  0.78299  Biso   1.000  N
  N6       1.0000 0.18440  0.62874  0.71701  Biso   1.000  N
  H1       1.0000 0.17910  0.42390  0.16580  Biso   1.000  H
  H2       1.0000 0.82090  0.42390  0.33420  Biso   1.000  H
  H3       1.0000 0.82090  0.57610  0.83420  Biso   1.000  H
  H4       1.0000 0.17910  0.57610  0.66580  Biso   1.000  H
  H5       1.0000 0.18850  0.30420  0.18960  Biso   1.000  H
  H6       1.0000 0.81150  0.30420  0.31040  Biso   1.000  H
  H7       1.0000 0.81150  0.69580  0.81040  Biso   1.000  H
  H8       1.0000 0.18850  0.69580  0.68960  Biso   1.000  H
  N7       1.0000 0.00000  0.56240  0.25000  Biso   1.000  N
  N8       1.0000 0.00000  0.43760  0.75000  Biso   1.000  N
  N9       1.0000 0.73000  0.15580  0.38450  Biso   1.000  N
  N10      1.0000 0.27000  0.15580  0.11550  Biso   1.000  N
  N11      1.0000 0.27000  0.84420  0.61550  Biso   1.000  N
  N12      1.0000 0.73000  0.84420  0.88450  Biso   1.000  N
  O1       1.0000 0.31880  0.30100  0.55930  Biso   1.000  O
  O2       1.0000 0.68120  0.30100  0.94070  Biso   1.000  O
  O3       1.0000 0.68120  0.69900  0.44070  Biso   1.000  O
  O4       1.0000 0.31880  0.69900  0.05930  Biso   1.000  O
  O5       1.0000 0.28280  0.50850  0.54890  Biso   1.000  O
  O6       1.0000 0.71720  0.50850  0.95110  Biso   1.000  O
  O7       1.0000 0.71720  0.49150  0.45110  Biso   1.000  O
  O8       1.0000 0.28280  0.49150  0.04890  Biso   1.000  O
  O9       1.0000 0.10920  0.37865  0.43436  Biso   1.000  O
  O10      1.0000 0.89080  0.37865  0.06564  Biso   1.000  O
  O11      1.0000 0.89080  0.62135  0.56564  Biso   1.000  O
  O12      1.0000 0.10920  0.62135  0.93436  Biso   1.000  O
  O13      1.0000 0.58290  0.28950  0.72320  Biso   1.000  O
  O14      1.0000 0.41710  0.28950  0.77680  Biso   1.000  O
  O15      1.0000 0.41710  0.71050  0.27680  Biso   1.000  O
  O16      1.0000 0.58290  0.71050  0.22320  Biso   1.000  O
  H9       1.0000 0.49580  0.29440  0.67910  Biso   1.000  H
  H10      1.0000 0.50420  0.29440  0.82090  Biso   1.000  H
  H11      1.0000 0.50420  0.70560  0.32090  Biso   1.000  H
  H12      1.0000 0.49580  0.70560  0.17910  Biso   1.000  H
  H13      1.0000 0.59360  0.29340  0.79610  Biso   1.000  H
  H14      1.0000 0.40640  0.29340  0.70390  Biso   1.000  H
  H15      1.0000 0.40640  0.70660  0.20390  Biso   1.000  H
  H16      1.0000 0.59360  0.70660  0.29610  Biso   1.000  H
  C1       1.0000 0.31880  0.34140  0.30310  Biso   1.000  C
  C2       1.0000 0.68120  0.34140  0.19690  Biso   1.000  C
  C3       1.0000 0.68120  0.65860  0.69690  Biso   1.000  C
  C4       1.0000 0.31880  0.65860  0.80310  Biso   1.000  C
  H17      1.0000 0.39740  0.33840  0.27270  Biso   1.000  H
  H18      1.0000 0.60260  0.33840  0.22730  Biso   1.000  H
  H19      1.0000 0.60260  0.66160  0.72730  Biso   1.000  H
  H20      1.0000 0.39740  0.66160  0.77270  Biso   1.000  H
  H21      1.0000 0.31010  0.26520  0.33400  Biso   1.000  H
  H22      1.0000 0.68990  0.26520  0.16600  Biso   1.000  H
  H23      1.0000 0.68990  0.73480  0.66600  Biso   1.000  H
  H24      1.0000 0.31010  0.73480  0.83400  Biso   1.000  H
  C5       1.0000 0.34590  0.43800  0.39190  Biso   1.000  C
  C6       1.0000 0.65410  0.43800  0.10810  Biso   1.000  C
  C7       1.0000 0.65410  0.56200  0.60810  Biso   1.000  C
  C8       1.0000 0.34590  0.56200  0.89190  Biso   1.000  C
  H25      1.0000 0.30930  0.51260  0.35910  Biso   1.000  H
  H26      1.0000 0.69070  0.51260  0.14090  Biso   1.000  H
  H27      1.0000 0.69070  0.48740  0.64090  Biso   1.000  H
  H28      1.0000 0.30930  0.48740  0.85910  Biso   1.000  H
  H29      1.0000 0.44720  0.44640  0.42650  Biso   1.000  H
  H30      1.0000 0.55280  0.44640  0.07350  Biso   1.000  H
  H31      1.0000 0.55280  0.55360  0.57350  Biso   1.000  H
  H32      1.0000 0.44720  0.55360  0.92650  Biso   1.000  H
  C9       1.0000 0.30850  0.43310  0.29960  Biso   1.000  C
  C10      1.0000 0.69150  0.43310  0.20040  Biso   1.000  C
  C11      1.0000 0.69150  0.56690  0.70040  Biso   1.000  C
  C12      1.0000 0.30850  0.56690  0.79960  Biso   1.000  C
  H33      1.0000 0.38800  0.43870  0.27030  Biso   1.000  H
  H34      1.0000 0.61200  0.43870  0.22970  Biso   1.000  H
  H35      1.0000 0.61200  0.56130  0.72970  Biso   1.000  H
  H36      1.0000 0.38800  0.56130  0.77030  Biso   1.000  H
  H37      1.0000 0.27990  0.51230  0.31130  Biso   1.000  H
  H38      1.0000 0.72010  0.51230  0.18870  Biso   1.000  H
  H39      1.0000 0.72010  0.48770  0.68870  Biso   1.000  H
  H40      1.0000 0.27990  0.48770  0.81130  Biso   1.000  H
  C13      1.0000 0.35360  0.37280  0.40120  Biso   1.000  C
  C14      1.0000 0.64640  0.37280  0.09880  Biso   1.000  C
  C15      1.0000 0.64640  0.62720  0.59880  Biso   1.000  C
  C16      1.0000 0.35360  0.62720  0.90120  Biso   1.000  C
  H41      1.0000 0.45210  0.39320  0.43640  Biso   1.000  H
  H42      1.0000 0.54790  0.39320  0.06360  Biso   1.000  H
  H43      1.0000 0.54790  0.60680  0.56360  Biso   1.000  H
  H44      1.0000 0.45210  0.60680  0.93640  Biso   1.000  H
  H45      1.0000 0.35050  0.28910  0.38660  Biso   1.000  H
  H46      1.0000 0.64950  0.28910  0.11340  Biso   1.000  H
  H47      1.0000 0.64950  0.71090  0.61340  Biso   1.000  H
  H48      1.0000 0.35050  0.71090  0.88660  Biso   1.000  H
  C17      1.0000 0.01110  0.62370  0.16470  Biso   1.000  C
  C18      1.0000 0.98890  0.62370  0.33530  Biso   1.000  C
  C19      1.0000 0.98890  0.37630  0.83530  Biso   1.000  C
  C20      1.0000 0.01110  0.37630  0.66470  Biso   1.000  C
  H49      1.0000 0.01750  0.58270  0.10430  Biso   1.000  H
  H50      1.0000 0.98250  0.58270  0.39570  Biso   1.000  H
  H51      1.0000 0.98250  0.41730  0.89570  Biso   1.000  H
  H52      1.0000 0.01750  0.41730  0.60430  Biso   1.000  H
  C21      1.0000 0.01340  0.74420  0.16220  Biso   1.000  C
  C22      1.0000 0.98660  0.74420  0.33780  Biso   1.000  C
  C23      1.0000 0.98660  0.25580  0.83780  Biso   1.000  C
  C24      1.0000 0.01340  0.25580  0.66220  Biso   1.000  C
  H53      1.0000 0.02390  0.78300  0.10180  Biso   1.000  H
  H54      1.0000 0.97610  0.78300  0.39820  Biso   1.000  H
  H55      1.0000 0.97610  0.21700  0.89820  Biso   1.000  H
  H56      1.0000 0.02390  0.21700  0.60180  Biso   1.000  H
  C25      1.0000 0.00000  0.80840  0.25000  Biso   1.000  C
  C26      1.0000 0.00000  0.19160  0.75000  Biso   1.000  C
  C27      1.0000 0.94140  0.12440  0.15930  Biso   1.000  C
  C28      1.0000 0.05860  0.12440  0.34070  Biso   1.000  C
  C29      1.0000 0.05860  0.87560  0.84070  Biso   1.000  C
  C30      1.0000 0.94140  0.87560  0.65930  Biso   1.000  C
  H57      1.0000 0.90030  0.16550  0.09560  Biso   1.000  H
  H58      1.0000 0.09970  0.16550  0.40440  Biso   1.000  H
  H59      1.0000 0.09970  0.83450  0.90440  Biso   1.000  H
  H60      1.0000 0.90030  0.83450  0.59560  Biso   1.000  H
  C31      1.0000 0.93940  0.00270  0.15610  Biso   1.000  C
  C32      1.0000 0.06060  0.00270  0.34390  Biso   1.000  C
  C33      1.0000 0.06060  0.99730  0.84390  Biso   1.000  C
  C34      1.0000 0.93940  0.99730  0.65610  Biso   1.000  C
  H61      1.0000 0.89750  0.96390  0.09120  Biso   1.000  H
  H62      1.0000 0.10250  0.96390  0.40880  Biso   1.000  H
  H63      1.0000 0.10250  0.03610  0.90880  Biso   1.000  H
  H64      1.0000 0.89750  0.03610  0.59120  Biso   1.000  H
  C35      1.0000 0.00000  0.93900  0.25000  Biso   1.000  C
  C36      1.0000 0.00000  0.06100  0.75000  Biso   1.000  C
  C37      1.0000 0.54820  0.03220  0.47580  Biso   1.000  C
  C38      1.0000 0.45180  0.03220  0.02420  Biso   1.000  C
  C39      1.0000 0.45180  0.96780  0.52420  Biso   1.000  C
  C40      1.0000 0.54820  0.96780  0.97580  Biso   1.000  C
  C41      1.0000 0.59210  0.14570  0.50690  Biso   1.000  C
  C42      1.0000 0.40790  0.14570  0.99310  Biso   1.000  C
  C43      1.0000 0.40790  0.85430  0.49310  Biso   1.000  C
  C44      1.0000 0.59210  0.85430  0.00690  Biso   1.000  C
  H65      1.0000 0.56260  0.18300  0.56020  Biso   1.000  H
  H66      1.0000 0.43740  0.18300  0.93980  Biso   1.000  H
  H67      1.0000 0.43740  0.81700  0.43980  Biso   1.000  H
  H68      1.0000 0.56260  0.81700  0.06020  Biso   1.000  H
  C45      1.0000 0.68020  0.20320  0.45820  Biso   1.000  C
  C46      1.0000 0.31980  0.20320  0.04180  Biso   1.000  C
  C47      1.0000 0.31980  0.79680  0.54180  Biso   1.000  C
  C48      1.0000 0.68020  0.79680  0.95820  Biso   1.000  C
  H69      1.0000 0.70580  0.28020  0.47900  Biso   1.000  H
  H70      1.0000 0.29420  0.28020  0.02100  Biso   1.000  H
  H71      1.0000 0.29420  0.71980  0.52100  Biso   1.000  H
  H72      1.0000 0.70580  0.71980  0.97900  Biso   1.000  H
  C49      1.0000 0.69100  0.04630  0.35650  Biso   1.000  C
  C50      1.0000 0.30900  0.04630  0.14350  Biso   1.000  C
  C51      1.0000 0.30900  0.95370  0.64350  Biso   1.000  C
  C52      1.0000 0.69100  0.95370  0.85650  Biso   1.000  C
  H73      1.0000 0.72620  0.01020  0.30540  Biso   1.000  H
  H74      1.0000 0.27380  0.01020  0.19460  Biso   1.000  H
  H75      1.0000 0.27380  0.98980  0.69460  Biso   1.000  H
  H76      1.0000 0.72620  0.98980  0.80540  Biso   1.000  H
  C53      1.0000 0.60070  0.98240  0.39890  Biso   1.000  C
  C54      1.0000 0.39930  0.98240  0.10110  Biso   1.000  C
  C55      1.0000 0.39930  0.01760  0.60110  Biso   1.000  C
  C56      1.0000 0.60070  0.01760  0.89890  Biso   1.000  C
  H77      1.0000 0.57560  0.90610  0.37540  Biso   1.000  H
  H78      1.0000 0.42440  0.90610  0.12460  Biso   1.000  H
  H79      1.0000 0.42440  0.09390  0.62460  Biso   1.000  H
  H80      1.0000 0.57560  0.09390  0.87540  Biso   1.000  H
