data_image0
_cell_length_a       8.6924
_cell_length_b       8.5606
_cell_length_c       12.798
_cell_angle_alpha    90
_cell_angle_beta     90.075
_cell_angle_gamma    90

_symmetry_space_group_name_H-M    "P 1"
_symmetry_int_tables_number       1

loop_
  _symmetry_equiv_pos_as_xyz
  'x, y, z'

loop_
  _atom_site_label
  _atom_site_occupancy
  _atom_site_fract_x
  _atom_site_fract_y
  _atom_site_fract_z
  _atom_site_thermal_displace_type
  _atom_site_B_iso_or_equiv
  _atom_site_type_symbol
  Cu1      1.0000 0.00000  0.00000  0.50000  Biso   1.000  Cu
  Cu2      1.0000 0.00000  0.50000  0.00000  Biso   1.000  Cu
  Cu3      1.0000 0.64002  0.45958  0.12177  Biso   1.000  Cu
  Cu4      1.0000 0.35998  0.95958  0.37823  Biso   1.000  Cu
  Cu5      1.0000 0.35998  0.54042  0.87823  Biso   1.000  Cu
  Cu6      1.0000 0.64002  0.04042  0.62177  Biso   1.000  Cu
  O1       1.0000 0.84150  0.84400  0.54680  Biso   1.000  O
  O2       1.0000 0.15850  0.34400  0.95320  Biso   1.000  O
  O3       1.0000 0.15850  0.15600  0.45320  Biso   1.000  O
  O4       1.0000 0.84150  0.65600  0.04680  Biso   1.000  O
  H1       1.0000 0.87300  0.78500  0.59200  Biso   1.000  H
  H2       1.0000 0.12700  0.28500  0.90800  Biso   1.000  H
  H3       1.0000 0.12700  0.21500  0.40800  Biso   1.000  H
  H4       1.0000 0.87300  0.71500  0.09200  Biso   1.000  H
  H5       1.0000 0.79100  0.80600  0.49990  Biso   1.000  H
  H6       1.0000 0.20900  0.30600  0.00010  Biso   1.000  H
  H7       1.0000 0.20900  0.19400  0.50010  Biso   1.000  H
  H8       1.0000 0.79100  0.69400  0.99990  Biso   1.000  H
  N1       1.0000 0.79160  0.16700  0.43390  Biso   1.000  N
  N2       1.0000 0.20840  0.66700  0.06610  Biso   1.000  N
  N3       1.0000 0.20840  0.83300  0.56610  Biso   1.000  N
  N4       1.0000 0.79160  0.33300  0.93390  Biso   1.000  N
  N5       1.0000 0.66630  0.09960  0.47410  Biso   1.000  N
  N6       1.0000 0.33370  0.59960  0.02590  Biso   1.000  N
  N7       1.0000 0.33370  0.90040  0.52590  Biso   1.000  N
  N8       1.0000 0.66630  0.40040  0.97410  Biso   1.000  N
  N9       1.0000 0.55180  0.10000  0.40530  Biso   1.000  N
  N10      1.0000 0.44820  0.60000  0.09470  Biso   1.000  N
  N11      1.0000 0.44820  0.90000  0.59470  Biso   1.000  N
  N12      1.0000 0.55180  0.40000  0.90530  Biso   1.000  N
  N13      1.0000 0.38030  0.06570  0.23980  Biso   1.000  N
  N14      1.0000 0.61970  0.56570  0.26020  Biso   1.000  N
  N15      1.0000 0.61970  0.93430  0.76020  Biso   1.000  N
  N16      1.0000 0.38030  0.43430  0.73980  Biso   1.000  N
  N17      1.0000 0.29400  0.08550  0.15350  Biso   1.000  N
  N18      1.0000 0.70600  0.58550  0.34650  Biso   1.000  N
  N19      1.0000 0.70600  0.91450  0.84650  Biso   1.000  N
  N20      1.0000 0.29400  0.41450  0.65350  Biso   1.000  N
  N21      1.0000 0.35730  0.19470  0.09730  Biso   1.000  N
  N22      1.0000 0.64270  0.69470  0.40270  Biso   1.000  N
  N23      1.0000 0.64270  0.80530  0.90270  Biso   1.000  N
  N24      1.0000 0.35730  0.30530  0.59730  Biso   1.000  N
  N25      1.0000 0.48680  0.25040  0.14560  Biso   1.000  N
  N26      1.0000 0.51320  0.75040  0.35440  Biso   1.000  N
  N27      1.0000 0.51320  0.74960  0.85440  Biso   1.000  N
  N28      1.0000 0.48680  0.24960  0.64560  Biso   1.000  N
  N29      1.0000 0.83510  0.35490  0.17560  Biso   1.000  N
  N30      1.0000 0.16490  0.85490  0.32440  Biso   1.000  N
  N31      1.0000 0.16490  0.64510  0.82440  Biso   1.000  N
  N32      1.0000 0.83510  0.14510  0.67560  Biso   1.000  N
  N33      1.0000 0.97400  0.40250  0.13990  Biso   1.000  N
  N34      1.0000 0.02600  0.90250  0.36010  Biso   1.000  N
  N35      1.0000 0.02600  0.59750  0.86010  Biso   1.000  N
  N36      1.0000 0.97400  0.09750  0.63990  Biso   1.000  N
  N37      1.0000 0.08310  0.36870  0.20640  Biso   1.000  N
  N38      1.0000 0.91690  0.86870  0.29360  Biso   1.000  N
  N39      1.0000 0.91690  0.63130  0.79360  Biso   1.000  N
  N40      1.0000 0.08310  0.13130  0.70640  Biso   1.000  N
  N41      1.0000 0.01850  0.29500  0.28810  Biso   1.000  N
  N42      1.0000 0.98150  0.79500  0.21190  Biso   1.000  N
  N43      1.0000 0.98150  0.70500  0.71190  Biso   1.000  N
  N44      1.0000 0.01850  0.20500  0.78810  Biso   1.000  N
  C1       1.0000 0.49550  0.16820  0.23190  Biso   1.000  C
  C2       1.0000 0.50450  0.66820  0.26810  Biso   1.000  C
  C3       1.0000 0.50450  0.83180  0.76810  Biso   1.000  C
  C4       1.0000 0.49550  0.33180  0.73190  Biso   1.000  C
  C5       1.0000 0.60390  0.17150  0.31850  Biso   1.000  C
  C6       1.0000 0.39610  0.67150  0.18150  Biso   1.000  C
  C7       1.0000 0.39610  0.82850  0.68150  Biso   1.000  C
  C8       1.0000 0.60390  0.32850  0.81850  Biso   1.000  C
  C9       1.0000 0.75460  0.21330  0.33580  Biso   1.000  C
  C10      1.0000 0.24540  0.71330  0.16420  Biso   1.000  C
  C11      1.0000 0.24540  0.78670  0.66420  Biso   1.000  C
  C12      1.0000 0.75460  0.28670  0.83580  Biso   1.000  C
  C13      1.0000 0.86820  0.28780  0.26770  Biso   1.000  C
  C14      1.0000 0.13180  0.78780  0.23230  Biso   1.000  C
  C15      1.0000 0.13180  0.71220  0.73230  Biso   1.000  C
  C16      1.0000 0.86820  0.21220  0.76770  Biso   1.000  C
