data_image0
_cell_length_a       12.243
_cell_length_b       15.603
_cell_length_c       16.475
_cell_angle_alpha    90
_cell_angle_beta     90.73
_cell_angle_gamma    90

_symmetry_space_group_name_H-M    "P 1"
_symmetry_int_tables_number       1

loop_
  _symmetry_equiv_pos_as_xyz
  'x, y, z'

loop_
  _atom_site_label
  _atom_site_occupancy
  _atom_site_fract_x
  _atom_site_fract_y
  _atom_site_fract_z
  _atom_site_thermal_displace_type
  _atom_site_B_iso_or_equiv
  _atom_site_type_symbol
  Cu1      1.0000 0.75367  0.88667  0.88286  Biso   1.000  Cu
  Cu2      1.0000 0.74633  0.38667  0.61714  Biso   1.000  Cu
  Cu3      1.0000 0.24633  0.11333  0.11714  Biso   1.000  Cu
  Cu4      1.0000 0.25367  0.61333  0.38286  Biso   1.000  Cu
  S1       1.0000 0.36665  0.35856  0.91183  Biso   1.000  S
  S2       1.0000 0.13335  0.85856  0.58817  Biso   1.000  S
  S3       1.0000 0.63335  0.64144  0.08817  Biso   1.000  S
  S4       1.0000 0.86665  0.14144  0.41183  Biso   1.000  S
  N1       1.0000 0.87650  0.80030  0.88580  Biso   1.000  N
  N2       1.0000 0.62350  0.30030  0.61420  Biso   1.000  N
  N3       1.0000 0.12350  0.19970  0.11420  Biso   1.000  N
  N4       1.0000 0.37650  0.69970  0.38580  Biso   1.000  N
  N5       1.0000 0.25410  0.68670  0.88710  Biso   1.000  N
  N6       1.0000 0.24590  0.18670  0.61290  Biso   1.000  N
  N7       1.0000 0.74590  0.31330  0.11290  Biso   1.000  N
  N8       1.0000 0.75410  0.81330  0.38710  Biso   1.000  N
  N9       1.0000 0.63140  0.80080  0.88760  Biso   1.000  N
  N10      1.0000 0.86860  0.30080  0.61240  Biso   1.000  N
  N11      1.0000 0.36860  0.19920  0.11240  Biso   1.000  N
  N12      1.0000 0.13140  0.69920  0.38760  Biso   1.000  N
  C1       1.0000 0.05700  0.76870  0.84160  Biso   1.000  C
  C2       1.0000 0.44300  0.26870  0.65840  Biso   1.000  C
  C3       1.0000 0.94300  0.23130  0.15840  Biso   1.000  C
  C4       1.0000 0.55700  0.73130  0.34160  Biso   1.000  C
  H1       1.0000 0.11670  0.78420  0.81050  Biso   1.000  H
  H2       1.0000 0.38330  0.28420  0.68950  Biso   1.000  H
  H3       1.0000 0.88330  0.21580  0.18950  Biso   1.000  H
  H4       1.0000 0.61670  0.71580  0.31050  Biso   1.000  H
  C5       1.0000 0.96390  0.81870  0.84120  Biso   1.000  C
  C6       1.0000 0.53610  0.31870  0.65880  Biso   1.000  C
  C7       1.0000 0.03610  0.18130  0.15880  Biso   1.000  C
  C8       1.0000 0.46390  0.68130  0.34120  Biso   1.000  C
  H5       1.0000 0.96190  0.86720  0.80850  Biso   1.000  H
  H6       1.0000 0.53810  0.36720  0.69150  Biso   1.000  H
  H7       1.0000 0.03810  0.13280  0.19150  Biso   1.000  H
  H8       1.0000 0.46190  0.63280  0.30850  Biso   1.000  H
  C9       1.0000 0.88010  0.72950  0.93150  Biso   1.000  C
  C10      1.0000 0.61990  0.22950  0.56850  Biso   1.000  C
  C11      1.0000 0.11990  0.27050  0.06850  Biso   1.000  C
  C12      1.0000 0.38010  0.77050  0.43150  Biso   1.000  C
  H9       1.0000 0.82000  0.71620  0.96310  Biso   1.000  H
  H10      1.0000 0.68000  0.21620  0.53690  Biso   1.000  H
  H11      1.0000 0.18000  0.28380  0.03690  Biso   1.000  H
  H12      1.0000 0.32000  0.78380  0.46310  Biso   1.000  H
  C13      1.0000 0.96910  0.67540  0.93370  Biso   1.000  C
  C14      1.0000 0.53090  0.17540  0.56630  Biso   1.000  C
  C15      1.0000 0.03090  0.32460  0.06630  Biso   1.000  C
  C16      1.0000 0.46910  0.82460  0.43370  Biso   1.000  C
  H13      1.0000 0.96780  0.62580  0.96500  Biso   1.000  H
  H14      1.0000 0.53220  0.12580  0.53500  Biso   1.000  H
  H15      1.0000 0.03220  0.37420  0.03500  Biso   1.000  H
  H16      1.0000 0.46780  0.87420  0.46500  Biso   1.000  H
  C17      1.0000 0.06040  0.69540  0.88890  Biso   1.000  C
  C18      1.0000 0.43960  0.19540  0.61110  Biso   1.000  C
  C19      1.0000 0.93960  0.30460  0.11110  Biso   1.000  C
  C20      1.0000 0.56040  0.80460  0.38890  Biso   1.000  C
  C21      1.0000 0.16070  0.64240  0.88810  Biso   1.000  C
  C22      1.0000 0.33930  0.14240  0.61190  Biso   1.000  C
  C23      1.0000 0.83930  0.35760  0.11190  Biso   1.000  C
  C24      1.0000 0.66070  0.85760  0.38810  Biso   1.000  C
  C25      1.0000 0.15690  0.55380  0.88540  Biso   1.000  C
  C26      1.0000 0.34310  0.05380  0.61460  Biso   1.000  C
  C27      1.0000 0.84310  0.44620  0.11460  Biso   1.000  C
  C28      1.0000 0.65690  0.94620  0.38540  Biso   1.000  C
  H17      1.0000 0.09010  0.52550  0.88770  Biso   1.000  H
  H18      1.0000 0.40990  0.02550  0.61230  Biso   1.000  H
  H19      1.0000 0.90990  0.47450  0.11230  Biso   1.000  H
  H20      1.0000 0.59010  0.97450  0.38770  Biso   1.000  H
  C29      1.0000 0.25260  0.50740  0.87930  Biso   1.000  C
  C30      1.0000 0.24740  0.00740  0.62070  Biso   1.000  C
  C31      1.0000 0.74740  0.49260  0.12070  Biso   1.000  C
  C32      1.0000 0.75260  0.99260  0.37930  Biso   1.000  C
  C33      1.0000 0.34930  0.55320  0.87810  Biso   1.000  C
  C34      1.0000 0.15070  0.05320  0.62190  Biso   1.000  C
  C35      1.0000 0.65070  0.44680  0.12190  Biso   1.000  C
  C36      1.0000 0.84930  0.94680  0.37810  Biso   1.000  C
  H21      1.0000 0.41560  0.52460  0.87380  Biso   1.000  H
  H22      1.0000 0.08440  0.02460  0.62620  Biso   1.000  H
  H23      1.0000 0.58440  0.47540  0.12620  Biso   1.000  H
  H24      1.0000 0.91560  0.97540  0.37380  Biso   1.000  H
  C37      1.0000 0.34690  0.64170  0.88350  Biso   1.000  C
  C38      1.0000 0.15310  0.14170  0.61650  Biso   1.000  C
  C39      1.0000 0.65310  0.35830  0.11650  Biso   1.000  C
  C40      1.0000 0.84690  0.85830  0.38350  Biso   1.000  C
  C41      1.0000 0.44740  0.69460  0.88530  Biso   1.000  C
  C42      1.0000 0.05260  0.19460  0.61470  Biso   1.000  C
  C43      1.0000 0.55260  0.30540  0.11470  Biso   1.000  C
  C44      1.0000 0.94740  0.80540  0.38530  Biso   1.000  C
  C45      1.0000 0.54050  0.67390  0.84290  Biso   1.000  C
  C46      1.0000 0.95950  0.17390  0.65710  Biso   1.000  C
  C47      1.0000 0.45950  0.32610  0.15710  Biso   1.000  C
  C48      1.0000 0.04050  0.82610  0.34290  Biso   1.000  C
  H25      1.0000 0.54300  0.62340  0.81300  Biso   1.000  H
  H26      1.0000 0.95700  0.12340  0.68700  Biso   1.000  H
  H27      1.0000 0.45700  0.37660  0.18700  Biso   1.000  H
  H28      1.0000 0.04300  0.87660  0.31300  Biso   1.000  H
  C49      1.0000 0.62980  0.72800  0.84480  Biso   1.000  C
  C50      1.0000 0.87020  0.22800  0.65520  Biso   1.000  C
  C51      1.0000 0.37020  0.27200  0.15520  Biso   1.000  C
  C52      1.0000 0.12980  0.77200  0.34480  Biso   1.000  C
  H29      1.0000 0.69120  0.71320  0.81520  Biso   1.000  H
  H30      1.0000 0.80880  0.21320  0.68480  Biso   1.000  H
  H31      1.0000 0.30880  0.28680  0.18480  Biso   1.000  H
  H32      1.0000 0.19120  0.78680  0.31520  Biso   1.000  H
  C53      1.0000 0.54220  0.82090  0.92940  Biso   1.000  C
  C54      1.0000 0.95780  0.32090  0.57060  Biso   1.000  C
  C55      1.0000 0.45780  0.17910  0.07060  Biso   1.000  C
  C56      1.0000 0.04220  0.67910  0.42940  Biso   1.000  C
  H33      1.0000 0.54210  0.87120  0.95970  Biso   1.000  H
  H34      1.0000 0.95790  0.37120  0.54030  Biso   1.000  H
  H35      1.0000 0.45790  0.12880  0.04030  Biso   1.000  H
  H36      1.0000 0.04210  0.62880  0.45970  Biso   1.000  H
  C57      1.0000 0.45010  0.76990  0.92950  Biso   1.000  C
  C58      1.0000 0.04990  0.26990  0.57050  Biso   1.000  C
  C59      1.0000 0.54990  0.23010  0.07050  Biso   1.000  C
  C60      1.0000 0.95010  0.73010  0.42950  Biso   1.000  C
  H37      1.0000 0.38960  0.78620  0.95940  Biso   1.000  H
  H38      1.0000 0.11040  0.28620  0.54060  Biso   1.000  H
  H39      1.0000 0.61040  0.21380  0.04060  Biso   1.000  H
  H40      1.0000 0.88960  0.71380  0.45940  Biso   1.000  H
  C61      1.0000 0.25270  0.41290  0.87560  Biso   1.000  C
  C62      1.0000 0.24730  0.91290  0.62440  Biso   1.000  C
  C63      1.0000 0.74730  0.58710  0.12440  Biso   1.000  C
  C64      1.0000 0.75270  0.08710  0.37560  Biso   1.000  C
  C65      1.0000 0.31180  0.26270  0.88370  Biso   1.000  C
  C66      1.0000 0.18820  0.76270  0.61630  Biso   1.000  C
  C67      1.0000 0.68820  0.73730  0.11630  Biso   1.000  C
  C68      1.0000 0.81180  0.23730  0.38370  Biso   1.000  C
  H41      1.0000 0.34710  0.21050  0.89150  Biso   1.000  H
  H42      1.0000 0.15290  0.71050  0.60850  Biso   1.000  H
  H43      1.0000 0.65290  0.78950  0.10850  Biso   1.000  H
  H44      1.0000 0.84710  0.28950  0.39150  Biso   1.000  H
  C69      1.0000 0.21390  0.27010  0.84950  Biso   1.000  C
  C70      1.0000 0.28610  0.77010  0.65050  Biso   1.000  C
  C71      1.0000 0.78610  0.72990  0.15050  Biso   1.000  C
  C72      1.0000 0.71390  0.22990  0.34950  Biso   1.000  C
  H45      1.0000 0.17370  0.22320  0.83100  Biso   1.000  H
  H46      1.0000 0.32630  0.72320  0.66900  Biso   1.000  H
  H47      1.0000 0.82630  0.77680  0.16900  Biso   1.000  H
  H48      1.0000 0.67370  0.27680  0.33100  Biso   1.000  H
  C73      1.0000 0.17500  0.35700  0.84350  Biso   1.000  C
  C74      1.0000 0.32500  0.85700  0.65650  Biso   1.000  C
  C75      1.0000 0.82500  0.64300  0.15650  Biso   1.000  C
  C76      1.0000 0.67500  0.14300  0.34350  Biso   1.000  C
  C77      1.0000 0.07230  0.37730  0.80550  Biso   1.000  C
  C78      1.0000 0.42770  0.87730  0.69450  Biso   1.000  C
  C79      1.0000 0.92770  0.62270  0.19450  Biso   1.000  C
  C80      1.0000 0.57230  0.12270  0.30550  Biso   1.000  C
  H49      1.0000 0.03610  0.32530  0.78930  Biso   1.000  H
  H50      1.0000 0.46390  0.82530  0.71070  Biso   1.000  H
  H51      1.0000 0.96390  0.67470  0.21070  Biso   1.000  H
  H52      1.0000 0.53610  0.17470  0.28930  Biso   1.000  H
  H53      1.0000 0.02740  0.40780  0.84310  Biso   1.000  H
  H54      1.0000 0.47260  0.90780  0.65690  Biso   1.000  H
  H55      1.0000 0.97260  0.59220  0.15690  Biso   1.000  H
  H56      1.0000 0.52740  0.09220  0.34310  Biso   1.000  H
  H57      1.0000 0.08440  0.41230  0.75850  Biso   1.000  H
  H58      1.0000 0.41560  0.91230  0.74150  Biso   1.000  H
  H59      1.0000 0.91560  0.58770  0.24150  Biso   1.000  H
  H60      1.0000 0.58440  0.08770  0.25850  Biso   1.000  H
  O1       1.0000 0.75390  0.88270  0.74470  Biso   1.000  O
  O2       1.0000 0.74610  0.38270  0.75530  Biso   1.000  O
  O3       1.0000 0.24610  0.11730  0.25530  Biso   1.000  O
  O4       1.0000 0.25390  0.61730  0.24470  Biso   1.000  O
  O5       1.0000 0.64400  0.98130  0.86780  Biso   1.000  O
  O6       1.0000 0.85600  0.48130  0.63220  Biso   1.000  O
  O7       1.0000 0.35600  0.01870  0.13220  Biso   1.000  O
  O8       1.0000 0.14400  0.51870  0.36780  Biso   1.000  O
  C81      1.0000 0.72850  0.94700  0.70480  Biso   1.000  C
  C82      1.0000 0.77150  0.44700  0.79520  Biso   1.000  C
  C83      1.0000 0.27150  0.05300  0.29520  Biso   1.000  C
  C84      1.0000 0.22850  0.55300  0.20480  Biso   1.000  C
  C85      1.0000 0.67740  0.02040  0.73100  Biso   1.000  C
  C86      1.0000 0.82260  0.52040  0.76900  Biso   1.000  C
  C87      1.0000 0.32260  0.97960  0.26900  Biso   1.000  C
  C88      1.0000 0.17740  0.47960  0.23100  Biso   1.000  C
  H61      1.0000 0.66740  0.06480  0.69390  Biso   1.000  H
  H62      1.0000 0.83260  0.56480  0.80610  Biso   1.000  H
  H63      1.0000 0.33260  0.93520  0.30610  Biso   1.000  H
  H64      1.0000 0.16740  0.43520  0.19390  Biso   1.000  H
  C89      1.0000 0.64060  0.03190  0.80800  Biso   1.000  C
  C90      1.0000 0.85940  0.53190  0.69200  Biso   1.000  C
  C91      1.0000 0.35940  0.96810  0.19200  Biso   1.000  C
  C92      1.0000 0.14060  0.46810  0.30800  Biso   1.000  C
  C93      1.0000 0.75840  0.94280  0.61600  Biso   1.000  C
  C94      1.0000 0.74160  0.44280  0.88400  Biso   1.000  C
  C95      1.0000 0.24160  0.05720  0.38400  Biso   1.000  C
  C96      1.0000 0.25840  0.55720  0.11600  Biso   1.000  C
  C97      1.0000 0.58390  0.11600  0.82450  Biso   1.000  C
  C98      1.0000 0.91610  0.61600  0.67550  Biso   1.000  C
  C99      1.0000 0.41610  0.88400  0.17550  Biso   1.000  C
  C100     1.0000 0.08390  0.38400  0.32450  Biso   1.000  C
  O9       1.0000 0.86450  0.98010  0.87890  Biso   1.000  O
  O10      1.0000 0.63550  0.48010  0.62110  Biso   1.000  O
  O11      1.0000 0.13550  0.01990  0.12110  Biso   1.000  O
  O12      1.0000 0.36450  0.51990  0.37890  Biso   1.000  O
  O13      1.0000 0.74470  0.91580  0.01690  Biso   1.000  O
  O14      1.0000 0.75530  0.41580  0.48310  Biso   1.000  O
  O15      1.0000 0.25530  0.08420  0.98310  Biso   1.000  O
  O16      1.0000 0.24470  0.58420  0.51690  Biso   1.000  O
  C101     1.0000 0.87810  0.03950  0.92940  Biso   1.000  C
  C102     1.0000 0.62190  0.53950  0.57060  Biso   1.000  C
  C103     1.0000 0.12190  0.96050  0.07060  Biso   1.000  C
  C104     1.0000 0.37810  0.46050  0.42940  Biso   1.000  C
  C105     1.0000 0.84000  0.04710  0.00610  Biso   1.000  C
  C106     1.0000 0.66000  0.54710  0.49390  Biso   1.000  C
  C107     1.0000 0.16000  0.95290  0.99390  Biso   1.000  C
  C108     1.0000 0.34000  0.45290  0.50610  Biso   1.000  C
  H65      1.0000 0.85610  0.09710  0.03460  Biso   1.000  H
  H66      1.0000 0.64390  0.59710  0.46540  Biso   1.000  H
  H67      1.0000 0.14390  0.90290  0.96540  Biso   1.000  H
  H68      1.0000 0.35610  0.40290  0.53460  Biso   1.000  H
  C109     1.0000 0.77790  0.98440  0.04500  Biso   1.000  C
  C110     1.0000 0.72210  0.48440  0.45500  Biso   1.000  C
  C111     1.0000 0.22210  0.01560  0.95500  Biso   1.000  C
  C112     1.0000 0.27790  0.51560  0.54500  Biso   1.000  C
  C113     1.0000 0.94170  0.11320  0.89360  Biso   1.000  C
  C114     1.0000 0.55830  0.61320  0.60640  Biso   1.000  C
  C115     1.0000 0.05830  0.88680  0.10640  Biso   1.000  C
  C116     1.0000 0.44170  0.38680  0.39360  Biso   1.000  C
  C117     1.0000 0.73630  0.00420  0.12920  Biso   1.000  C
  C118     1.0000 0.76370  0.50420  0.37080  Biso   1.000  C
  C119     1.0000 0.26370  0.99580  0.87080  Biso   1.000  C
  C120     1.0000 0.23630  0.49580  0.62920  Biso   1.000  C
  F1       1.0000 0.71910  0.00630  0.57290  Biso   1.000  F
  F2       1.0000 0.78090  0.50630  0.92710  Biso   1.000  F
  F3       1.0000 0.28090  0.99370  0.42710  Biso   1.000  F
  F4       1.0000 0.21910  0.49370  0.07290  Biso   1.000  F
  F5       1.0000 0.86550  0.94600  0.60640  Biso   1.000  F
  F6       1.0000 0.63450  0.44600  0.89360  Biso   1.000  F
  F7       1.0000 0.13450  0.05400  0.39360  Biso   1.000  F
  F8       1.0000 0.36550  0.55400  0.10640  Biso   1.000  F
  F9       1.0000 0.72650  0.87220  0.58070  Biso   1.000  F
  F10      1.0000 0.77350  0.37220  0.91930  Biso   1.000  F
  F11      1.0000 0.27350  0.12780  0.41930  Biso   1.000  F
  F12      1.0000 0.22650  0.62780  0.08070  Biso   1.000  F
  F13      1.0000 0.57130  0.13150  0.90140  Biso   1.000  F
  F14      1.0000 0.92870  0.63150  0.59860  Biso   1.000  F
  F15      1.0000 0.42870  0.86850  0.09860  Biso   1.000  F
  F16      1.0000 0.07130  0.36850  0.40140  Biso   1.000  F
  F17      1.0000 0.48520  0.11890  0.79110  Biso   1.000  F
  F18      1.0000 0.01480  0.61890  0.70890  Biso   1.000  F
  F19      1.0000 0.51480  0.88110  0.20890  Biso   1.000  F
  F20      1.0000 0.98520  0.38110  0.29110  Biso   1.000  F
  F21      1.0000 0.63500  0.18230  0.79340  Biso   1.000  F
  F22      1.0000 0.86500  0.68230  0.70660  Biso   1.000  F
  F23      1.0000 0.36500  0.81770  0.20660  Biso   1.000  F
  F24      1.0000 0.13500  0.31770  0.29340  Biso   1.000  F
  F25      1.0000 0.98780  0.16250  0.94830  Biso   1.000  F
  F26      1.0000 0.51220  0.66250  0.55170  Biso   1.000  F
  F27      1.0000 0.01220  0.83750  0.05170  Biso   1.000  F
  F28      1.0000 0.48780  0.33750  0.44830  Biso   1.000  F
  F29      1.0000 0.88010  0.16260  0.84750  Biso   1.000  F
  F30      1.0000 0.61990  0.66260  0.65250  Biso   1.000  F
  F31      1.0000 0.11990  0.83740  0.15250  Biso   1.000  F
  F32      1.0000 0.38010  0.33740  0.34750  Biso   1.000  F
  F33      1.0000 0.02160  0.08730  0.84640  Biso   1.000  F
  F34      1.0000 0.47840  0.58730  0.65360  Biso   1.000  F
  F35      1.0000 0.97840  0.91270  0.15360  Biso   1.000  F
  F36      1.0000 0.52160  0.41270  0.34640  Biso   1.000  F
  F37      1.0000 0.63560  0.03390  0.12700  Biso   1.000  F
  F38      1.0000 0.86440  0.53390  0.37300  Biso   1.000  F
  F39      1.0000 0.36440  0.96610  0.87300  Biso   1.000  F
  F40      1.0000 0.13560  0.46610  0.62700  Biso   1.000  F
  F41      1.0000 0.79500  0.06180  0.16760  Biso   1.000  F
  F42      1.0000 0.70500  0.56180  0.33240  Biso   1.000  F
  F43      1.0000 0.20500  0.93820  0.83240  Biso   1.000  F
  F44      1.0000 0.29500  0.43820  0.66760  Biso   1.000  F
  F45      1.0000 0.73360  0.93656  0.17629  Biso   1.000  F
  F46      1.0000 0.76640  0.43656  0.32371  Biso   1.000  F
  F47      1.0000 0.26640  0.06344  0.82371  Biso   1.000  F
  F48      1.0000 0.23360  0.56344  0.67629  Biso   1.000  F
  F49      1.0000 0.81450  0.00890  0.59160  Biso   1.000  F
  F50      1.0000 0.68550  0.50890  0.90840  Biso   1.000  F
  F51      1.0000 0.18550  0.99110  0.40840  Biso   1.000  F
  F52      1.0000 0.31450  0.49110  0.09160  Biso   1.000  F
  F53      1.0000 0.81510  0.87450  0.59770  Biso   1.000  F
  F54      1.0000 0.68490  0.37450  0.90230  Biso   1.000  F
  F55      1.0000 0.18490  0.12550  0.40230  Biso   1.000  F
  F56      1.0000 0.31510  0.62550  0.09770  Biso   1.000  F
  F57      1.0000 0.67060  0.93990  0.56850  Biso   1.000  F
  F58      1.0000 0.82940  0.43990  0.93150  Biso   1.000  F
  F59      1.0000 0.32940  0.06010  0.43150  Biso   1.000  F
  F60      1.0000 0.17060  0.56010  0.06850  Biso   1.000  F
  F61      1.0000 0.49500  0.10650  0.86760  Biso   1.000  F
  F62      1.0000 0.00500  0.60650  0.63240  Biso   1.000  F
  F63      1.0000 0.50500  0.89350  0.13240  Biso   1.000  F
  F64      1.0000 0.99500  0.39350  0.36760  Biso   1.000  F
  F65      1.0000 0.55450  0.15720  0.75880  Biso   1.000  F
  F66      1.0000 0.94550  0.65720  0.74120  Biso   1.000  F
  F67      1.0000 0.44550  0.84280  0.24120  Biso   1.000  F
  F68      1.0000 0.05450  0.34280  0.25880  Biso   1.000  F
  F69      1.0000 0.64610  0.16920  0.86670  Biso   1.000  F
  F70      1.0000 0.85390  0.66920  0.63330  Biso   1.000  F
  F71      1.0000 0.35390  0.83080  0.13330  Biso   1.000  F
  F72      1.0000 0.14610  0.33080  0.36670  Biso   1.000  F
  F73      1.0000 0.90060  0.18830  0.91300  Biso   1.000  F
  F74      1.0000 0.59940  0.68830  0.58700  Biso   1.000  F
  F75      1.0000 0.09940  0.81170  0.08700  Biso   1.000  F
  F76      1.0000 0.40060  0.31170  0.41300  Biso   1.000  F
  F77      1.0000 0.94400  0.11150  0.81410  Biso   1.000  F
  F78      1.0000 0.55600  0.61150  0.68590  Biso   1.000  F
  F79      1.0000 0.05600  0.88850  0.18590  Biso   1.000  F
  F80      1.0000 0.44400  0.38850  0.31410  Biso   1.000  F
  F81      1.0000 0.04400  0.11500  0.91830  Biso   1.000  F
  F82      1.0000 0.45600  0.61500  0.58170  Biso   1.000  F
  F83      1.0000 0.95600  0.88500  0.08170  Biso   1.000  F
  F84      1.0000 0.54400  0.38500  0.41830  Biso   1.000  F
  F85      1.0000 0.69200  0.08050  0.13420  Biso   1.000  F
  F86      1.0000 0.80800  0.58050  0.36580  Biso   1.000  F
  F87      1.0000 0.30800  0.91950  0.86580  Biso   1.000  F
  F88      1.0000 0.19200  0.41950  0.63420  Biso   1.000  F
  F89      1.0000 0.81440  0.00200  0.18470  Biso   1.000  F
  F90      1.0000 0.68560  0.50200  0.31530  Biso   1.000  F
  F91      1.0000 0.18560  0.99800  0.81530  Biso   1.000  F
  F92      1.0000 0.31440  0.49800  0.68470  Biso   1.000  F
  F93      1.0000 0.66200  0.94970  0.15340  Biso   1.000  F
  F94      1.0000 0.83800  0.44970  0.34660  Biso   1.000  F
  F95      1.0000 0.33800  0.05030  0.84660  Biso   1.000  F
  F96      1.0000 0.16200  0.55030  0.65340  Biso   1.000  F
