data_image0
_cell_length_a       11.286
_cell_length_b       24.821
_cell_length_c       15.438
_cell_angle_alpha    90
_cell_angle_beta     108.61
_cell_angle_gamma    90

_symmetry_space_group_name_H-M    "P 1"
_symmetry_int_tables_number       1

loop_
  _symmetry_equiv_pos_as_xyz
  'x, y, z'

loop_
  _atom_site_label
  _atom_site_occupancy
  _atom_site_fract_x
  _atom_site_fract_y
  _atom_site_fract_z
  _atom_site_thermal_displace_type
  _atom_site_B_iso_or_equiv
  _atom_site_type_symbol
  Cu1      1.0000 0.10821  0.98553  0.24083  Biso   1.000  Cu
  Cu2      1.0000 0.89179  0.48553  0.25917  Biso   1.000  Cu
  Cu3      1.0000 0.89179  0.01447  0.75917  Biso   1.000  Cu
  Cu4      1.0000 0.10821  0.51447  0.74083  Biso   1.000  Cu
  N1       1.0000 0.03880  0.05386  0.17390  Biso   1.000  N
  N2       1.0000 0.96120  0.55386  0.32610  Biso   1.000  N
  N3       1.0000 0.96120  0.94614  0.82610  Biso   1.000  N
  N4       1.0000 0.03880  0.44614  0.67390  Biso   1.000  N
  N5       1.0000 0.83470  0.23095  0.07340  Biso   1.000  N
  N6       1.0000 0.16530  0.73095  0.42660  Biso   1.000  N
  N7       1.0000 0.16530  0.76905  0.92660  Biso   1.000  N
  N8       1.0000 0.83470  0.26905  0.57340  Biso   1.000  N
  N9       1.0000 0.83290  0.41712  0.18800  Biso   1.000  N
  N10      1.0000 0.16710  0.91712  0.31200  Biso   1.000  N
  N11      1.0000 0.16710  0.58288  0.81200  Biso   1.000  N
  N12      1.0000 0.83290  0.08288  0.68800  Biso   1.000  N
  N13      1.0000 0.44750  0.20730  0.61010  Biso   1.000  N
  N14      1.0000 0.55250  0.70730  0.88990  Biso   1.000  N
  N15      1.0000 0.55250  0.79270  0.38990  Biso   1.000  N
  N16      1.0000 0.44750  0.29270  0.11010  Biso   1.000  N
  C1       1.0000 0.94670  0.13995  0.17050  Biso   1.000  C
  C2       1.0000 0.05330  0.63995  0.32950  Biso   1.000  C
  C3       1.0000 0.05330  0.86005  0.82950  Biso   1.000  C
  C4       1.0000 0.94670  0.36005  0.67050  Biso   1.000  C
  H1       1.0000 0.93230  0.16940  0.20300  Biso   1.000  H
  H2       1.0000 0.06770  0.66940  0.29700  Biso   1.000  H
  H3       1.0000 0.06770  0.83060  0.79700  Biso   1.000  H
  H4       1.0000 0.93230  0.33060  0.70300  Biso   1.000  H
  C5       1.0000 0.01100  0.09576  0.21690  Biso   1.000  C
  C6       1.0000 0.98900  0.59576  0.28310  Biso   1.000  C
  C7       1.0000 0.98900  0.90424  0.78310  Biso   1.000  C
  C8       1.0000 0.01100  0.40424  0.71690  Biso   1.000  C
  H5       1.0000 0.03570  0.09550  0.28040  Biso   1.000  H
  H6       1.0000 0.96430  0.59550  0.21960  Biso   1.000  H
  H7       1.0000 0.96430  0.90450  0.71960  Biso   1.000  H
  H8       1.0000 0.03570  0.40450  0.78040  Biso   1.000  H
  C9       1.0000 0.00310  0.05580  0.08400  Biso   1.000  C
  C10      1.0000 0.99690  0.55580  0.41600  Biso   1.000  C
  C11      1.0000 0.99690  0.94420  0.91600  Biso   1.000  C
  C12      1.0000 0.00310  0.44420  0.58400  Biso   1.000  C
  H9       1.0000 0.02460  0.02710  0.05320  Biso   1.000  H
  H10      1.0000 0.97540  0.52710  0.44680  Biso   1.000  H
  H11      1.0000 0.97540  0.97290  0.94680  Biso   1.000  H
  H12      1.0000 0.02460  0.47290  0.55320  Biso   1.000  H
  C13      1.0000 0.93700  0.09711  0.03330  Biso   1.000  C
  C14      1.0000 0.06300  0.59711  0.46670  Biso   1.000  C
  C15      1.0000 0.06300  0.90289  0.96670  Biso   1.000  C
  C16      1.0000 0.93700  0.40289  0.53330  Biso   1.000  C
  H13      1.0000 0.91410  0.09610  0.96990  Biso   1.000  H
  H14      1.0000 0.08590  0.59610  0.53010  Biso   1.000  H
  H15      1.0000 0.08590  0.90390  0.03010  Biso   1.000  H
  H16      1.0000 0.91410  0.40390  0.46990  Biso   1.000  H
  C17      1.0000 0.90400  0.14055  0.07670  Biso   1.000  C
  C18      1.0000 0.09600  0.64055  0.42330  Biso   1.000  C
  C19      1.0000 0.09600  0.85945  0.92330  Biso   1.000  C
  C20      1.0000 0.90400  0.35945  0.57670  Biso   1.000  C
  C21      1.0000 0.82790  0.18599  0.02540  Biso   1.000  C
  C22      1.0000 0.17210  0.68599  0.47460  Biso   1.000  C
  C23      1.0000 0.17210  0.81401  0.97460  Biso   1.000  C
  C24      1.0000 0.82790  0.31401  0.52540  Biso   1.000  C
  C25      1.0000 0.75830  0.18200  0.93350  Biso   1.000  C
  C26      1.0000 0.24170  0.68200  0.56650  Biso   1.000  C
  C27      1.0000 0.24170  0.81800  0.06650  Biso   1.000  C
  C28      1.0000 0.75830  0.31800  0.43350  Biso   1.000  C
  H17      1.0000 0.76120  0.15070  0.90120  Biso   1.000  H
  H18      1.0000 0.23880  0.65070  0.59880  Biso   1.000  H
  H19      1.0000 0.23880  0.84930  0.09880  Biso   1.000  H
  H20      1.0000 0.76120  0.34930  0.40120  Biso   1.000  H
  C29      1.0000 0.68440  0.22489  0.89000  Biso   1.000  C
  C30      1.0000 0.31560  0.72489  0.61000  Biso   1.000  C
  C31      1.0000 0.31560  0.77511  0.11000  Biso   1.000  C
  C32      1.0000 0.68440  0.27511  0.39000  Biso   1.000  C
  C33      1.0000 0.68690  0.27066  0.94130  Biso   1.000  C
  C34      1.0000 0.31310  0.77066  0.55870  Biso   1.000  C
  C35      1.0000 0.31310  0.72934  0.05870  Biso   1.000  C
  C36      1.0000 0.68690  0.22934  0.44130  Biso   1.000  C
  H21      1.0000 0.63570  0.29980  0.91630  Biso   1.000  H
  H22      1.0000 0.36430  0.79980  0.58370  Biso   1.000  H
  H23      1.0000 0.36430  0.70020  0.08370  Biso   1.000  H
  H24      1.0000 0.63570  0.20020  0.41630  Biso   1.000  H
  C37      1.0000 0.76680  0.27271  0.03070  Biso   1.000  C
  C38      1.0000 0.23320  0.77271  0.46930  Biso   1.000  C
  C39      1.0000 0.23320  0.72729  0.96930  Biso   1.000  C
  C40      1.0000 0.76680  0.22729  0.53070  Biso   1.000  C
  C41      1.0000 0.78360  0.32321  0.08560  Biso   1.000  C
  C42      1.0000 0.21640  0.82321  0.41440  Biso   1.000  C
  C43      1.0000 0.21640  0.67679  0.91440  Biso   1.000  C
  C44      1.0000 0.78360  0.17679  0.58560  Biso   1.000  C
  C45      1.0000 0.76430  0.37273  0.04370  Biso   1.000  C
  C46      1.0000 0.23570  0.87273  0.45630  Biso   1.000  C
  C47      1.0000 0.23570  0.62727  0.95630  Biso   1.000  C
  C48      1.0000 0.76430  0.12727  0.54370  Biso   1.000  C
  H25      1.0000 0.73370  0.37550  0.98030  Biso   1.000  H
  H26      1.0000 0.26630  0.87550  0.51970  Biso   1.000  H
  H27      1.0000 0.26630  0.62450  0.01970  Biso   1.000  H
  H28      1.0000 0.73370  0.12450  0.48030  Biso   1.000  H
  C49      1.0000 0.79130  0.41817  0.09740  Biso   1.000  C
  C50      1.0000 0.20870  0.91817  0.40260  Biso   1.000  C
  C51      1.0000 0.20870  0.58183  0.90260  Biso   1.000  C
  C52      1.0000 0.79130  0.08183  0.59740  Biso   1.000  C
  H29      1.0000 0.77960  0.45160  0.06850  Biso   1.000  H
  H30      1.0000 0.22040  0.95160  0.43150  Biso   1.000  H
  H31      1.0000 0.22040  0.54840  0.93150  Biso   1.000  H
  H32      1.0000 0.77960  0.04840  0.56850  Biso   1.000  H
  C53      1.0000 0.84930  0.36934  0.22930  Biso   1.000  C
  C54      1.0000 0.15070  0.86934  0.27070  Biso   1.000  C
  C55      1.0000 0.15070  0.63066  0.77070  Biso   1.000  C
  C56      1.0000 0.84930  0.13066  0.72930  Biso   1.000  C
  H33      1.0000 0.87680  0.36780  0.29280  Biso   1.000  H
  H34      1.0000 0.12320  0.86780  0.20720  Biso   1.000  H
  H35      1.0000 0.12320  0.63220  0.70720  Biso   1.000  H
  H36      1.0000 0.87680  0.13220  0.79280  Biso   1.000  H
  C57      1.0000 0.82640  0.32216  0.17990  Biso   1.000  C
  C58      1.0000 0.17360  0.82216  0.32010  Biso   1.000  C
  C59      1.0000 0.17360  0.67784  0.82010  Biso   1.000  C
  C60      1.0000 0.82640  0.17784  0.67990  Biso   1.000  C
  H37      1.0000 0.83980  0.28930  0.21040  Biso   1.000  H
  H38      1.0000 0.16020  0.78930  0.28960  Biso   1.000  H
  H39      1.0000 0.16020  0.71070  0.78960  Biso   1.000  H
  H40      1.0000 0.83980  0.21070  0.71040  Biso   1.000  H
  C61      1.0000 0.60740  0.22039  0.79190  Biso   1.000  C
  C62      1.0000 0.39260  0.72039  0.70810  Biso   1.000  C
  C63      1.0000 0.39260  0.77961  0.20810  Biso   1.000  C
  C64      1.0000 0.60740  0.27961  0.29190  Biso   1.000  C
  C65      1.0000 0.53930  0.17380  0.76280  Biso   1.000  C
  C66      1.0000 0.46070  0.67380  0.73720  Biso   1.000  C
  C67      1.0000 0.46070  0.82620  0.23720  Biso   1.000  C
  C68      1.0000 0.53930  0.32620  0.26280  Biso   1.000  C
  H41      1.0000 0.54670  0.14510  0.80290  Biso   1.000  H
  H42      1.0000 0.45330  0.64510  0.69710  Biso   1.000  H
  H43      1.0000 0.45330  0.85490  0.19710  Biso   1.000  H
  H44      1.0000 0.54670  0.35490  0.30290  Biso   1.000  H
  C69      1.0000 0.46000  0.17000  0.67360  Biso   1.000  C
  C70      1.0000 0.54000  0.67000  0.82640  Biso   1.000  C
  C71      1.0000 0.54000  0.83000  0.32640  Biso   1.000  C
  C72      1.0000 0.46000  0.33000  0.17360  Biso   1.000  C
  H45      1.0000 0.41200  0.13900  0.65710  Biso   1.000  H
  H46      1.0000 0.58800  0.63900  0.84290  Biso   1.000  H
  H47      1.0000 0.58800  0.86100  0.34290  Biso   1.000  H
  H48      1.0000 0.41200  0.36100  0.15710  Biso   1.000  H
  C73      1.0000 0.51220  0.25280  0.63740  Biso   1.000  C
  C74      1.0000 0.48780  0.75280  0.86260  Biso   1.000  C
  C75      1.0000 0.48780  0.74720  0.36260  Biso   1.000  C
  C76      1.0000 0.51220  0.24720  0.13740  Biso   1.000  C
  C77      1.0000 0.49810  0.29270  0.57190  Biso   1.000  C
  C78      1.0000 0.50190  0.79270  0.92810  Biso   1.000  C
  C79      1.0000 0.50190  0.70730  0.42810  Biso   1.000  C
  C80      1.0000 0.49810  0.20730  0.07190  Biso   1.000  C
  H49      1.0000 0.44460  0.28660  0.51300  Biso   1.000  H
  H50      1.0000 0.55540  0.78660  0.98700  Biso   1.000  H
  H51      1.0000 0.55540  0.71340  0.48700  Biso   1.000  H
  H52      1.0000 0.44460  0.21340  0.01300  Biso   1.000  H
  C81      1.0000 0.56020  0.34030  0.59140  Biso   1.000  C
  C82      1.0000 0.43980  0.84030  0.90860  Biso   1.000  C
  C83      1.0000 0.43980  0.65970  0.40860  Biso   1.000  C
  C84      1.0000 0.56020  0.15970  0.09140  Biso   1.000  C
  H53      1.0000 0.54700  0.36680  0.54680  Biso   1.000  H
  H54      1.0000 0.45300  0.86680  0.95320  Biso   1.000  H
  H55      1.0000 0.45300  0.63320  0.45320  Biso   1.000  H
  H56      1.0000 0.54700  0.13320  0.04680  Biso   1.000  H
  C85      1.0000 0.64380  0.34920  0.67850  Biso   1.000  C
  C86      1.0000 0.35620  0.84920  0.82150  Biso   1.000  C
  C87      1.0000 0.35620  0.65080  0.32150  Biso   1.000  C
  C88      1.0000 0.64380  0.15080  0.17850  Biso   1.000  C
  H57      1.0000 0.68810  0.38130  0.69170  Biso   1.000  H
  H58      1.0000 0.31190  0.88130  0.80830  Biso   1.000  H
  H59      1.0000 0.31190  0.61870  0.30830  Biso   1.000  H
  H60      1.0000 0.68810  0.11870  0.19170  Biso   1.000  H
  C89      1.0000 0.66090  0.31029  0.74510  Biso   1.000  C
  C90      1.0000 0.33910  0.81029  0.75490  Biso   1.000  C
  C91      1.0000 0.33910  0.68971  0.25490  Biso   1.000  C
  C92      1.0000 0.66090  0.18971  0.24510  Biso   1.000  C
  H61      1.0000 0.71790  0.31670  0.80280  Biso   1.000  H
  H62      1.0000 0.28210  0.81670  0.69720  Biso   1.000  H
  H63      1.0000 0.28210  0.68330  0.19720  Biso   1.000  H
  H64      1.0000 0.71790  0.18330  0.30280  Biso   1.000  H
  C93      1.0000 0.59560  0.26184  0.72890  Biso   1.000  C
  C94      1.0000 0.40440  0.76184  0.77110  Biso   1.000  C
  C95      1.0000 0.40440  0.73816  0.27110  Biso   1.000  C
  C96      1.0000 0.59560  0.23816  0.22890  Biso   1.000  C
  O1       1.0000 0.97860  0.99852  0.32020  Biso   1.000  O
  O2       1.0000 0.02140  0.49852  0.17980  Biso   1.000  O
  O3       1.0000 0.02140  0.00148  0.67980  Biso   1.000  O
  O4       1.0000 0.97860  0.50148  0.82020  Biso   1.000  O
  O5       1.0000 0.96620  0.94253  0.15030  Biso   1.000  O
  O6       1.0000 0.03380  0.44253  0.34970  Biso   1.000  O
  O7       1.0000 0.03380  0.05747  0.84970  Biso   1.000  O
  O8       1.0000 0.96620  0.55747  0.65030  Biso   1.000  O
  C97      1.0000 0.87220  0.97950  0.29860  Biso   1.000  C
  C98      1.0000 0.12780  0.47950  0.20140  Biso   1.000  C
  C99      1.0000 0.12780  0.02050  0.70140  Biso   1.000  C
  C100     1.0000 0.87220  0.52050  0.79860  Biso   1.000  C
  C101     1.0000 0.81650  0.94720  0.22490  Biso   1.000  C
  C102     1.0000 0.18350  0.44720  0.27510  Biso   1.000  C
  C103     1.0000 0.18350  0.05280  0.77510  Biso   1.000  C
  C104     1.0000 0.81650  0.55280  0.72490  Biso   1.000  C
  H65      1.0000 0.73650  0.93500  0.21950  Biso   1.000  H
  H66      1.0000 0.26350  0.43500  0.28050  Biso   1.000  H
  H67      1.0000 0.26350  0.06500  0.78050  Biso   1.000  H
  H68      1.0000 0.73650  0.56500  0.71950  Biso   1.000  H
  C105     1.0000 0.86270  0.93122  0.16040  Biso   1.000  C
  C106     1.0000 0.13730  0.43122  0.33960  Biso   1.000  C
  C107     1.0000 0.13730  0.06878  0.83960  Biso   1.000  C
  C108     1.0000 0.86270  0.56878  0.66040  Biso   1.000  C
  C109     1.0000 0.80120  0.99690  0.35980  Biso   1.000  C
  C110     1.0000 0.19880  0.49690  0.14020  Biso   1.000  C
  C111     1.0000 0.19880  0.00310  0.64020  Biso   1.000  C
  C112     1.0000 0.80120  0.50310  0.85980  Biso   1.000  C
  C113     1.0000 0.79140  0.89260  0.08710  Biso   1.000  C
  C114     1.0000 0.20860  0.39260  0.41290  Biso   1.000  C
  C115     1.0000 0.20860  0.10740  0.91290  Biso   1.000  C
  C116     1.0000 0.79140  0.60740  0.58710  Biso   1.000  C
  O9       1.0000 0.25160  0.02751  0.32990  Biso   1.000  O
  O10      1.0000 0.74840  0.52751  0.17010  Biso   1.000  O
  O11      1.0000 0.74840  0.97249  0.67010  Biso   1.000  O
  O12      1.0000 0.25160  0.47249  0.82990  Biso   1.000  O
  O13      1.0000 0.23240  0.97125  0.15830  Biso   1.000  O
  O14      1.0000 0.76760  0.47125  0.34170  Biso   1.000  O
  O15      1.0000 0.76760  0.02875  0.84170  Biso   1.000  O
  O16      1.0000 0.23240  0.52875  0.65830  Biso   1.000  O
  C117     1.0000 0.34920  0.04260  0.31510  Biso   1.000  C
  C118     1.0000 0.65080  0.54260  0.18490  Biso   1.000  C
  C119     1.0000 0.65080  0.95740  0.68490  Biso   1.000  C
  C120     1.0000 0.34920  0.45740  0.81510  Biso   1.000  C
  C121     1.0000 0.38840  0.03230  0.24180  Biso   1.000  C
  C122     1.0000 0.61160  0.53230  0.25820  Biso   1.000  C
  C123     1.0000 0.61160  0.96770  0.75820  Biso   1.000  C
  C124     1.0000 0.38840  0.46770  0.74180  Biso   1.000  C
  H69      1.0000 0.45940  0.05030  0.23910  Biso   1.000  H
  H70      1.0000 0.54060  0.55030  0.26090  Biso   1.000  H
  H71      1.0000 0.54060  0.94970  0.76090  Biso   1.000  H
  H72      1.0000 0.45940  0.44970  0.73910  Biso   1.000  H
  C125     1.0000 0.33080  0.99710  0.17050  Biso   1.000  C
  C126     1.0000 0.66920  0.49710  0.32950  Biso   1.000  C
  C127     1.0000 0.66920  0.00290  0.82950  Biso   1.000  C
  C128     1.0000 0.33080  0.50290  0.67050  Biso   1.000  C
  C129     1.0000 0.43490  0.07520  0.39060  Biso   1.000  C
  C130     1.0000 0.56510  0.57520  0.10940  Biso   1.000  C
  C131     1.0000 0.56510  0.92480  0.60940  Biso   1.000  C
  C132     1.0000 0.43490  0.42480  0.89060  Biso   1.000  C
  C133     1.0000 0.39540  0.98510  0.10240  Biso   1.000  C
  C134     1.0000 0.60460  0.48510  0.39760  Biso   1.000  C
  C135     1.0000 0.60460  0.01490  0.89760  Biso   1.000  C
  C136     1.0000 0.39540  0.51490  0.60240  Biso   1.000  C
  F1       1.0000 0.86290  0.98540  0.44780  Biso   1.000  F
  F2       1.0000 0.13710  0.48540  0.05220  Biso   1.000  F
  F3       1.0000 0.13710  0.01460  0.55220  Biso   1.000  F
  F4       1.0000 0.86290  0.51460  0.94780  Biso   1.000  F
  F5       1.0000 0.68900  0.97380  0.34240  Biso   1.000  F
  F6       1.0000 0.31100  0.47380  0.15760  Biso   1.000  F
  F7       1.0000 0.31100  0.02620  0.65760  Biso   1.000  F
  F8       1.0000 0.68900  0.52620  0.84240  Biso   1.000  F
  F9       1.0000 0.78200  0.04990  0.35720  Biso   1.000  F
  F10      1.0000 0.21800  0.54990  0.14280  Biso   1.000  F
  F11      1.0000 0.21800  0.95010  0.64280  Biso   1.000  F
  F12      1.0000 0.78200  0.45010  0.85720  Biso   1.000  F
  F13      1.0000 0.69240  0.87090  0.10220  Biso   1.000  F
  F14      1.0000 0.30760  0.37090  0.39780  Biso   1.000  F
  F15      1.0000 0.30760  0.12910  0.89780  Biso   1.000  F
  F16      1.0000 0.69240  0.62910  0.60220  Biso   1.000  F
  F17      1.0000 0.75400  0.91480  0.00450  Biso   1.000  F
  F18      1.0000 0.24600  0.41480  0.49550  Biso   1.000  F
  F19      1.0000 0.24600  0.08520  0.99550  Biso   1.000  F
  F20      1.0000 0.75400  0.58520  0.50450  Biso   1.000  F
  F21      1.0000 0.86500  0.85100  0.08060  Biso   1.000  F
  F22      1.0000 0.13500  0.35100  0.41940  Biso   1.000  F
  F23      1.0000 0.13500  0.14900  0.91940  Biso   1.000  F
  F24      1.0000 0.86500  0.64900  0.58060  Biso   1.000  F
  F25      1.0000 0.51840  0.10310  0.36470  Biso   1.000  F
  F26      1.0000 0.48160  0.60310  0.13530  Biso   1.000  F
  F27      1.0000 0.48160  0.89690  0.63530  Biso   1.000  F
  F28      1.0000 0.51840  0.39690  0.86470  Biso   1.000  F
  F29      1.0000 0.49500  0.04650  0.46340  Biso   1.000  F
  F30      1.0000 0.50500  0.54650  0.03660  Biso   1.000  F
  F31      1.0000 0.50500  0.95350  0.53660  Biso   1.000  F
  F32      1.0000 0.49500  0.45350  0.96340  Biso   1.000  F
  F33      1.0000 0.37100  0.11260  0.42100  Biso   1.000  F
  F34      1.0000 0.62900  0.61260  0.07900  Biso   1.000  F
  F35      1.0000 0.62900  0.88740  0.57900  Biso   1.000  F
  F36      1.0000 0.37100  0.38740  0.92100  Biso   1.000  F
  F37      1.0000 0.48540  0.94750  0.13510  Biso   1.000  F
  F38      1.0000 0.51460  0.44750  0.36490  Biso   1.000  F
  F39      1.0000 0.51460  0.05250  0.86490  Biso   1.000  F
  F40      1.0000 0.48540  0.55250  0.63510  Biso   1.000  F
  F41      1.0000 0.45470  0.02760  0.08330  Biso   1.000  F
  F42      1.0000 0.54530  0.52760  0.41670  Biso   1.000  F
  F43      1.0000 0.54530  0.97240  0.91670  Biso   1.000  F
  F44      1.0000 0.45470  0.47240  0.58330  Biso   1.000  F
  F45      1.0000 0.32250  0.96580  0.02370  Biso   1.000  F
  F46      1.0000 0.67750  0.46580  0.47630  Biso   1.000  F
  F47      1.0000 0.67750  0.03420  0.97630  Biso   1.000  F
  F48      1.0000 0.32250  0.53420  0.52370  Biso   1.000  F
  F49      1.0000 0.87020  0.01750  0.43870  Biso   1.000  F
  F50      1.0000 0.12980  0.51750  0.06130  Biso   1.000  F
  F51      1.0000 0.12980  0.98250  0.56130  Biso   1.000  F
  F52      1.0000 0.87020  0.48250  0.93870  Biso   1.000  F
  F53      1.0000 0.73500  0.95660  0.38020  Biso   1.000  F
  F54      1.0000 0.26500  0.45660  0.11980  Biso   1.000  F
  F55      1.0000 0.26500  0.04340  0.61980  Biso   1.000  F
  F56      1.0000 0.73500  0.54340  0.88020  Biso   1.000  F
  F57      1.0000 0.71470  0.03460  0.31990  Biso   1.000  F
  F58      1.0000 0.28530  0.53460  0.18010  Biso   1.000  F
  F59      1.0000 0.28530  0.96540  0.68010  Biso   1.000  F
  F60      1.0000 0.71470  0.46540  0.81990  Biso   1.000  F
  F61      1.0000 0.82700  0.84210  0.10650  Biso   1.000  F
  F62      1.0000 0.17300  0.34210  0.39350  Biso   1.000  F
  F63      1.0000 0.17300  0.15790  0.89350  Biso   1.000  F
  F64      1.0000 0.82700  0.65790  0.60650  Biso   1.000  F
  F65      1.0000 0.66780  0.89440  0.07620  Biso   1.000  F
  F66      1.0000 0.33220  0.39440  0.42380  Biso   1.000  F
  F67      1.0000 0.33220  0.10560  0.92380  Biso   1.000  F
  F68      1.0000 0.66780  0.60560  0.57620  Biso   1.000  F
  F69      1.0000 0.80120  0.90390  0.00550  Biso   1.000  F
  F70      1.0000 0.19880  0.40390  0.49450  Biso   1.000  F
  F71      1.0000 0.19880  0.09610  0.99450  Biso   1.000  F
  F72      1.0000 0.80120  0.59610  0.50550  Biso   1.000  F
  F73      1.0000 0.45550  0.12450  0.36620  Biso   1.000  F
  F74      1.0000 0.54450  0.62450  0.13380  Biso   1.000  F
  F75      1.0000 0.54450  0.87550  0.63380  Biso   1.000  F
  F76      1.0000 0.45550  0.37550  0.86620  Biso   1.000  F
  F77      1.0000 0.55010  0.05220  0.42240  Biso   1.000  F
  F78      1.0000 0.44990  0.55220  0.07760  Biso   1.000  F
  F79      1.0000 0.44990  0.94780  0.57760  Biso   1.000  F
  F80      1.0000 0.55010  0.44780  0.92240  Biso   1.000  F
  F81      1.0000 0.39940  0.07930  0.46450  Biso   1.000  F
  F82      1.0000 0.60060  0.57930  0.03550  Biso   1.000  F
  F83      1.0000 0.60060  0.92070  0.53550  Biso   1.000  F
  F84      1.0000 0.39940  0.42070  0.96450  Biso   1.000  F
  F85      1.0000 0.42700  0.93370  0.10120  Biso   1.000  F
  F86      1.0000 0.57300  0.43370  0.39880  Biso   1.000  F
  F87      1.0000 0.57300  0.06630  0.89880  Biso   1.000  F
  F88      1.0000 0.42700  0.56630  0.60120  Biso   1.000  F
  F89      1.0000 0.49500  0.01500  0.11030  Biso   1.000  F
  F90      1.0000 0.50500  0.51500  0.38970  Biso   1.000  F
  F91      1.0000 0.50500  0.98500  0.88970  Biso   1.000  F
  F92      1.0000 0.49500  0.48500  0.61030  Biso   1.000  F
  F93      1.0000 0.31750  0.99440  0.01610  Biso   1.000  F
  F94      1.0000 0.68250  0.49440  0.48390  Biso   1.000  F
  F95      1.0000 0.68250  0.00560  0.98390  Biso   1.000  F
  F96      1.0000 0.31750  0.50560  0.51610  Biso   1.000  F
  Cl1      1.0000 0.99160  0.73270  0.08200  Biso   1.000  Cl
  Cl2      1.0000 0.00840  0.23270  0.41800  Biso   1.000  Cl
  Cl3      1.0000 0.00840  0.26730  0.91800  Biso   1.000  Cl
  Cl4      1.0000 0.99160  0.76730  0.58200  Biso   1.000  Cl
  Cl5      1.0000 0.78660  0.71410  0.15060  Biso   1.000  Cl
  Cl6      1.0000 0.21340  0.21410  0.34940  Biso   1.000  Cl
  Cl7      1.0000 0.21340  0.28590  0.84940  Biso   1.000  Cl
  Cl8      1.0000 0.78660  0.78590  0.65060  Biso   1.000  Cl
  Cl9      1.0000 0.85750  0.63460  0.03610  Biso   1.000  Cl
  Cl10     1.0000 0.14250  0.13460  0.46390  Biso   1.000  Cl
  Cl11     1.0000 0.14250  0.36540  0.96390  Biso   1.000  Cl
  Cl12     1.0000 0.85750  0.86540  0.53610  Biso   1.000  Cl
  C137     1.0000 0.82670  0.70810  0.04120  Biso   1.000  C
  C138     1.0000 0.17330  0.20810  0.45880  Biso   1.000  C
  C139     1.0000 0.17330  0.29190  0.95880  Biso   1.000  C
  C140     1.0000 0.82670  0.79190  0.54120  Biso   1.000  C
  H73      1.0000 0.76960  0.72500  0.98620  Biso   1.000  H
  H74      1.0000 0.23040  0.22500  0.51380  Biso   1.000  H
  H75      1.0000 0.23040  0.27500  0.01380  Biso   1.000  H
  H76      1.0000 0.76960  0.77500  0.48620  Biso   1.000  H
