data_image0
_cell_length_a       15.2176
_cell_length_b       18.6531
_cell_length_c       26.4674
_cell_angle_alpha    90
_cell_angle_beta     90
_cell_angle_gamma    90

_symmetry_space_group_name_H-M    "P 1"
_symmetry_int_tables_number       1

loop_
  _symmetry_equiv_pos_as_xyz
  'x, y, z'

loop_
  _atom_site_label
  _atom_site_occupancy
  _atom_site_fract_x
  _atom_site_fract_y
  _atom_site_fract_z
  _atom_site_thermal_displace_type
  _atom_site_B_iso_or_equiv
  _atom_site_type_symbol
  Cu1      1.0000 0.11717  0.22176  0.20068  Biso   1.000  Cu
  Cu2      1.0000 0.38283  0.77824  0.70068  Biso   1.000  Cu
  Cu3      1.0000 0.61717  0.27824  0.79932  Biso   1.000  Cu
  Cu4      1.0000 0.88283  0.72176  0.29932  Biso   1.000  Cu
  Cu5      1.0000 0.88283  0.77824  0.79932  Biso   1.000  Cu
  Cu6      1.0000 0.61717  0.22176  0.29932  Biso   1.000  Cu
  Cu7      1.0000 0.38283  0.72176  0.20068  Biso   1.000  Cu
  Cu8      1.0000 0.11717  0.27824  0.70068  Biso   1.000  Cu
  F1       1.0000 0.28600  0.44145  0.20528  Biso   1.000  F
  F2       1.0000 0.21400  0.55855  0.70528  Biso   1.000  F
  F3       1.0000 0.78600  0.05855  0.79472  Biso   1.000  F
  F4       1.0000 0.71400  0.94145  0.29472  Biso   1.000  F
  F5       1.0000 0.71400  0.55855  0.79472  Biso   1.000  F
  F6       1.0000 0.78600  0.44145  0.29472  Biso   1.000  F
  F7       1.0000 0.21400  0.94145  0.20528  Biso   1.000  F
  F8       1.0000 0.28600  0.05855  0.70528  Biso   1.000  F
  F9       1.0000 0.27470  0.43774  0.28573  Biso   1.000  F
  F10      1.0000 0.22530  0.56226  0.78573  Biso   1.000  F
  F11      1.0000 0.77470  0.06226  0.71427  Biso   1.000  F
  F12      1.0000 0.72530  0.93774  0.21427  Biso   1.000  F
  F13      1.0000 0.72530  0.56226  0.71427  Biso   1.000  F
  F14      1.0000 0.77470  0.43774  0.21427  Biso   1.000  F
  F15      1.0000 0.22530  0.93774  0.28573  Biso   1.000  F
  F16      1.0000 0.27470  0.06226  0.78573  Biso   1.000  F
  F17      1.0000 0.38786  0.39499  0.24977  Biso   1.000  F
  F18      1.0000 0.11214  0.60501  0.74977  Biso   1.000  F
  F19      1.0000 0.88786  0.10501  0.75023  Biso   1.000  F
  F20      1.0000 0.61214  0.89499  0.25023  Biso   1.000  F
  F21      1.0000 0.61214  0.60501  0.75023  Biso   1.000  F
  F22      1.0000 0.88786  0.39499  0.25023  Biso   1.000  F
  F23      1.0000 0.11214  0.89499  0.24977  Biso   1.000  F
  F24      1.0000 0.38786  0.10501  0.74977  Biso   1.000  F
  F25      1.0000 0.99460  0.23570  0.37731  Biso   1.000  F
  F26      1.0000 0.50540  0.76430  0.87731  Biso   1.000  F
  F27      1.0000 0.49460  0.26430  0.62269  Biso   1.000  F
  F28      1.0000 0.00540  0.73570  0.12269  Biso   1.000  F
  F29      1.0000 0.00540  0.76430  0.62269  Biso   1.000  F
  F30      1.0000 0.49460  0.23570  0.12269  Biso   1.000  F
  F31      1.0000 0.50540  0.73570  0.37731  Biso   1.000  F
  F32      1.0000 0.99460  0.26430  0.87731  Biso   1.000  F
  F33      1.0000 0.89820  0.29106  0.33648  Biso   1.000  F
  F34      1.0000 0.60180  0.70894  0.83648  Biso   1.000  F
  F35      1.0000 0.39820  0.20894  0.66352  Biso   1.000  F
  F36      1.0000 0.10180  0.79106  0.16352  Biso   1.000  F
  F37      1.0000 0.10180  0.70894  0.66352  Biso   1.000  F
  F38      1.0000 0.39820  0.29106  0.16352  Biso   1.000  F
  F39      1.0000 0.60180  0.79106  0.33648  Biso   1.000  F
  F40      1.0000 0.89820  0.20894  0.83648  Biso   1.000  F
  F41      1.0000 0.02700  0.33260  0.33890  Biso   1.000  F
  F42      1.0000 0.47300  0.66740  0.83890  Biso   1.000  F
  F43      1.0000 0.52700  0.16740  0.66110  Biso   1.000  F
  F44      1.0000 0.97300  0.83260  0.16110  Biso   1.000  F
  F45      1.0000 0.97300  0.66740  0.66110  Biso   1.000  F
  F46      1.0000 0.52700  0.33260  0.16110  Biso   1.000  F
  F47      1.0000 0.47300  0.83260  0.33890  Biso   1.000  F
  F48      1.0000 0.02700  0.16740  0.83890  Biso   1.000  F
  F49      1.0000 0.24800  0.20730  0.37472  Biso   1.000  F
  F50      1.0000 0.25200  0.79270  0.87472  Biso   1.000  F
  F51      1.0000 0.74800  0.29270  0.62528  Biso   1.000  F
  F52      1.0000 0.75200  0.70730  0.12528  Biso   1.000  F
  F53      1.0000 0.75200  0.79270  0.62528  Biso   1.000  F
  F54      1.0000 0.74800  0.20730  0.12528  Biso   1.000  F
  F55      1.0000 0.25200  0.70730  0.37472  Biso   1.000  F
  F56      1.0000 0.24800  0.29270  0.87472  Biso   1.000  F
  F57      1.0000 0.22290  0.11110  0.33774  Biso   1.000  F
  F58      1.0000 0.27710  0.88890  0.83774  Biso   1.000  F
  F59      1.0000 0.72290  0.38890  0.66226  Biso   1.000  F
  F60      1.0000 0.77710  0.61110  0.16226  Biso   1.000  F
  F61      1.0000 0.77710  0.88890  0.66226  Biso   1.000  F
  F62      1.0000 0.72290  0.11110  0.16226  Biso   1.000  F
  F63      1.0000 0.27710  0.61110  0.33774  Biso   1.000  F
  F64      1.0000 0.22290  0.38890  0.83774  Biso   1.000  F
  F65      1.0000 0.34910  0.15940  0.33774  Biso   1.000  F
  F66      1.0000 0.15090  0.84060  0.83774  Biso   1.000  F
  F67      1.0000 0.84910  0.34060  0.66226  Biso   1.000  F
  F68      1.0000 0.65090  0.65940  0.16226  Biso   1.000  F
  F69      1.0000 0.65090  0.84060  0.66226  Biso   1.000  F
  F70      1.0000 0.84910  0.15940  0.16226  Biso   1.000  F
  F71      1.0000 0.15090  0.65940  0.33774  Biso   1.000  F
  F72      1.0000 0.34910  0.34060  0.83774  Biso   1.000  F
  F73      1.0000 0.95390  0.00020  0.20991  Biso   1.000  F
  F74      1.0000 0.54610  0.99980  0.70991  Biso   1.000  F
  F75      1.0000 0.45390  0.49980  0.79009  Biso   1.000  F
  F76      1.0000 0.04610  0.50020  0.29009  Biso   1.000  F
  F77      1.0000 0.04610  0.99980  0.79009  Biso   1.000  F
  F78      1.0000 0.45390  0.00020  0.29009  Biso   1.000  F
  F79      1.0000 0.54610  0.50020  0.20991  Biso   1.000  F
  F80      1.0000 0.95390  0.49980  0.70991  Biso   1.000  F
  F81      1.0000 0.85740  0.04625  0.25717  Biso   1.000  F
  F82      1.0000 0.64260  0.95375  0.75717  Biso   1.000  F
  F83      1.0000 0.35740  0.45375  0.74283  Biso   1.000  F
  F84      1.0000 0.14260  0.54625  0.24283  Biso   1.000  F
  F85      1.0000 0.14260  0.95375  0.74283  Biso   1.000  F
  F86      1.0000 0.35740  0.04625  0.24283  Biso   1.000  F
  F87      1.0000 0.64260  0.54625  0.25717  Biso   1.000  F
  F88      1.0000 0.85740  0.45375  0.75717  Biso   1.000  F
  F89      1.0000 0.97210  0.00444  0.28800  Biso   1.000  F
  F90      1.0000 0.52790  0.99556  0.78800  Biso   1.000  F
  F91      1.0000 0.47210  0.49556  0.71200  Biso   1.000  F
  F92      1.0000 0.02790  0.50444  0.21200  Biso   1.000  F
  F93      1.0000 0.02790  0.99556  0.71200  Biso   1.000  F
  F94      1.0000 0.47210  0.00444  0.21200  Biso   1.000  F
  F95      1.0000 0.52790  0.50444  0.28800  Biso   1.000  F
  F96      1.0000 0.97210  0.49556  0.78800  Biso   1.000  F
  O1       1.0000 0.20897  0.31791  0.20441  Biso   1.000  O
  O2       1.0000 0.29103  0.68209  0.70441  Biso   1.000  O
  O3       1.0000 0.70897  0.18209  0.79559  Biso   1.000  O
  O4       1.0000 0.79103  0.81791  0.29559  Biso   1.000  O
  O5       1.0000 0.79103  0.68209  0.79559  Biso   1.000  O
  O6       1.0000 0.70897  0.31791  0.29559  Biso   1.000  O
  O7       1.0000 0.29103  0.81791  0.20441  Biso   1.000  O
  O8       1.0000 0.20897  0.18209  0.70441  Biso   1.000  O
  O9       1.0000 0.04920  0.26436  0.25618  Biso   1.000  O
  O10      1.0000 0.45080  0.73564  0.75618  Biso   1.000  O
  O11      1.0000 0.54920  0.23564  0.74382  Biso   1.000  O
  O12      1.0000 0.95080  0.76436  0.24382  Biso   1.000  O
  O13      1.0000 0.95080  0.73564  0.74382  Biso   1.000  O
  O14      1.0000 0.54920  0.26436  0.24382  Biso   1.000  O
  O15      1.0000 0.45080  0.76436  0.25618  Biso   1.000  O
  O16      1.0000 0.04920  0.23564  0.75618  Biso   1.000  O
  O17      1.0000 0.19273  0.17750  0.25453  Biso   1.000  O
  O18      1.0000 0.30727  0.82250  0.75453  Biso   1.000  O
  O19      1.0000 0.69273  0.32250  0.74547  Biso   1.000  O
  O20      1.0000 0.80727  0.67750  0.24547  Biso   1.000  O
  O21      1.0000 0.80727  0.82250  0.74547  Biso   1.000  O
  O22      1.0000 0.69273  0.17750  0.24547  Biso   1.000  O
  O23      1.0000 0.30727  0.67750  0.25453  Biso   1.000  O
  O24      1.0000 0.19273  0.32250  0.75453  Biso   1.000  O
  O25      1.0000 0.03017  0.12485  0.20567  Biso   1.000  O
  O26      1.0000 0.46983  0.87515  0.70567  Biso   1.000  O
  O27      1.0000 0.53017  0.37515  0.79433  Biso   1.000  O
  O28      1.0000 0.96983  0.62485  0.29433  Biso   1.000  O
  O29      1.0000 0.96983  0.87515  0.79433  Biso   1.000  O
  O30      1.0000 0.53017  0.12485  0.29433  Biso   1.000  O
  O31      1.0000 0.46983  0.62485  0.20567  Biso   1.000  O
  O32      1.0000 0.03017  0.37515  0.70567  Biso   1.000  O
  N1       1.0000 0.04053  0.27676  0.15071  Biso   1.000  N
  N2       1.0000 0.45947  0.72324  0.65071  Biso   1.000  N
  N3       1.0000 0.54053  0.22324  0.84929  Biso   1.000  N
  N4       1.0000 0.95947  0.77676  0.34929  Biso   1.000  N
  N5       1.0000 0.95947  0.72324  0.84929  Biso   1.000  N
  N6       1.0000 0.54053  0.27676  0.34929  Biso   1.000  N
  N7       1.0000 0.45947  0.77676  0.15071  Biso   1.000  N
  N8       1.0000 0.04053  0.22324  0.65071  Biso   1.000  N
  N9       1.0000 0.86737  0.28976  0.00007  Biso   1.000  N
  N10      1.0000 0.63263  0.71024  0.50007  Biso   1.000  N
  N11      1.0000 0.36737  0.21024  0.99993  Biso   1.000  N
  N12      1.0000 0.13263  0.78976  0.49993  Biso   1.000  N
  N13      1.0000 0.13263  0.71024  0.99993  Biso   1.000  N
  N14      1.0000 0.36737  0.28976  0.49993  Biso   1.000  N
  N15      1.0000 0.63263  0.78976  0.00007  Biso   1.000  N
  N16      1.0000 0.86737  0.21024  0.50007  Biso   1.000  N
  N17      1.0000 0.69265  0.32453  0.85163  Biso   1.000  N
  N18      1.0000 0.80735  0.67547  0.35163  Biso   1.000  N
  N19      1.0000 0.19265  0.17547  0.14837  Biso   1.000  N
  N20      1.0000 0.30735  0.82453  0.64837  Biso   1.000  N
  N21      1.0000 0.30735  0.67547  0.14837  Biso   1.000  N
  N22      1.0000 0.19265  0.32453  0.64837  Biso   1.000  N
  N23      1.0000 0.80735  0.82453  0.85163  Biso   1.000  N
  N24      1.0000 0.69265  0.17547  0.35163  Biso   1.000  N
  N25      1.0000 0.91790  0.91988  0.94346  Biso   1.000  N
  N26      1.0000 0.58210  0.08012  0.44346  Biso   1.000  N
  N27      1.0000 0.41790  0.58012  0.05654  Biso   1.000  N
  N28      1.0000 0.08210  0.41988  0.55654  Biso   1.000  N
  N29      1.0000 0.08210  0.08012  0.05654  Biso   1.000  N
  N30      1.0000 0.41790  0.91988  0.55654  Biso   1.000  N
  N31      1.0000 0.58210  0.41988  0.94346  Biso   1.000  N
  N32      1.0000 0.91790  0.58012  0.44346  Biso   1.000  N
  C1       1.0000 0.91970  0.35088  0.09220  Biso   1.000  C
  C2       1.0000 0.58030  0.64912  0.59220  Biso   1.000  C
  C3       1.0000 0.41970  0.14912  0.90780  Biso   1.000  C
  C4       1.0000 0.08030  0.85088  0.40780  Biso   1.000  C
  C5       1.0000 0.08030  0.64912  0.90780  Biso   1.000  C
  C6       1.0000 0.41970  0.35088  0.40780  Biso   1.000  C
  C7       1.0000 0.58030  0.85088  0.09220  Biso   1.000  C
  C8       1.0000 0.91970  0.14912  0.59220  Biso   1.000  C
  H1       1.0000 0.87800  0.37630  0.07240  Biso   1.000  H
  H2       1.0000 0.62200  0.62370  0.57240  Biso   1.000  H
  H3       1.0000 0.37800  0.12370  0.92760  Biso   1.000  H
  H4       1.0000 0.12200  0.87630  0.42760  Biso   1.000  H
  H5       1.0000 0.12200  0.62370  0.92760  Biso   1.000  H
  H6       1.0000 0.37800  0.37630  0.42760  Biso   1.000  H
  H7       1.0000 0.62200  0.87630  0.07240  Biso   1.000  H
  H8       1.0000 0.87800  0.12370  0.57240  Biso   1.000  H
  C9       1.0000 0.25530  0.32765  0.24201  Biso   1.000  C
  C10      1.0000 0.24470  0.67235  0.74201  Biso   1.000  C
  C11      1.0000 0.75530  0.17235  0.75799  Biso   1.000  C
  C12      1.0000 0.74470  0.82765  0.25799  Biso   1.000  C
  C13      1.0000 0.74470  0.67235  0.75799  Biso   1.000  C
  C14      1.0000 0.75530  0.32765  0.25799  Biso   1.000  C
  C15      1.0000 0.24470  0.82765  0.24201  Biso   1.000  C
  C16      1.0000 0.25530  0.17235  0.74201  Biso   1.000  C
  C17      1.0000 0.00460  0.22970  0.28773  Biso   1.000  C
  C18      1.0000 0.49540  0.77030  0.78773  Biso   1.000  C
  C19      1.0000 0.50460  0.27030  0.71227  Biso   1.000  C
  C20      1.0000 0.99540  0.72970  0.21227  Biso   1.000  C
  C21      1.0000 0.99540  0.77030  0.71227  Biso   1.000  C
  C22      1.0000 0.50460  0.22970  0.21227  Biso   1.000  C
  C23      1.0000 0.49540  0.72970  0.28773  Biso   1.000  C
  C24      1.0000 0.00460  0.27030  0.78773  Biso   1.000  C
  C25      1.0000 0.95690  0.38254  0.13425  Biso   1.000  C
  C26      1.0000 0.54310  0.61746  0.63425  Biso   1.000  C
  C27      1.0000 0.45690  0.11746  0.86575  Biso   1.000  C
  C28      1.0000 0.04310  0.88254  0.36575  Biso   1.000  C
  C29      1.0000 0.04310  0.61746  0.86575  Biso   1.000  C
  C30      1.0000 0.45690  0.38254  0.36575  Biso   1.000  C
  C31      1.0000 0.54310  0.88254  0.13425  Biso   1.000  C
  C32      1.0000 0.95690  0.11746  0.63425  Biso   1.000  C
  H9       1.0000 0.94140  0.43010  0.14350  Biso   1.000  H
  H10      1.0000 0.55860  0.56990  0.64350  Biso   1.000  H
  H11      1.0000 0.44140  0.06990  0.85650  Biso   1.000  H
  H12      1.0000 0.05860  0.93010  0.35650  Biso   1.000  H
  H13      1.0000 0.05860  0.56990  0.85650  Biso   1.000  H
  H14      1.0000 0.44140  0.43010  0.35650  Biso   1.000  H
  H15      1.0000 0.55860  0.93010  0.14350  Biso   1.000  H
  H16      1.0000 0.94140  0.06990  0.64350  Biso   1.000  H
  C33      1.0000 0.27320  0.28060  0.28223  Biso   1.000  C
  C34      1.0000 0.22680  0.71940  0.78223  Biso   1.000  C
  C35      1.0000 0.77320  0.21940  0.71777  Biso   1.000  C
  C36      1.0000 0.72680  0.78060  0.21777  Biso   1.000  C
  C37      1.0000 0.72680  0.71940  0.71777  Biso   1.000  C
  C38      1.0000 0.77320  0.28060  0.21777  Biso   1.000  C
  C39      1.0000 0.22680  0.78060  0.28223  Biso   1.000  C
  C40      1.0000 0.27320  0.21940  0.78223  Biso   1.000  C
  H17      1.0000 0.31000  0.29700  0.30880  Biso   1.000  H
  H18      1.0000 0.19000  0.70300  0.80880  Biso   1.000  H
  H19      1.0000 0.81000  0.20300  0.69120  Biso   1.000  H
  H20      1.0000 0.69000  0.79700  0.19120  Biso   1.000  H
  H21      1.0000 0.69000  0.70300  0.69120  Biso   1.000  H
  H22      1.0000 0.81000  0.29700  0.19120  Biso   1.000  H
  H23      1.0000 0.19000  0.79700  0.30880  Biso   1.000  H
  H24      1.0000 0.31000  0.20300  0.80880  Biso   1.000  H
  C41      1.0000 0.97340  0.16060  0.28576  Biso   1.000  C
  C42      1.0000 0.52660  0.83940  0.78576  Biso   1.000  C
  C43      1.0000 0.47340  0.33940  0.71424  Biso   1.000  C
  C44      1.0000 0.02660  0.66060  0.21424  Biso   1.000  C
  C45      1.0000 0.02660  0.83940  0.71424  Biso   1.000  C
  C46      1.0000 0.47340  0.16060  0.21424  Biso   1.000  C
  C47      1.0000 0.52660  0.66060  0.28576  Biso   1.000  C
  C48      1.0000 0.97340  0.33940  0.78576  Biso   1.000  C
  H25      1.0000 0.94040  0.14320  0.31360  Biso   1.000  H
  H26      1.0000 0.55960  0.85680  0.81360  Biso   1.000  H
  H27      1.0000 0.44040  0.35680  0.68640  Biso   1.000  H
  H28      1.0000 0.05960  0.64320  0.18640  Biso   1.000  H
  H29      1.0000 0.05960  0.85680  0.68640  Biso   1.000  H
  H30      1.0000 0.44040  0.14320  0.18640  Biso   1.000  H
  H31      1.0000 0.55960  0.64320  0.31360  Biso   1.000  H
  H32      1.0000 0.94040  0.35680  0.81360  Biso   1.000  H
  C49      1.0000 0.01660  0.34429  0.16270  Biso   1.000  C
  C50      1.0000 0.48340  0.65571  0.66270  Biso   1.000  C
  C51      1.0000 0.51660  0.15571  0.83730  Biso   1.000  C
  C52      1.0000 0.98340  0.84429  0.33730  Biso   1.000  C
  C53      1.0000 0.98340  0.65571  0.83730  Biso   1.000  C
  C54      1.0000 0.51660  0.34429  0.33730  Biso   1.000  C
  C55      1.0000 0.48340  0.84429  0.16270  Biso   1.000  C
  C56      1.0000 0.01660  0.15571  0.66270  Biso   1.000  C
  H33      1.0000 0.04180  0.36620  0.19170  Biso   1.000  H
  H34      1.0000 0.45820  0.63380  0.69170  Biso   1.000  H
  H35      1.0000 0.54180  0.13380  0.80830  Biso   1.000  H
  H36      1.0000 0.95820  0.86620  0.30830  Biso   1.000  H
  H37      1.0000 0.95820  0.63380  0.80830  Biso   1.000  H
  H38      1.0000 0.54180  0.36620  0.30830  Biso   1.000  H
  H39      1.0000 0.45820  0.86620  0.19170  Biso   1.000  H
  H40      1.0000 0.04180  0.13380  0.69170  Biso   1.000  H
  C57      1.0000 0.24010  0.21189  0.28510  Biso   1.000  C
  C58      1.0000 0.25990  0.78811  0.78510  Biso   1.000  C
  C59      1.0000 0.74010  0.28811  0.71490  Biso   1.000  C
  C60      1.0000 0.75990  0.71189  0.21490  Biso   1.000  C
  C61      1.0000 0.75990  0.78811  0.71490  Biso   1.000  C
  C62      1.0000 0.74010  0.21189  0.21490  Biso   1.000  C
  C63      1.0000 0.25990  0.71189  0.28510  Biso   1.000  C
  C64      1.0000 0.24010  0.28811  0.78510  Biso   1.000  C
  C65      1.0000 0.98770  0.11413  0.24474  Biso   1.000  C
  C66      1.0000 0.51230  0.88587  0.74474  Biso   1.000  C
  C67      1.0000 0.48770  0.38587  0.75526  Biso   1.000  C
  C68      1.0000 0.01230  0.61413  0.25526  Biso   1.000  C
  C69      1.0000 0.01230  0.88587  0.75526  Biso   1.000  C
  C70      1.0000 0.48770  0.11413  0.25526  Biso   1.000  C
  C71      1.0000 0.51230  0.61413  0.24474  Biso   1.000  C
  C72      1.0000 0.98770  0.38587  0.74474  Biso   1.000  C
  C73      1.0000 0.00510  0.24636  0.10953  Biso   1.000  C
  C74      1.0000 0.49490  0.75364  0.60953  Biso   1.000  C
  C75      1.0000 0.50510  0.25364  0.89047  Biso   1.000  C
  C76      1.0000 0.99490  0.74636  0.39047  Biso   1.000  C
  C77      1.0000 0.99490  0.75364  0.89047  Biso   1.000  C
  C78      1.0000 0.50510  0.24636  0.39047  Biso   1.000  C
  C79      1.0000 0.49490  0.74636  0.10953  Biso   1.000  C
  C80      1.0000 0.00510  0.25364  0.60953  Biso   1.000  C
  H41      1.0000 0.02240  0.19900  0.10080  Biso   1.000  H
  H42      1.0000 0.47760  0.80100  0.60080  Biso   1.000  H
  H43      1.0000 0.52240  0.30100  0.89920  Biso   1.000  H
  H44      1.0000 0.97760  0.69900  0.39920  Biso   1.000  H
  H45      1.0000 0.97760  0.80100  0.89920  Biso   1.000  H
  H46      1.0000 0.52240  0.19900  0.39920  Biso   1.000  H
  H47      1.0000 0.47760  0.69900  0.10080  Biso   1.000  H
  H48      1.0000 0.02240  0.30100  0.60080  Biso   1.000  H
  C81      1.0000 0.30060  0.40170  0.24529  Biso   1.000  C
  C82      1.0000 0.19940  0.59830  0.74529  Biso   1.000  C
  C83      1.0000 0.80060  0.09830  0.75471  Biso   1.000  C
  C84      1.0000 0.69940  0.90170  0.25471  Biso   1.000  C
  C85      1.0000 0.69940  0.59830  0.75471  Biso   1.000  C
  C86      1.0000 0.80060  0.40170  0.25471  Biso   1.000  C
  C87      1.0000 0.19940  0.90170  0.24529  Biso   1.000  C
  C88      1.0000 0.30060  0.09830  0.74529  Biso   1.000  C
  C89      1.0000 0.98270  0.27320  0.33557  Biso   1.000  C
  C90      1.0000 0.51730  0.72680  0.83557  Biso   1.000  C
  C91      1.0000 0.48270  0.22680  0.66443  Biso   1.000  C
  C92      1.0000 0.01730  0.77320  0.16443  Biso   1.000  C
  C93      1.0000 0.01730  0.72680  0.66443  Biso   1.000  C
  C94      1.0000 0.48270  0.27320  0.16443  Biso   1.000  C
  C95      1.0000 0.51730  0.77320  0.33557  Biso   1.000  C
  C96      1.0000 0.98270  0.22680  0.83557  Biso   1.000  C
  C97      1.0000 0.94420  0.28115  0.07905  Biso   1.000  C
  C98      1.0000 0.55580  0.71885  0.57905  Biso   1.000  C
  C99      1.0000 0.44420  0.21885  0.92095  Biso   1.000  C
  C100     1.0000 0.05580  0.78115  0.42095  Biso   1.000  C
  C101     1.0000 0.05580  0.71885  0.92095  Biso   1.000  C
  C102     1.0000 0.44420  0.28115  0.42095  Biso   1.000  C
  C103     1.0000 0.55580  0.78115  0.07905  Biso   1.000  C
  C104     1.0000 0.94420  0.21885  0.57905  Biso   1.000  C
  C105     1.0000 0.26400  0.16940  0.33304  Biso   1.000  C
  C106     1.0000 0.23600  0.83060  0.83304  Biso   1.000  C
  C107     1.0000 0.76400  0.33060  0.66696  Biso   1.000  C
  C108     1.0000 0.73600  0.66940  0.16696  Biso   1.000  C
  C109     1.0000 0.73600  0.83060  0.66696  Biso   1.000  C
  C110     1.0000 0.76400  0.16940  0.16696  Biso   1.000  C
  C111     1.0000 0.23600  0.66940  0.33304  Biso   1.000  C
  C112     1.0000 0.26400  0.33060  0.83304  Biso   1.000  C
  C113     1.0000 0.94360  0.03990  0.24932  Biso   1.000  C
  C114     1.0000 0.55640  0.96010  0.74932  Biso   1.000  C
  C115     1.0000 0.44360  0.46010  0.75068  Biso   1.000  C
  C116     1.0000 0.05640  0.53990  0.25068  Biso   1.000  C
  C117     1.0000 0.05640  0.96010  0.75068  Biso   1.000  C
  C118     1.0000 0.44360  0.03990  0.25068  Biso   1.000  C
  C119     1.0000 0.55640  0.53990  0.24932  Biso   1.000  C
  C120     1.0000 0.94360  0.46010  0.74932  Biso   1.000  C
  C121     1.0000 0.90580  0.24583  0.03376  Biso   1.000  C
  C122     1.0000 0.59420  0.75417  0.53376  Biso   1.000  C
  C123     1.0000 0.40580  0.25417  0.96624  Biso   1.000  C
  C124     1.0000 0.09420  0.74583  0.46624  Biso   1.000  C
  C125     1.0000 0.09420  0.75417  0.96624  Biso   1.000  C
  C126     1.0000 0.40580  0.24583  0.46624  Biso   1.000  C
  C127     1.0000 0.59420  0.74583  0.03376  Biso   1.000  C
  C128     1.0000 0.90580  0.25417  0.53376  Biso   1.000  C
  C129     1.0000 0.91040  0.17189  0.02738  Biso   1.000  C
  C130     1.0000 0.58960  0.82811  0.52738  Biso   1.000  C
  C131     1.0000 0.41040  0.32811  0.97262  Biso   1.000  C
  C132     1.0000 0.08960  0.67189  0.47262  Biso   1.000  C
  C133     1.0000 0.08960  0.82811  0.97262  Biso   1.000  C
  C134     1.0000 0.41040  0.17189  0.47262  Biso   1.000  C
  C135     1.0000 0.58960  0.67189  0.02738  Biso   1.000  C
  C136     1.0000 0.91040  0.32811  0.52738  Biso   1.000  C
  H49      1.0000 0.93630  0.14250  0.05270  Biso   1.000  H
  H50      1.0000 0.56370  0.85750  0.55270  Biso   1.000  H
  H51      1.0000 0.43630  0.35750  0.94730  Biso   1.000  H
  H52      1.0000 0.06370  0.64250  0.44730  Biso   1.000  H
  H53      1.0000 0.06370  0.85750  0.94730  Biso   1.000  H
  H54      1.0000 0.43630  0.14250  0.44730  Biso   1.000  H
  H55      1.0000 0.56370  0.64250  0.05270  Biso   1.000  H
  H56      1.0000 0.93630  0.35750  0.55270  Biso   1.000  H
  C137     1.0000 0.87650  0.14149  0.98342  Biso   1.000  C
  C138     1.0000 0.62350  0.85851  0.48342  Biso   1.000  C
  C139     1.0000 0.37650  0.35851  0.01658  Biso   1.000  C
  C140     1.0000 0.12350  0.64149  0.51658  Biso   1.000  C
  C141     1.0000 0.12350  0.85851  0.01658  Biso   1.000  C
  C142     1.0000 0.37650  0.14149  0.51658  Biso   1.000  C
  C143     1.0000 0.62350  0.64149  0.98342  Biso   1.000  C
  C144     1.0000 0.87650  0.35851  0.48342  Biso   1.000  C
  C145     1.0000 0.83570  0.18670  0.94893  Biso   1.000  C
  C146     1.0000 0.66430  0.81330  0.44893  Biso   1.000  C
  C147     1.0000 0.33570  0.31330  0.05107  Biso   1.000  C
  C148     1.0000 0.16430  0.68670  0.55107  Biso   1.000  C
  C149     1.0000 0.16430  0.81330  0.05107  Biso   1.000  C
  C150     1.0000 0.33570  0.18670  0.55107  Biso   1.000  C
  C151     1.0000 0.66430  0.68670  0.94893  Biso   1.000  C
  C152     1.0000 0.83570  0.31330  0.44893  Biso   1.000  C
  H57      1.0000 0.81090  0.16790  0.91880  Biso   1.000  H
  H58      1.0000 0.68910  0.83210  0.41880  Biso   1.000  H
  H59      1.0000 0.31090  0.33210  0.08120  Biso   1.000  H
  H60      1.0000 0.18910  0.66790  0.58120  Biso   1.000  H
  H61      1.0000 0.18910  0.83210  0.08120  Biso   1.000  H
  H62      1.0000 0.31090  0.16790  0.58120  Biso   1.000  H
  H63      1.0000 0.68910  0.66790  0.91880  Biso   1.000  H
  H64      1.0000 0.81090  0.33210  0.41880  Biso   1.000  H
  C153     1.0000 0.83160  0.25985  0.95898  Biso   1.000  C
  C154     1.0000 0.66840  0.74015  0.45898  Biso   1.000  C
  C155     1.0000 0.33160  0.24015  0.04102  Biso   1.000  C
  C156     1.0000 0.16840  0.75985  0.54102  Biso   1.000  C
  C157     1.0000 0.16840  0.74015  0.04102  Biso   1.000  C
  C158     1.0000 0.33160  0.25985  0.54102  Biso   1.000  C
  C159     1.0000 0.66840  0.75985  0.95898  Biso   1.000  C
  C160     1.0000 0.83160  0.24015  0.45898  Biso   1.000  C
  C161     1.0000 0.79060  0.30939  0.92180  Biso   1.000  C
  C162     1.0000 0.70940  0.69061  0.42180  Biso   1.000  C
  C163     1.0000 0.29060  0.19061  0.07820  Biso   1.000  C
  C164     1.0000 0.20940  0.80939  0.57820  Biso   1.000  C
  C165     1.0000 0.20940  0.69061  0.07820  Biso   1.000  C
  C166     1.0000 0.29060  0.30939  0.57820  Biso   1.000  C
  C167     1.0000 0.70940  0.80939  0.92180  Biso   1.000  C
  C168     1.0000 0.79060  0.19061  0.42180  Biso   1.000  C
  C169     1.0000 0.72760  0.28404  0.88825  Biso   1.000  C
  C170     1.0000 0.77240  0.71596  0.38825  Biso   1.000  C
  C171     1.0000 0.22760  0.21596  0.11175  Biso   1.000  C
  C172     1.0000 0.27240  0.78404  0.61175  Biso   1.000  C
  C173     1.0000 0.27240  0.71596  0.11175  Biso   1.000  C
  C174     1.0000 0.22760  0.28404  0.61175  Biso   1.000  C
  C175     1.0000 0.77240  0.78404  0.88825  Biso   1.000  C
  C176     1.0000 0.72760  0.21596  0.38825  Biso   1.000  C
  H65      1.0000 0.70840  0.23580  0.89140  Biso   1.000  H
  H66      1.0000 0.79160  0.76420  0.39140  Biso   1.000  H
  H67      1.0000 0.20840  0.26420  0.10860  Biso   1.000  H
  H68      1.0000 0.29160  0.73580  0.60860  Biso   1.000  H
  H69      1.0000 0.29160  0.76420  0.10860  Biso   1.000  H
  H70      1.0000 0.20840  0.23580  0.60860  Biso   1.000  H
  H71      1.0000 0.79160  0.73580  0.89140  Biso   1.000  H
  H72      1.0000 0.70840  0.26420  0.39140  Biso   1.000  H
  C177     1.0000 0.71930  0.39256  0.84671  Biso   1.000  C
  C178     1.0000 0.78070  0.60744  0.34671  Biso   1.000  C
  C179     1.0000 0.21930  0.10744  0.15329  Biso   1.000  C
  C180     1.0000 0.28070  0.89256  0.65329  Biso   1.000  C
  C181     1.0000 0.28070  0.60744  0.15329  Biso   1.000  C
  C182     1.0000 0.21930  0.39256  0.65329  Biso   1.000  C
  C183     1.0000 0.78070  0.89256  0.84671  Biso   1.000  C
  C184     1.0000 0.71930  0.10744  0.34671  Biso   1.000  C
  H73      1.0000 0.69630  0.42080  0.81990  Biso   1.000  H
  H74      1.0000 0.80370  0.57920  0.31990  Biso   1.000  H
  H75      1.0000 0.19630  0.07920  0.18010  Biso   1.000  H
  H76      1.0000 0.30370  0.92080  0.68010  Biso   1.000  H
  H77      1.0000 0.30370  0.57920  0.18010  Biso   1.000  H
  H78      1.0000 0.19630  0.42080  0.68010  Biso   1.000  H
  H79      1.0000 0.80370  0.92080  0.81990  Biso   1.000  H
  H80      1.0000 0.69630  0.07920  0.31990  Biso   1.000  H
  C185     1.0000 0.77950  0.42287  0.87961  Biso   1.000  C
  C186     1.0000 0.72050  0.57713  0.37961  Biso   1.000  C
  C187     1.0000 0.27950  0.07713  0.12039  Biso   1.000  C
  C188     1.0000 0.22050  0.92287  0.62039  Biso   1.000  C
  C189     1.0000 0.22050  0.57713  0.12039  Biso   1.000  C
  C190     1.0000 0.27950  0.42287  0.62039  Biso   1.000  C
  C191     1.0000 0.72050  0.92287  0.87961  Biso   1.000  C
  C192     1.0000 0.77950  0.07713  0.37961  Biso   1.000  C
  H81      1.0000 0.79610  0.47170  0.87610  Biso   1.000  H
  H82      1.0000 0.70390  0.52830  0.37610  Biso   1.000  H
  H83      1.0000 0.29610  0.02830  0.12390  Biso   1.000  H
  H84      1.0000 0.20390  0.97170  0.62390  Biso   1.000  H
  H85      1.0000 0.20390  0.52830  0.12390  Biso   1.000  H
  H86      1.0000 0.29610  0.47170  0.62390  Biso   1.000  H
  H87      1.0000 0.70390  0.97170  0.87610  Biso   1.000  H
  H88      1.0000 0.79610  0.02830  0.37610  Biso   1.000  H
  C193     1.0000 0.81520  0.38109  0.91763  Biso   1.000  C
  C194     1.0000 0.68480  0.61891  0.41763  Biso   1.000  C
  C195     1.0000 0.31520  0.11891  0.08237  Biso   1.000  C
  C196     1.0000 0.18480  0.88109  0.58237  Biso   1.000  C
  C197     1.0000 0.18480  0.61891  0.08237  Biso   1.000  C
  C198     1.0000 0.31520  0.38109  0.58237  Biso   1.000  C
  C199     1.0000 0.68480  0.88109  0.91763  Biso   1.000  C
  C200     1.0000 0.81520  0.11891  0.41763  Biso   1.000  C
  H89      1.0000 0.85620  0.40120  0.94070  Biso   1.000  H
  H90      1.0000 0.64380  0.59880  0.44070  Biso   1.000  H
  H91      1.0000 0.35620  0.09880  0.05930  Biso   1.000  H
  H92      1.0000 0.14380  0.90120  0.55930  Biso   1.000  H
  H93      1.0000 0.14380  0.59880  0.05930  Biso   1.000  H
  H94      1.0000 0.35620  0.40120  0.55930  Biso   1.000  H
  H95      1.0000 0.64380  0.90120  0.94070  Biso   1.000  H
  H96      1.0000 0.85620  0.09880  0.44070  Biso   1.000  H
  C201     1.0000 0.88790  0.06404  0.97122  Biso   1.000  C
  C202     1.0000 0.61210  0.93596  0.47122  Biso   1.000  C
  C203     1.0000 0.38790  0.43596  0.02878  Biso   1.000  C
  C204     1.0000 0.11210  0.56404  0.52878  Biso   1.000  C
  C205     1.0000 0.11210  0.93596  0.02878  Biso   1.000  C
  C206     1.0000 0.38790  0.06404  0.52878  Biso   1.000  C
  C207     1.0000 0.61210  0.56404  0.97122  Biso   1.000  C
  C208     1.0000 0.88790  0.43596  0.47122  Biso   1.000  C
  C209     1.0000 0.92160  0.04583  0.92500  Biso   1.000  C
  C210     1.0000 0.57840  0.95417  0.42500  Biso   1.000  C
  C211     1.0000 0.42160  0.45417  0.07500  Biso   1.000  C
  C212     1.0000 0.07840  0.54583  0.57500  Biso   1.000  C
  C213     1.0000 0.07840  0.95417  0.07500  Biso   1.000  C
  C214     1.0000 0.42160  0.04583  0.57500  Biso   1.000  C
  C215     1.0000 0.57840  0.54583  0.92500  Biso   1.000  C
  C216     1.0000 0.92160  0.45417  0.42500  Biso   1.000  C
  H97      1.0000 0.93530  0.08220  0.90110  Biso   1.000  H
  H98      1.0000 0.56470  0.91780  0.40110  Biso   1.000  H
  H99      1.0000 0.43530  0.41780  0.09890  Biso   1.000  H
  H100     1.0000 0.06470  0.58220  0.59890  Biso   1.000  H
  H101     1.0000 0.06470  0.91780  0.09890  Biso   1.000  H
  H102     1.0000 0.43530  0.08220  0.59890  Biso   1.000  H
  H103     1.0000 0.56470  0.58220  0.90110  Biso   1.000  H
  H104     1.0000 0.93530  0.41780  0.40110  Biso   1.000  H
  C217     1.0000 0.93590  0.97320  0.91277  Biso   1.000  C
  C218     1.0000 0.56410  0.02680  0.41277  Biso   1.000  C
  C219     1.0000 0.43590  0.52680  0.08723  Biso   1.000  C
  C220     1.0000 0.06410  0.47320  0.58723  Biso   1.000  C
  C221     1.0000 0.06410  0.02680  0.08723  Biso   1.000  C
  C222     1.0000 0.43590  0.97320  0.58723  Biso   1.000  C
  C223     1.0000 0.56410  0.47320  0.91277  Biso   1.000  C
  C224     1.0000 0.93590  0.52680  0.41277  Biso   1.000  C
  H105     1.0000 0.96000  0.96220  0.88060  Biso   1.000  H
  H106     1.0000 0.54000  0.03780  0.38060  Biso   1.000  H
  H107     1.0000 0.46000  0.53780  0.11940  Biso   1.000  H
  H108     1.0000 0.04000  0.46220  0.61940  Biso   1.000  H
  H109     1.0000 0.04000  0.03780  0.11940  Biso   1.000  H
  H110     1.0000 0.46000  0.96220  0.61940  Biso   1.000  H
  H111     1.0000 0.54000  0.46220  0.88060  Biso   1.000  H
  H112     1.0000 0.96000  0.53780  0.38060  Biso   1.000  H
  C225     1.0000 0.88360  0.93660  0.98979  Biso   1.000  C
  C226     1.0000 0.61640  0.06340  0.48979  Biso   1.000  C
  C227     1.0000 0.38360  0.56340  0.01021  Biso   1.000  C
  C228     1.0000 0.11640  0.43660  0.51021  Biso   1.000  C
  C229     1.0000 0.11640  0.06340  0.01021  Biso   1.000  C
  C230     1.0000 0.38360  0.93660  0.51021  Biso   1.000  C
  C231     1.0000 0.61640  0.43660  0.98979  Biso   1.000  C
  C232     1.0000 0.88360  0.56340  0.48979  Biso   1.000  C
  C233     1.0000 0.86510  0.87910  0.02304  Biso   1.000  C
  C234     1.0000 0.63490  0.12090  0.52304  Biso   1.000  C
  C235     1.0000 0.36510  0.62090  0.97696  Biso   1.000  C
  C236     1.0000 0.13490  0.37910  0.47696  Biso   1.000  C
  C237     1.0000 0.13490  0.12090  0.97696  Biso   1.000  C
  C238     1.0000 0.36510  0.87910  0.47696  Biso   1.000  C
  C239     1.0000 0.63490  0.37910  0.02304  Biso   1.000  C
  C240     1.0000 0.86510  0.62090  0.52304  Biso   1.000  C
  H113     1.0000 0.87740  0.83130  0.01280  Biso   1.000  H
  H114     1.0000 0.62260  0.16870  0.51280  Biso   1.000  H
  H115     1.0000 0.37740  0.66870  0.98720  Biso   1.000  H
  H116     1.0000 0.12260  0.33130  0.48720  Biso   1.000  H
  H117     1.0000 0.12260  0.16870  0.98720  Biso   1.000  H
  H118     1.0000 0.37740  0.83130  0.48720  Biso   1.000  H
  H119     1.0000 0.62260  0.33130  0.01280  Biso   1.000  H
  H120     1.0000 0.87740  0.66870  0.51280  Biso   1.000  H
  C241     1.0000 0.82960  0.89160  0.06973  Biso   1.000  C
  C242     1.0000 0.67040  0.10840  0.56973  Biso   1.000  C
  C243     1.0000 0.32960  0.60840  0.93027  Biso   1.000  C
  C244     1.0000 0.17040  0.39160  0.43027  Biso   1.000  C
  C245     1.0000 0.17040  0.10840  0.93027  Biso   1.000  C
  C246     1.0000 0.32960  0.89160  0.43027  Biso   1.000  C
  C247     1.0000 0.67040  0.39160  0.06973  Biso   1.000  C
  C248     1.0000 0.82960  0.60840  0.56973  Biso   1.000  C
  H121     1.0000 0.81790  0.85250  0.09180  Biso   1.000  H
  H122     1.0000 0.68210  0.14750  0.59180  Biso   1.000  H
  H123     1.0000 0.31790  0.64750  0.90820  Biso   1.000  H
  H124     1.0000 0.18210  0.35250  0.40820  Biso   1.000  H
  H125     1.0000 0.18210  0.14750  0.90820  Biso   1.000  H
  H126     1.0000 0.31790  0.85250  0.40820  Biso   1.000  H
  H127     1.0000 0.68210  0.35250  0.09180  Biso   1.000  H
  H128     1.0000 0.81790  0.64750  0.59180  Biso   1.000  H
  C249     1.0000 0.81020  0.96270  0.08537  Biso   1.000  C
  C250     1.0000 0.68980  0.03730  0.58537  Biso   1.000  C
  C251     1.0000 0.31020  0.53730  0.91463  Biso   1.000  C
  C252     1.0000 0.18980  0.46270  0.41463  Biso   1.000  C
  C253     1.0000 0.18980  0.03730  0.91463  Biso   1.000  C
  C254     1.0000 0.31020  0.96270  0.41463  Biso   1.000  C
  C255     1.0000 0.68980  0.46270  0.08537  Biso   1.000  C
  C256     1.0000 0.81020  0.53730  0.58537  Biso   1.000  C
  H129     1.0000 0.78520  0.97100  0.11770  Biso   1.000  H
  H130     1.0000 0.71480  0.02900  0.61770  Biso   1.000  H
  H131     1.0000 0.28520  0.52900  0.88230  Biso   1.000  H
  H132     1.0000 0.21480  0.47100  0.38230  Biso   1.000  H
  H133     1.0000 0.21480  0.02900  0.88230  Biso   1.000  H
  H134     1.0000 0.28520  0.97100  0.38230  Biso   1.000  H
  H135     1.0000 0.71480  0.47100  0.11770  Biso   1.000  H
  H136     1.0000 0.78520  0.52900  0.61770  Biso   1.000  H
  C257     1.0000 0.82760  0.01890  0.05401  Biso   1.000  C
  C258     1.0000 0.67240  0.98110  0.55401  Biso   1.000  C
  C259     1.0000 0.32760  0.48110  0.94599  Biso   1.000  C
  C260     1.0000 0.17240  0.51890  0.44599  Biso   1.000  C
  C261     1.0000 0.17240  0.98110  0.94599  Biso   1.000  C
  C262     1.0000 0.32760  0.01890  0.44599  Biso   1.000  C
  C263     1.0000 0.67240  0.51890  0.05401  Biso   1.000  C
  C264     1.0000 0.82760  0.48110  0.55401  Biso   1.000  C
  H137     1.0000 0.81370  0.06620  0.06460  Biso   1.000  H
  H138     1.0000 0.68630  0.93380  0.56460  Biso   1.000  H
  H139     1.0000 0.31370  0.43380  0.93540  Biso   1.000  H
  H140     1.0000 0.18630  0.56620  0.43540  Biso   1.000  H
  H141     1.0000 0.18630  0.93380  0.93540  Biso   1.000  H
  H142     1.0000 0.31370  0.06620  0.43540  Biso   1.000  H
  H143     1.0000 0.68630  0.56620  0.06460  Biso   1.000  H
  H144     1.0000 0.81370  0.43380  0.56460  Biso   1.000  H
  C265     1.0000 0.86620  0.00805  0.00575  Biso   1.000  C
  C266     1.0000 0.63380  0.99195  0.50575  Biso   1.000  C
  C267     1.0000 0.36620  0.49195  0.99425  Biso   1.000  C
  C268     1.0000 0.13380  0.50805  0.49425  Biso   1.000  C
  C269     1.0000 0.13380  0.99195  0.99425  Biso   1.000  C
  C270     1.0000 0.36620  0.00805  0.49425  Biso   1.000  C
  C271     1.0000 0.63380  0.50805  0.00575  Biso   1.000  C
  C272     1.0000 0.86620  0.49195  0.50575  Biso   1.000  C
  Cl1      1.0000 0.13443  0.43294  0.04224  Biso   1.000  Cl
  Cl2      1.0000 0.36557  0.56706  0.54224  Biso   1.000  Cl
  Cl3      1.0000 0.63443  0.06706  0.95776  Biso   1.000  Cl
  Cl4      1.0000 0.86557  0.93294  0.45776  Biso   1.000  Cl
  Cl5      1.0000 0.86557  0.56706  0.95776  Biso   1.000  Cl
  Cl6      1.0000 0.63443  0.43294  0.45776  Biso   1.000  Cl
  Cl7      1.0000 0.36557  0.93294  0.04224  Biso   1.000  Cl
  Cl8      1.0000 0.13443  0.06706  0.54224  Biso   1.000  Cl
  Cl9      1.0000 0.12240  0.31551  0.97755  Biso   1.000  Cl
  Cl10     1.0000 0.37760  0.68449  0.47755  Biso   1.000  Cl
  Cl11     1.0000 0.62240  0.18449  0.02245  Biso   1.000  Cl
  Cl12     1.0000 0.87760  0.81551  0.52245  Biso   1.000  Cl
  Cl13     1.0000 0.87760  0.68449  0.02245  Biso   1.000  Cl
  Cl14     1.0000 0.62240  0.31551  0.52245  Biso   1.000  Cl
  Cl15     1.0000 0.37760  0.81551  0.97755  Biso   1.000  Cl
  Cl16     1.0000 0.12240  0.18449  0.47755  Biso   1.000  Cl
  Cl17     1.0000 0.06814  0.45038  0.93968  Biso   1.000  Cl
  Cl18     1.0000 0.43186  0.54962  0.43968  Biso   1.000  Cl
  Cl19     1.0000 0.56814  0.04962  0.06032  Biso   1.000  Cl
  Cl20     1.0000 0.93186  0.95038  0.56032  Biso   1.000  Cl
  Cl21     1.0000 0.93186  0.54962  0.06032  Biso   1.000  Cl
  Cl22     1.0000 0.56814  0.45038  0.56032  Biso   1.000  Cl
  Cl23     1.0000 0.43186  0.95038  0.93968  Biso   1.000  Cl
  Cl24     1.0000 0.06814  0.04962  0.43968  Biso   1.000  Cl
  C273     1.0000 0.07380  0.39580  0.99120  Biso   1.000  C
  C274     1.0000 0.42620  0.60420  0.49120  Biso   1.000  C
  C275     1.0000 0.57380  0.10420  0.00880  Biso   1.000  C
  C276     1.0000 0.92620  0.89580  0.50880  Biso   1.000  C
  C277     1.0000 0.92620  0.60420  0.00880  Biso   1.000  C
  C278     1.0000 0.57380  0.39580  0.50880  Biso   1.000  C
  C279     1.0000 0.42620  0.89580  0.99120  Biso   1.000  C
  C280     1.0000 0.07380  0.10420  0.49120  Biso   1.000  C
  H145     1.0000 0.01250  0.38630  0.00310  Biso   1.000  H
  H146     1.0000 0.48750  0.61370  0.50310  Biso   1.000  H
  H147     1.0000 0.51250  0.11370  0.99690  Biso   1.000  H
  H148     1.0000 0.98750  0.88630  0.49690  Biso   1.000  H
  H149     1.0000 0.98750  0.61370  0.99690  Biso   1.000  H
  H150     1.0000 0.51250  0.38630  0.49690  Biso   1.000  H
  H151     1.0000 0.48750  0.88630  0.00310  Biso   1.000  H
  H152     1.0000 0.01250  0.11370  0.50310  Biso   1.000  H
