data_image0
_cell_length_a       21.4216
_cell_length_b       13.9805
_cell_length_c       25.0391
_cell_angle_alpha    90
_cell_angle_beta     115.666
_cell_angle_gamma    90

_symmetry_space_group_name_H-M    "P 1"
_symmetry_int_tables_number       1

loop_
  _symmetry_equiv_pos_as_xyz
  'x, y, z'

loop_
  _atom_site_label
  _atom_site_occupancy
  _atom_site_fract_x
  _atom_site_fract_y
  _atom_site_fract_z
  _atom_site_thermal_displace_type
  _atom_site_B_iso_or_equiv
  _atom_site_type_symbol
  Cu1      1.0000 0.00000  0.00000  0.50000  Biso   1.000  Cu
  Cu2      1.0000 0.00000  0.00000  0.00000  Biso   1.000  Cu
  Cu3      1.0000 0.50000  0.50000  0.50000  Biso   1.000  Cu
  Cu4      1.0000 0.50000  0.50000  0.00000  Biso   1.000  Cu
  Cu5      1.0000 0.50000  0.00000  0.00000  Biso   1.000  Cu
  Cu6      1.0000 0.50000  0.00000  0.50000  Biso   1.000  Cu
  Cu7      1.0000 0.00000  0.50000  0.00000  Biso   1.000  Cu
  Cu8      1.0000 0.00000  0.50000  0.50000  Biso   1.000  Cu
  F1       1.0000 0.23540  0.09740  0.52863  Biso   1.000  F
  F2       1.0000 0.76460  0.09740  0.97137  Biso   1.000  F
  F3       1.0000 0.73540  0.59740  0.52863  Biso   1.000  F
  F4       1.0000 0.26460  0.59740  0.97137  Biso   1.000  F
  F5       1.0000 0.76460  0.90260  0.47137  Biso   1.000  F
  F6       1.0000 0.23540  0.90260  0.02863  Biso   1.000  F
  F7       1.0000 0.26460  0.40260  0.47137  Biso   1.000  F
  F8       1.0000 0.73540  0.40260  0.02863  Biso   1.000  F
  F9       1.0000 0.16890  0.18960  0.46680  Biso   1.000  F
  F10      1.0000 0.83110  0.18960  0.03320  Biso   1.000  F
  F11      1.0000 0.66890  0.68960  0.46680  Biso   1.000  F
  F12      1.0000 0.33110  0.68960  0.03320  Biso   1.000  F
  F13      1.0000 0.83110  0.81040  0.53320  Biso   1.000  F
  F14      1.0000 0.16890  0.81040  0.96680  Biso   1.000  F
  F15      1.0000 0.33110  0.31040  0.53320  Biso   1.000  F
  F16      1.0000 0.66890  0.31040  0.96680  Biso   1.000  F
  F17      1.0000 0.21150  0.07740  0.44010  Biso   1.000  F
  F18      1.0000 0.78850  0.07740  0.05990  Biso   1.000  F
  F19      1.0000 0.71150  0.57740  0.44010  Biso   1.000  F
  F20      1.0000 0.28850  0.57740  0.05990  Biso   1.000  F
  F21      1.0000 0.78850  0.92260  0.55990  Biso   1.000  F
  F22      1.0000 0.21150  0.92260  0.94010  Biso   1.000  F
  F23      1.0000 0.28850  0.42260  0.55990  Biso   1.000  F
  F24      1.0000 0.71150  0.42260  0.94010  Biso   1.000  F
  F25      1.0000 0.51760  0.08690  0.81562  Biso   1.000  F
  F26      1.0000 0.48240  0.08690  0.68438  Biso   1.000  F
  F27      1.0000 0.01760  0.58690  0.81562  Biso   1.000  F
  F28      1.0000 0.98240  0.58690  0.68438  Biso   1.000  F
  F29      1.0000 0.48240  0.91310  0.18438  Biso   1.000  F
  F30      1.0000 0.51760  0.91310  0.31562  Biso   1.000  F
  F31      1.0000 0.98240  0.41310  0.18438  Biso   1.000  F
  F32      1.0000 0.01760  0.41310  0.31562  Biso   1.000  F
  F33      1.0000 0.54460  0.19690  0.87620  Biso   1.000  F
  F34      1.0000 0.45540  0.19690  0.62380  Biso   1.000  F
  F35      1.0000 0.04460  0.69690  0.87620  Biso   1.000  F
  F36      1.0000 0.95540  0.69690  0.62380  Biso   1.000  F
  F37      1.0000 0.45540  0.80310  0.12380  Biso   1.000  F
  F38      1.0000 0.54460  0.80310  0.37620  Biso   1.000  F
  F39      1.0000 0.95540  0.30310  0.12380  Biso   1.000  F
  F40      1.0000 0.04460  0.30310  0.37620  Biso   1.000  F
  F41      1.0000 0.62125  0.11740  0.86819  Biso   1.000  F
  F42      1.0000 0.37875  0.11740  0.63181  Biso   1.000  F
  F43      1.0000 0.12125  0.61740  0.86819  Biso   1.000  F
  F44      1.0000 0.87875  0.61740  0.63181  Biso   1.000  F
  F45      1.0000 0.37875  0.88260  0.13181  Biso   1.000  F
  F46      1.0000 0.62125  0.88260  0.36819  Biso   1.000  F
  F47      1.0000 0.87875  0.38260  0.13181  Biso   1.000  F
  F48      1.0000 0.12125  0.38260  0.36819  Biso   1.000  F
  F49      1.0000 0.97250  0.84690  0.32857  Biso   1.000  F
  F50      1.0000 0.02750  0.84690  0.17143  Biso   1.000  F
  F51      1.0000 0.47250  0.34690  0.32857  Biso   1.000  F
  F52      1.0000 0.52750  0.34690  0.17143  Biso   1.000  F
  F53      1.0000 0.02750  0.15310  0.67143  Biso   1.000  F
  F54      1.0000 0.97250  0.15310  0.82857  Biso   1.000  F
  F55      1.0000 0.52750  0.65310  0.67143  Biso   1.000  F
  F56      1.0000 0.47250  0.65310  0.82857  Biso   1.000  F
  F57      1.0000 0.02109  0.74135  0.39299  Biso   1.000  F
  F58      1.0000 0.97891  0.74135  0.10701  Biso   1.000  F
  F59      1.0000 0.52109  0.24135  0.39299  Biso   1.000  F
  F60      1.0000 0.47891  0.24135  0.10701  Biso   1.000  F
  F61      1.0000 0.97891  0.25865  0.60701  Biso   1.000  F
  F62      1.0000 0.02109  0.25865  0.89299  Biso   1.000  F
  F63      1.0000 0.47891  0.75865  0.60701  Biso   1.000  F
  F64      1.0000 0.52109  0.75865  0.89299  Biso   1.000  F
  F65      1.0000 0.07970  0.81170  0.35539  Biso   1.000  F
  F66      1.0000 0.92030  0.81170  0.14461  Biso   1.000  F
  F67      1.0000 0.57970  0.31170  0.35539  Biso   1.000  F
  F68      1.0000 0.42030  0.31170  0.14461  Biso   1.000  F
  F69      1.0000 0.92030  0.18830  0.64461  Biso   1.000  F
  F70      1.0000 0.07970  0.18830  0.85539  Biso   1.000  F
  F71      1.0000 0.42030  0.68830  0.64461  Biso   1.000  F
  F72      1.0000 0.57970  0.68830  0.85539  Biso   1.000  F
  F73      1.0000 0.71659  0.85880  0.05542  Biso   1.000  F
  F74      1.0000 0.28341  0.85880  0.44458  Biso   1.000  F
  F75      1.0000 0.21659  0.35880  0.05542  Biso   1.000  F
  F76      1.0000 0.78341  0.35880  0.44458  Biso   1.000  F
  F77      1.0000 0.28341  0.14120  0.94458  Biso   1.000  F
  F78      1.0000 0.71659  0.14120  0.55542  Biso   1.000  F
  F79      1.0000 0.78341  0.64120  0.94458  Biso   1.000  F
  F80      1.0000 0.21659  0.64120  0.55542  Biso   1.000  F
  F81      1.0000 0.70710  0.83380  0.96879  Biso   1.000  F
  F82      1.0000 0.29290  0.83380  0.53121  Biso   1.000  F
  F83      1.0000 0.20710  0.33380  0.96879  Biso   1.000  F
  F84      1.0000 0.79290  0.33380  0.53121  Biso   1.000  F
  F85      1.0000 0.29290  0.16620  0.03121  Biso   1.000  F
  F86      1.0000 0.70710  0.16620  0.46879  Biso   1.000  F
  F87      1.0000 0.79290  0.66620  0.03121  Biso   1.000  F
  F88      1.0000 0.20710  0.66620  0.46879  Biso   1.000  F
  F89      1.0000 0.65394  0.74650  0.00543  Biso   1.000  F
  F90      1.0000 0.34606  0.74650  0.49457  Biso   1.000  F
  F91      1.0000 0.15394  0.24650  0.00543  Biso   1.000  F
  F92      1.0000 0.84606  0.24650  0.49457  Biso   1.000  F
  F93      1.0000 0.34606  0.25350  0.99457  Biso   1.000  F
  F94      1.0000 0.65394  0.25350  0.50543  Biso   1.000  F
  F95      1.0000 0.84606  0.75350  0.99457  Biso   1.000  F
  F96      1.0000 0.15394  0.75350  0.50543  Biso   1.000  F
  O1       1.0000 0.10026  0.06320  0.50584  Biso   1.000  O
  O2       1.0000 0.89974  0.06320  0.99416  Biso   1.000  O
  O3       1.0000 0.60026  0.56320  0.50584  Biso   1.000  O
  O4       1.0000 0.39974  0.56320  0.99416  Biso   1.000  O
  O5       1.0000 0.89974  0.93680  0.49416  Biso   1.000  O
  O6       1.0000 0.10026  0.93680  0.00584  Biso   1.000  O
  O7       1.0000 0.39974  0.43680  0.49416  Biso   1.000  O
  O8       1.0000 0.60026  0.43680  0.00584  Biso   1.000  O
  O9       1.0000 0.50469  0.05460  0.92244  Biso   1.000  O
  O10      1.0000 0.49531  0.05460  0.57756  Biso   1.000  O
  O11      1.0000 0.00469  0.55460  0.92244  Biso   1.000  O
  O12      1.0000 0.99531  0.55460  0.57756  Biso   1.000  O
  O13      1.0000 0.49531  0.94540  0.07756  Biso   1.000  O
  O14      1.0000 0.50469  0.94540  0.42244  Biso   1.000  O
  O15      1.0000 0.99531  0.44540  0.07756  Biso   1.000  O
  O16      1.0000 0.00469  0.44540  0.42244  Biso   1.000  O
  O17      1.0000 0.01194  0.89830  0.44836  Biso   1.000  O
  O18      1.0000 0.98806  0.89830  0.05164  Biso   1.000  O
  O19      1.0000 0.51194  0.39830  0.44836  Biso   1.000  O
  O20      1.0000 0.48806  0.39830  0.05164  Biso   1.000  O
  O21      1.0000 0.98806  0.10170  0.55164  Biso   1.000  O
  O22      1.0000 0.01194  0.10170  0.94836  Biso   1.000  O
  O23      1.0000 0.48806  0.60170  0.55164  Biso   1.000  O
  O24      1.0000 0.51194  0.60170  0.94836  Biso   1.000  O
  O25      1.0000 0.56928  0.88970  0.00079  Biso   1.000  O
  O26      1.0000 0.43072  0.88970  0.49921  Biso   1.000  O
  O27      1.0000 0.06928  0.38970  0.00079  Biso   1.000  O
  O28      1.0000 0.93072  0.38970  0.49921  Biso   1.000  O
  O29      1.0000 0.43072  0.11030  0.99921  Biso   1.000  O
  O30      1.0000 0.56928  0.11030  0.50079  Biso   1.000  O
  O31      1.0000 0.93072  0.61030  0.99921  Biso   1.000  O
  O32      1.0000 0.06928  0.61030  0.50079  Biso   1.000  O
  N1       1.0000 0.05591  0.92090  0.57349  Biso   1.000  N
  N2       1.0000 0.94409  0.92090  0.92651  Biso   1.000  N
  N3       1.0000 0.55591  0.42090  0.57349  Biso   1.000  N
  N4       1.0000 0.44409  0.42090  0.92651  Biso   1.000  N
  N5       1.0000 0.94409  0.07910  0.42651  Biso   1.000  N
  N6       1.0000 0.05591  0.07910  0.07349  Biso   1.000  N
  N7       1.0000 0.44409  0.57910  0.42651  Biso   1.000  N
  N8       1.0000 0.55591  0.57910  0.07349  Biso   1.000  N
  N9       1.0000 0.21363  0.79950  0.77275  Biso   1.000  N
  N10      1.0000 0.78637  0.79950  0.72725  Biso   1.000  N
  N11      1.0000 0.71363  0.29950  0.77275  Biso   1.000  N
  N12      1.0000 0.28637  0.29950  0.72725  Biso   1.000  N
  N13      1.0000 0.78637  0.20050  0.22725  Biso   1.000  N
  N14      1.0000 0.21363  0.20050  0.27275  Biso   1.000  N
  N15      1.0000 0.28637  0.70050  0.22725  Biso   1.000  N
  N16      1.0000 0.71363  0.70050  0.27275  Biso   1.000  N
  N17      1.0000 0.41695  0.92250  0.94755  Biso   1.000  N
  N18      1.0000 0.58305  0.92250  0.55245  Biso   1.000  N
  N19      1.0000 0.91695  0.42250  0.94755  Biso   1.000  N
  N20      1.0000 0.08305  0.42250  0.55245  Biso   1.000  N
  N21      1.0000 0.58305  0.07750  0.05245  Biso   1.000  N
  N22      1.0000 0.41695  0.07750  0.44755  Biso   1.000  N
  N23      1.0000 0.08305  0.57750  0.05245  Biso   1.000  N
  N24      1.0000 0.91695  0.57750  0.44755  Biso   1.000  N
  N25      1.0000 0.18580  0.11370  0.79480  Biso   1.000  N
  N26      1.0000 0.81420  0.11370  0.70520  Biso   1.000  N
  N27      1.0000 0.68580  0.61370  0.79480  Biso   1.000  N
  N28      1.0000 0.31420  0.61370  0.70520  Biso   1.000  N
  N29      1.0000 0.81420  0.88630  0.20520  Biso   1.000  N
  N30      1.0000 0.18580  0.88630  0.29480  Biso   1.000  N
  N31      1.0000 0.31420  0.38630  0.20520  Biso   1.000  N
  N32      1.0000 0.68580  0.38630  0.29480  Biso   1.000  N
  C1       1.0000 0.12670  0.90710  0.67764  Biso   1.000  C
  C2       1.0000 0.87330  0.90710  0.82236  Biso   1.000  C
  C3       1.0000 0.62670  0.40710  0.67764  Biso   1.000  C
  C4       1.0000 0.37330  0.40710  0.82236  Biso   1.000  C
  C5       1.0000 0.87330  0.09290  0.32236  Biso   1.000  C
  C6       1.0000 0.12670  0.09290  0.17764  Biso   1.000  C
  C7       1.0000 0.37330  0.59290  0.32236  Biso   1.000  C
  C8       1.0000 0.62670  0.59290  0.17764  Biso   1.000  C
  H1       1.0000 0.15150  0.93820  0.71460  Biso   1.000  H
  H2       1.0000 0.84850  0.93820  0.78540  Biso   1.000  H
  H3       1.0000 0.65150  0.43820  0.71460  Biso   1.000  H
  H4       1.0000 0.34850  0.43820  0.78540  Biso   1.000  H
  H5       1.0000 0.84850  0.06180  0.28540  Biso   1.000  H
  H6       1.0000 0.15150  0.06180  0.21460  Biso   1.000  H
  H7       1.0000 0.34850  0.56180  0.28540  Biso   1.000  H
  H8       1.0000 0.65150  0.56180  0.21460  Biso   1.000  H
  C9       1.0000 0.12430  0.03930  0.47081  Biso   1.000  C
  C10      1.0000 0.87570  0.03930  0.02919  Biso   1.000  C
  C11      1.0000 0.62430  0.53930  0.47081  Biso   1.000  C
  C12      1.0000 0.37570  0.53930  0.02919  Biso   1.000  C
  C13      1.0000 0.87570  0.96070  0.52919  Biso   1.000  C
  C14      1.0000 0.12430  0.96070  0.97081  Biso   1.000  C
  C15      1.0000 0.37570  0.46070  0.52919  Biso   1.000  C
  C16      1.0000 0.62430  0.46070  0.97081  Biso   1.000  C
  C17      1.0000 0.55650  0.04010  0.91319  Biso   1.000  C
  C18      1.0000 0.44350  0.04010  0.58681  Biso   1.000  C
  C19      1.0000 0.05650  0.54010  0.91319  Biso   1.000  C
  C20      1.0000 0.94350  0.54010  0.58681  Biso   1.000  C
  C21      1.0000 0.44350  0.95990  0.08681  Biso   1.000  C
  C22      1.0000 0.55650  0.95990  0.41319  Biso   1.000  C
  C23      1.0000 0.94350  0.45990  0.08681  Biso   1.000  C
  C24      1.0000 0.05650  0.45990  0.41319  Biso   1.000  C
  C25      1.0000 0.09170  0.95990  0.62727  Biso   1.000  C
  C26      1.0000 0.90830  0.95990  0.87273  Biso   1.000  C
  C27      1.0000 0.59170  0.45990  0.62727  Biso   1.000  C
  C28      1.0000 0.40830  0.45990  0.87273  Biso   1.000  C
  C29      1.0000 0.90830  0.04010  0.37273  Biso   1.000  C
  C30      1.0000 0.09170  0.04010  0.12727  Biso   1.000  C
  C31      1.0000 0.40830  0.54010  0.37273  Biso   1.000  C
  C32      1.0000 0.59170  0.54010  0.12727  Biso   1.000  C
  H9       1.0000 0.09270  0.02760  0.63060  Biso   1.000  H
  H10      1.0000 0.90730  0.02760  0.86940  Biso   1.000  H
  H11      1.0000 0.59270  0.52760  0.63060  Biso   1.000  H
  H12      1.0000 0.40730  0.52760  0.86940  Biso   1.000  H
  H13      1.0000 0.90730  0.97240  0.36940  Biso   1.000  H
  H14      1.0000 0.09270  0.97240  0.13060  Biso   1.000  H
  H15      1.0000 0.40730  0.47240  0.36940  Biso   1.000  H
  H16      1.0000 0.59270  0.47240  0.13060  Biso   1.000  H
  C33      1.0000 0.10290  0.96510  0.42914  Biso   1.000  C
  C34      1.0000 0.89710  0.96510  0.07086  Biso   1.000  C
  C35      1.0000 0.60290  0.46510  0.42914  Biso   1.000  C
  C36      1.0000 0.39710  0.46510  0.07086  Biso   1.000  C
  C37      1.0000 0.89710  0.03490  0.57086  Biso   1.000  C
  C38      1.0000 0.10290  0.03490  0.92914  Biso   1.000  C
  C39      1.0000 0.39710  0.53490  0.57086  Biso   1.000  C
  C40      1.0000 0.60290  0.53490  0.92914  Biso   1.000  C
  H17      1.0000 0.12560  0.95780  0.40420  Biso   1.000  H
  H18      1.0000 0.87440  0.95780  0.09580  Biso   1.000  H
  H19      1.0000 0.62560  0.45780  0.40420  Biso   1.000  H
  H20      1.0000 0.37440  0.45780  0.09580  Biso   1.000  H
  H21      1.0000 0.87440  0.04220  0.59580  Biso   1.000  H
  H22      1.0000 0.12560  0.04220  0.90420  Biso   1.000  H
  H23      1.0000 0.37440  0.54220  0.59580  Biso   1.000  H
  H24      1.0000 0.62560  0.54220  0.90420  Biso   1.000  H
  C41      1.0000 0.60860  0.97310  0.93699  Biso   1.000  C
  C42      1.0000 0.39140  0.97310  0.56301  Biso   1.000  C
  C43      1.0000 0.10860  0.47310  0.93699  Biso   1.000  C
  C44      1.0000 0.89140  0.47310  0.56301  Biso   1.000  C
  C45      1.0000 0.39140  0.02690  0.06301  Biso   1.000  C
  C46      1.0000 0.60860  0.02690  0.43699  Biso   1.000  C
  C47      1.0000 0.89140  0.52690  0.06301  Biso   1.000  C
  C48      1.0000 0.10860  0.52690  0.43699  Biso   1.000  C
  H25      1.0000 0.64500  0.97470  0.92500  Biso   1.000  H
  H26      1.0000 0.35500  0.97470  0.57500  Biso   1.000  H
  H27      1.0000 0.14500  0.47470  0.92500  Biso   1.000  H
  H28      1.0000 0.85500  0.47470  0.57500  Biso   1.000  H
  H29      1.0000 0.35500  0.02530  0.07500  Biso   1.000  H
  H30      1.0000 0.64500  0.02530  0.42500  Biso   1.000  H
  H31      1.0000 0.85500  0.52530  0.07500  Biso   1.000  H
  H32      1.0000 0.14500  0.52530  0.42500  Biso   1.000  H
  C49      1.0000 0.05650  0.82560  0.57025  Biso   1.000  C
  C50      1.0000 0.94350  0.82560  0.92975  Biso   1.000  C
  C51      1.0000 0.55650  0.32560  0.57025  Biso   1.000  C
  C52      1.0000 0.44350  0.32560  0.92975  Biso   1.000  C
  C53      1.0000 0.94350  0.17440  0.42975  Biso   1.000  C
  C54      1.0000 0.05650  0.17440  0.07025  Biso   1.000  C
  C55      1.0000 0.44350  0.67440  0.42975  Biso   1.000  C
  C56      1.0000 0.55650  0.67440  0.07025  Biso   1.000  C
  H33      1.0000 0.03230  0.79650  0.53250  Biso   1.000  H
  H34      1.0000 0.96770  0.79650  0.96750  Biso   1.000  H
  H35      1.0000 0.53230  0.29650  0.53250  Biso   1.000  H
  H36      1.0000 0.46770  0.29650  0.96750  Biso   1.000  H
  H37      1.0000 0.96770  0.20350  0.46750  Biso   1.000  H
  H38      1.0000 0.03230  0.20350  0.03250  Biso   1.000  H
  H39      1.0000 0.46770  0.70350  0.46750  Biso   1.000  H
  H40      1.0000 0.53230  0.70350  0.03250  Biso   1.000  H
  C57      1.0000 0.05080  0.90250  0.42245  Biso   1.000  C
  C58      1.0000 0.94920  0.90250  0.07755  Biso   1.000  C
  C59      1.0000 0.55080  0.40250  0.42245  Biso   1.000  C
  C60      1.0000 0.44920  0.40250  0.07755  Biso   1.000  C
  C61      1.0000 0.94920  0.09750  0.57755  Biso   1.000  C
  C62      1.0000 0.05080  0.09750  0.92245  Biso   1.000  C
  C63      1.0000 0.44920  0.59750  0.57755  Biso   1.000  C
  C64      1.0000 0.55080  0.59750  0.92245  Biso   1.000  C
  C65      1.0000 0.61110  0.90300  0.97780  Biso   1.000  C
  C66      1.0000 0.38890  0.90300  0.52220  Biso   1.000  C
  C67      1.0000 0.11110  0.40300  0.97780  Biso   1.000  C
  C68      1.0000 0.88890  0.40300  0.52220  Biso   1.000  C
  C69      1.0000 0.38890  0.09700  0.02220  Biso   1.000  C
  C70      1.0000 0.61110  0.09700  0.47780  Biso   1.000  C
  C71      1.0000 0.88890  0.59700  0.02220  Biso   1.000  C
  C72      1.0000 0.11110  0.59700  0.47780  Biso   1.000  C
  C73      1.0000 0.09030  0.76700  0.61872  Biso   1.000  C
  C74      1.0000 0.90970  0.76700  0.88128  Biso   1.000  C
  C75      1.0000 0.59030  0.26700  0.61872  Biso   1.000  C
  C76      1.0000 0.40970  0.26700  0.88128  Biso   1.000  C
  C77      1.0000 0.90970  0.23300  0.38128  Biso   1.000  C
  C78      1.0000 0.09030  0.23300  0.11872  Biso   1.000  C
  C79      1.0000 0.40970  0.73300  0.38128  Biso   1.000  C
  C80      1.0000 0.59030  0.73300  0.11872  Biso   1.000  C
  H41      1.0000 0.08920  0.69940  0.61410  Biso   1.000  H
  H42      1.0000 0.91080  0.69940  0.88590  Biso   1.000  H
  H43      1.0000 0.58920  0.19940  0.61410  Biso   1.000  H
  H44      1.0000 0.41080  0.19940  0.88590  Biso   1.000  H
  H45      1.0000 0.91080  0.30060  0.38590  Biso   1.000  H
  H46      1.0000 0.08920  0.30060  0.11410  Biso   1.000  H
  H47      1.0000 0.41080  0.80060  0.38590  Biso   1.000  H
  H48      1.0000 0.58920  0.80060  0.11410  Biso   1.000  H
  C81      1.0000 0.18550  0.10110  0.47490  Biso   1.000  C
  C82      1.0000 0.81450  0.10110  0.02510  Biso   1.000  C
  C83      1.0000 0.68550  0.60110  0.47490  Biso   1.000  C
  C84      1.0000 0.31450  0.60110  0.02510  Biso   1.000  C
  C85      1.0000 0.81450  0.89890  0.52510  Biso   1.000  C
  C86      1.0000 0.18550  0.89890  0.97490  Biso   1.000  C
  C87      1.0000 0.31450  0.39890  0.52510  Biso   1.000  C
  C88      1.0000 0.68550  0.39890  0.97490  Biso   1.000  C
  C89      1.0000 0.56130  0.10660  0.86720  Biso   1.000  C
  C90      1.0000 0.43870  0.10660  0.63280  Biso   1.000  C
  C91      1.0000 0.06130  0.60660  0.86720  Biso   1.000  C
  C92      1.0000 0.93870  0.60660  0.63280  Biso   1.000  C
  C93      1.0000 0.43870  0.89340  0.13280  Biso   1.000  C
  C94      1.0000 0.56130  0.89340  0.36720  Biso   1.000  C
  C95      1.0000 0.93870  0.39340  0.13280  Biso   1.000  C
  C96      1.0000 0.06130  0.39340  0.36720  Biso   1.000  C
  C97      1.0000 0.12578  0.80800  0.67417  Biso   1.000  C
  C98      1.0000 0.87422  0.80800  0.82583  Biso   1.000  C
  C99      1.0000 0.62578  0.30800  0.67417  Biso   1.000  C
  C100     1.0000 0.37422  0.30800  0.82583  Biso   1.000  C
  C101     1.0000 0.87422  0.19200  0.32583  Biso   1.000  C
  C102     1.0000 0.12578  0.19200  0.17417  Biso   1.000  C
  C103     1.0000 0.37422  0.69200  0.32583  Biso   1.000  C
  C104     1.0000 0.62578  0.69200  0.17417  Biso   1.000  C
  C105     1.0000 0.03260  0.82510  0.37450  Biso   1.000  C
  C106     1.0000 0.96740  0.82510  0.12550  Biso   1.000  C
  C107     1.0000 0.53260  0.32510  0.37450  Biso   1.000  C
  C108     1.0000 0.46740  0.32510  0.12550  Biso   1.000  C
  C109     1.0000 0.96740  0.17490  0.62550  Biso   1.000  C
  C110     1.0000 0.03260  0.17490  0.87450  Biso   1.000  C
  C111     1.0000 0.46740  0.67490  0.62550  Biso   1.000  C
  C112     1.0000 0.53260  0.67490  0.87450  Biso   1.000  C
  C113     1.0000 0.67150  0.83430  0.00030  Biso   1.000  C
  C114     1.0000 0.32850  0.83430  0.49970  Biso   1.000  C
  C115     1.0000 0.17150  0.33430  0.00030  Biso   1.000  C
  C116     1.0000 0.82850  0.33430  0.49970  Biso   1.000  C
  C117     1.0000 0.32850  0.16570  0.99970  Biso   1.000  C
  C118     1.0000 0.67150  0.16570  0.50030  Biso   1.000  C
  C119     1.0000 0.82850  0.66570  0.99970  Biso   1.000  C
  C120     1.0000 0.17150  0.66570  0.50030  Biso   1.000  C
  C121     1.0000 0.16529  0.75060  0.72822  Biso   1.000  C
  C122     1.0000 0.83471  0.75060  0.77178  Biso   1.000  C
  C123     1.0000 0.66529  0.25060  0.72822  Biso   1.000  C
  C124     1.0000 0.33471  0.25060  0.77178  Biso   1.000  C
  C125     1.0000 0.83471  0.24940  0.27178  Biso   1.000  C
  C126     1.0000 0.16529  0.24940  0.22822  Biso   1.000  C
  C127     1.0000 0.33471  0.74940  0.27178  Biso   1.000  C
  C128     1.0000 0.66529  0.74940  0.22822  Biso   1.000  C
  C129     1.0000 0.15440  0.65260  0.73238  Biso   1.000  C
  C130     1.0000 0.84560  0.65260  0.76762  Biso   1.000  C
  C131     1.0000 0.65440  0.15260  0.73238  Biso   1.000  C
  C132     1.0000 0.34560  0.15260  0.76762  Biso   1.000  C
  C133     1.0000 0.84560  0.34740  0.26762  Biso   1.000  C
  C134     1.0000 0.15440  0.34740  0.23238  Biso   1.000  C
  C135     1.0000 0.34560  0.84740  0.26762  Biso   1.000  C
  C136     1.0000 0.65440  0.84740  0.23238  Biso   1.000  C
  H49      1.0000 0.11970  0.62020  0.69970  Biso   1.000  H
  H50      1.0000 0.88030  0.62020  0.80030  Biso   1.000  H
  H51      1.0000 0.61970  0.12020  0.69970  Biso   1.000  H
  H52      1.0000 0.38030  0.12020  0.80030  Biso   1.000  H
  H53      1.0000 0.88030  0.37980  0.30030  Biso   1.000  H
  H54      1.0000 0.11970  0.37980  0.19970  Biso   1.000  H
  H55      1.0000 0.38030  0.87980  0.30030  Biso   1.000  H
  H56      1.0000 0.61970  0.87980  0.19970  Biso   1.000  H
  C137     1.0000 0.19397  0.60260  0.78375  Biso   1.000  C
  C138     1.0000 0.80603  0.60260  0.71625  Biso   1.000  C
  C139     1.0000 0.69397  0.10260  0.78375  Biso   1.000  C
  C140     1.0000 0.30603  0.10260  0.71625  Biso   1.000  C
  C141     1.0000 0.80603  0.39740  0.21625  Biso   1.000  C
  C142     1.0000 0.19397  0.39740  0.28375  Biso   1.000  C
  C143     1.0000 0.30603  0.89740  0.21625  Biso   1.000  C
  C144     1.0000 0.69397  0.89740  0.28375  Biso   1.000  C
  C145     1.0000 0.24396  0.65490  0.82962  Biso   1.000  C
  C146     1.0000 0.75604  0.65490  0.67038  Biso   1.000  C
  C147     1.0000 0.74396  0.15490  0.82962  Biso   1.000  C
  C148     1.0000 0.25604  0.15490  0.67038  Biso   1.000  C
  C149     1.0000 0.75604  0.34510  0.17038  Biso   1.000  C
  C150     1.0000 0.24396  0.34510  0.32962  Biso   1.000  C
  C151     1.0000 0.25604  0.84510  0.17038  Biso   1.000  C
  C152     1.0000 0.74396  0.84510  0.32962  Biso   1.000  C
  H57      1.0000 0.27210  0.62430  0.86610  Biso   1.000  H
  H58      1.0000 0.72790  0.62430  0.63390  Biso   1.000  H
  H59      1.0000 0.77210  0.12430  0.86610  Biso   1.000  H
  H60      1.0000 0.22790  0.12430  0.63390  Biso   1.000  H
  H61      1.0000 0.72790  0.37570  0.13390  Biso   1.000  H
  H62      1.0000 0.27210  0.37570  0.36610  Biso   1.000  H
  H63      1.0000 0.22790  0.87570  0.13390  Biso   1.000  H
  H64      1.0000 0.77210  0.87570  0.36610  Biso   1.000  H
  C153     1.0000 0.25306  0.75170  0.82243  Biso   1.000  C
  C154     1.0000 0.74694  0.75170  0.67757  Biso   1.000  C
  C155     1.0000 0.75306  0.25170  0.82243  Biso   1.000  C
  C156     1.0000 0.24694  0.25170  0.67757  Biso   1.000  C
  C157     1.0000 0.74694  0.24830  0.17757  Biso   1.000  C
  C158     1.0000 0.25306  0.24830  0.32243  Biso   1.000  C
  C159     1.0000 0.24694  0.74830  0.17757  Biso   1.000  C
  C160     1.0000 0.75306  0.74830  0.32243  Biso   1.000  C
  C161     1.0000 0.30852  0.80950  0.86870  Biso   1.000  C
  C162     1.0000 0.69148  0.80950  0.63130  Biso   1.000  C
  C163     1.0000 0.80852  0.30950  0.86870  Biso   1.000  C
  C164     1.0000 0.19148  0.30950  0.63130  Biso   1.000  C
  C165     1.0000 0.69148  0.19050  0.13130  Biso   1.000  C
  C166     1.0000 0.30852  0.19050  0.36870  Biso   1.000  C
  C167     1.0000 0.19148  0.69050  0.13130  Biso   1.000  C
  C168     1.0000 0.80852  0.69050  0.36870  Biso   1.000  C
  C169     1.0000 0.36470  0.76900  0.91597  Biso   1.000  C
  C170     1.0000 0.63530  0.76900  0.58403  Biso   1.000  C
  C171     1.0000 0.86470  0.26900  0.91597  Biso   1.000  C
  C172     1.0000 0.13530  0.26900  0.58403  Biso   1.000  C
  C173     1.0000 0.63530  0.23100  0.08403  Biso   1.000  C
  C174     1.0000 0.36470  0.23100  0.41597  Biso   1.000  C
  C175     1.0000 0.13530  0.73100  0.08403  Biso   1.000  C
  C176     1.0000 0.86470  0.73100  0.41597  Biso   1.000  C
  H65      1.0000 0.36720  0.70180  0.92220  Biso   1.000  H
  H66      1.0000 0.63280  0.70180  0.57780  Biso   1.000  H
  H67      1.0000 0.86720  0.20180  0.92220  Biso   1.000  H
  H68      1.0000 0.13280  0.20180  0.57780  Biso   1.000  H
  H69      1.0000 0.63280  0.29820  0.07780  Biso   1.000  H
  H70      1.0000 0.36720  0.29820  0.42220  Biso   1.000  H
  H71      1.0000 0.13280  0.79820  0.07780  Biso   1.000  H
  H72      1.0000 0.86720  0.79820  0.42220  Biso   1.000  H
  C177     1.0000 0.41640  0.82810  0.95340  Biso   1.000  C
  C178     1.0000 0.58360  0.82810  0.54660  Biso   1.000  C
  C179     1.0000 0.91640  0.32810  0.95340  Biso   1.000  C
  C180     1.0000 0.08360  0.32810  0.54660  Biso   1.000  C
  C181     1.0000 0.58360  0.17190  0.04660  Biso   1.000  C
  C182     1.0000 0.41640  0.17190  0.45340  Biso   1.000  C
  C183     1.0000 0.08360  0.67190  0.04660  Biso   1.000  C
  C184     1.0000 0.91640  0.67190  0.45340  Biso   1.000  C
  H73      1.0000 0.45430  0.79950  0.98560  Biso   1.000  H
  H74      1.0000 0.54570  0.79950  0.51440  Biso   1.000  H
  H75      1.0000 0.95430  0.29950  0.98560  Biso   1.000  H
  H76      1.0000 0.04570  0.29950  0.51440  Biso   1.000  H
  H77      1.0000 0.54570  0.20050  0.01440  Biso   1.000  H
  H78      1.0000 0.45430  0.20050  0.48560  Biso   1.000  H
  H79      1.0000 0.04570  0.70050  0.01440  Biso   1.000  H
  H80      1.0000 0.95430  0.70050  0.48560  Biso   1.000  H
  C185     1.0000 0.36160  0.96150  0.90329  Biso   1.000  C
  C186     1.0000 0.63840  0.96150  0.59671  Biso   1.000  C
  C187     1.0000 0.86160  0.46150  0.90329  Biso   1.000  C
  C188     1.0000 0.13840  0.46150  0.59671  Biso   1.000  C
  C189     1.0000 0.63840  0.03850  0.09671  Biso   1.000  C
  C190     1.0000 0.36160  0.03850  0.40329  Biso   1.000  C
  C191     1.0000 0.13840  0.53850  0.09671  Biso   1.000  C
  C192     1.0000 0.86160  0.53850  0.40329  Biso   1.000  C
  H81      1.0000 0.36000  0.02910  0.89910  Biso   1.000  H
  H82      1.0000 0.64000  0.02910  0.60090  Biso   1.000  H
  H83      1.0000 0.86000  0.52910  0.89910  Biso   1.000  H
  H84      1.0000 0.14000  0.52910  0.60090  Biso   1.000  H
  H85      1.0000 0.64000  0.97090  0.10090  Biso   1.000  H
  H86      1.0000 0.36000  0.97090  0.39910  Biso   1.000  H
  H87      1.0000 0.14000  0.47090  0.10090  Biso   1.000  H
  H88      1.0000 0.86000  0.47090  0.39910  Biso   1.000  H
  C193     1.0000 0.30720  0.90930  0.86383  Biso   1.000  C
  C194     1.0000 0.69280  0.90930  0.63617  Biso   1.000  C
  C195     1.0000 0.80720  0.40930  0.86383  Biso   1.000  C
  C196     1.0000 0.19280  0.40930  0.63617  Biso   1.000  C
  C197     1.0000 0.69280  0.09070  0.13617  Biso   1.000  C
  C198     1.0000 0.30720  0.09070  0.36383  Biso   1.000  C
  C199     1.0000 0.19280  0.59070  0.13617  Biso   1.000  C
  C200     1.0000 0.80720  0.59070  0.36383  Biso   1.000  C
  H89      1.0000 0.26890  0.94050  0.83340  Biso   1.000  H
  H90      1.0000 0.73110  0.94050  0.66660  Biso   1.000  H
  H91      1.0000 0.76890  0.44050  0.83340  Biso   1.000  H
  H92      1.0000 0.23110  0.44050  0.66660  Biso   1.000  H
  H93      1.0000 0.73110  0.05950  0.16660  Biso   1.000  H
  H94      1.0000 0.26890  0.05950  0.33340  Biso   1.000  H
  H95      1.0000 0.23110  0.55950  0.16660  Biso   1.000  H
  H96      1.0000 0.76890  0.55950  0.33340  Biso   1.000  H
  C201     1.0000 0.18427  0.49654  0.78952  Biso   1.000  C
  C202     1.0000 0.81573  0.49654  0.71048  Biso   1.000  C
  C203     1.0000 0.68427  0.99654  0.78952  Biso   1.000  C
  C204     1.0000 0.31573  0.99654  0.71048  Biso   1.000  C
  C205     1.0000 0.81573  0.50346  0.21048  Biso   1.000  C
  C206     1.0000 0.18427  0.50346  0.28952  Biso   1.000  C
  C207     1.0000 0.31573  0.00346  0.21048  Biso   1.000  C
  C208     1.0000 0.68427  0.00346  0.28952  Biso   1.000  C
  C209     1.0000 0.22836  0.44843  0.84056  Biso   1.000  C
  C210     1.0000 0.77164  0.44843  0.65944  Biso   1.000  C
  C211     1.0000 0.72836  0.94843  0.84056  Biso   1.000  C
  C212     1.0000 0.27164  0.94843  0.65944  Biso   1.000  C
  C213     1.0000 0.77164  0.55157  0.15944  Biso   1.000  C
  C214     1.0000 0.22836  0.55157  0.34056  Biso   1.000  C
  C215     1.0000 0.27164  0.05157  0.15944  Biso   1.000  C
  C216     1.0000 0.72836  0.05157  0.34056  Biso   1.000  C
  H97      1.0000 0.26060  0.48330  0.87360  Biso   1.000  H
  H98      1.0000 0.73940  0.48330  0.62640  Biso   1.000  H
  H99      1.0000 0.76060  0.98330  0.87360  Biso   1.000  H
  H100     1.0000 0.23940  0.98330  0.62640  Biso   1.000  H
  H101     1.0000 0.73940  0.51670  0.12640  Biso   1.000  H
  H102     1.0000 0.26060  0.51670  0.37360  Biso   1.000  H
  H103     1.0000 0.23940  0.01670  0.12640  Biso   1.000  H
  H104     1.0000 0.76060  0.01670  0.37360  Biso   1.000  H
  C217     1.0000 0.22533  0.34934  0.84330  Biso   1.000  C
  C218     1.0000 0.77467  0.34934  0.65670  Biso   1.000  C
  C219     1.0000 0.72533  0.84934  0.84330  Biso   1.000  C
  C220     1.0000 0.27467  0.84934  0.65670  Biso   1.000  C
  C221     1.0000 0.77467  0.65066  0.15670  Biso   1.000  C
  C222     1.0000 0.22533  0.65066  0.34330  Biso   1.000  C
  C223     1.0000 0.27467  0.15066  0.15670  Biso   1.000  C
  C224     1.0000 0.72533  0.15066  0.34330  Biso   1.000  C
  H105     1.0000 0.25550  0.31650  0.87820  Biso   1.000  H
  H106     1.0000 0.74450  0.31650  0.62180  Biso   1.000  H
  H107     1.0000 0.75550  0.81650  0.87820  Biso   1.000  H
  H108     1.0000 0.24450  0.81650  0.62180  Biso   1.000  H
  H109     1.0000 0.74450  0.68350  0.12180  Biso   1.000  H
  H110     1.0000 0.25550  0.68350  0.37820  Biso   1.000  H
  H111     1.0000 0.24450  0.18350  0.12180  Biso   1.000  H
  H112     1.0000 0.75550  0.18350  0.37820  Biso   1.000  H
  C225     1.0000 0.17820  0.29836  0.79500  Biso   1.000  C
  C226     1.0000 0.82180  0.29836  0.70500  Biso   1.000  C
  C227     1.0000 0.67820  0.79836  0.79500  Biso   1.000  C
  C228     1.0000 0.32180  0.79836  0.70500  Biso   1.000  C
  C229     1.0000 0.82180  0.70164  0.20500  Biso   1.000  C
  C230     1.0000 0.17820  0.70164  0.29500  Biso   1.000  C
  C231     1.0000 0.32180  0.20164  0.20500  Biso   1.000  C
  C232     1.0000 0.67820  0.20164  0.29500  Biso   1.000  C
  C233     1.0000 0.13411  0.34647  0.74396  Biso   1.000  C
  C234     1.0000 0.86589  0.34647  0.75604  Biso   1.000  C
  C235     1.0000 0.63411  0.84647  0.74396  Biso   1.000  C
  C236     1.0000 0.36589  0.84647  0.75604  Biso   1.000  C
  C237     1.0000 0.86589  0.65353  0.25604  Biso   1.000  C
  C238     1.0000 0.13411  0.65353  0.24396  Biso   1.000  C
  C239     1.0000 0.36589  0.15353  0.25604  Biso   1.000  C
  C240     1.0000 0.63411  0.15353  0.24396  Biso   1.000  C
  H113     1.0000 0.10190  0.31160  0.71100  Biso   1.000  H
  H114     1.0000 0.89810  0.31160  0.78900  Biso   1.000  H
  H115     1.0000 0.60190  0.81160  0.71100  Biso   1.000  H
  H116     1.0000 0.39810  0.81160  0.78900  Biso   1.000  H
  H117     1.0000 0.89810  0.68840  0.28900  Biso   1.000  H
  H118     1.0000 0.10190  0.68840  0.21100  Biso   1.000  H
  H119     1.0000 0.39810  0.18840  0.28900  Biso   1.000  H
  H120     1.0000 0.60190  0.18840  0.21100  Biso   1.000  H
  C241     1.0000 0.13715  0.44556  0.74122  Biso   1.000  C
  C242     1.0000 0.86285  0.44556  0.75878  Biso   1.000  C
  C243     1.0000 0.63715  0.94556  0.74122  Biso   1.000  C
  C244     1.0000 0.36285  0.94556  0.75878  Biso   1.000  C
  C245     1.0000 0.86285  0.55444  0.25878  Biso   1.000  C
  C246     1.0000 0.13715  0.55444  0.24122  Biso   1.000  C
  C247     1.0000 0.36285  0.05444  0.25878  Biso   1.000  C
  C248     1.0000 0.63715  0.05444  0.24122  Biso   1.000  C
  H121     1.0000 0.10700  0.47840  0.70630  Biso   1.000  H
  H122     1.0000 0.89300  0.47840  0.79370  Biso   1.000  H
  H123     1.0000 0.60700  0.97840  0.70630  Biso   1.000  H
  H124     1.0000 0.39300  0.97840  0.79370  Biso   1.000  H
  H125     1.0000 0.89300  0.52160  0.29370  Biso   1.000  H
  H126     1.0000 0.10700  0.52160  0.20630  Biso   1.000  H
  H127     1.0000 0.39300  0.02160  0.29370  Biso   1.000  H
  H128     1.0000 0.60700  0.02160  0.20630  Biso   1.000  H
  C249     1.0000 0.18090  0.19590  0.79500  Biso   1.000  C
  C250     1.0000 0.81910  0.19590  0.70500  Biso   1.000  C
  C251     1.0000 0.68090  0.69590  0.79500  Biso   1.000  C
  C252     1.0000 0.31910  0.69590  0.70500  Biso   1.000  C
  C253     1.0000 0.81910  0.80410  0.20500  Biso   1.000  C
  C254     1.0000 0.18090  0.80410  0.29500  Biso   1.000  C
  C255     1.0000 0.31910  0.30410  0.20500  Biso   1.000  C
  C256     1.0000 0.68090  0.30410  0.29500  Biso   1.000  C
