data_image0
_cell_length_a       7.9012
_cell_length_b       9.652
_cell_length_c       12.4358
_cell_angle_alpha    74.19
_cell_angle_beta     71.363
_cell_angle_gamma    79.9

_symmetry_space_group_name_H-M    "P 1"
_symmetry_int_tables_number       1

loop_
  _symmetry_equiv_pos_as_xyz
  'x, y, z'

loop_
  _atom_site_label
  _atom_site_occupancy
  _atom_site_fract_x
  _atom_site_fract_y
  _atom_site_fract_z
  _atom_site_thermal_displace_type
  _atom_site_B_iso_or_equiv
  _atom_site_type_symbol
  C1       1.0000 0.05420  0.66190  0.55490  Biso   1.000  C
  C2       1.0000 0.94580  0.33810  0.44510  Biso   1.000  C
  C3       1.0000 0.94740  0.79090  0.50360  Biso   1.000  C
  C4       1.0000 0.05260  0.20910  0.49640  Biso   1.000  C
  C5       1.0000 0.90490  0.93960  0.33040  Biso   1.000  C
  C6       1.0000 0.09510  0.06040  0.66960  Biso   1.000  C
  H1       1.0000 0.93320  0.96000  0.24950  Biso   1.000  H
  H2       1.0000 0.06680  0.04000  0.75050  Biso   1.000  H
  C7       1.0000 0.27620  0.47530  0.51350  Biso   1.000  C
  C8       1.0000 0.72380  0.52470  0.48650  Biso   1.000  C
  H3       1.0000 0.35680  0.42790  0.45910  Biso   1.000  H
  H4       1.0000 0.64320  0.57210  0.54090  Biso   1.000  H
  C9       1.0000 0.26940  0.42390  0.62950  Biso   1.000  C
  C10      1.0000 0.73060  0.57610  0.37050  Biso   1.000  C
  H5       1.0000 0.34360  0.34300  0.65300  Biso   1.000  H
  H6       1.0000 0.65640  0.65700  0.34700  Biso   1.000  H
  C11      1.0000 0.14990  0.49520  0.71010  Biso   1.000  C
  C12      1.0000 0.85010  0.50480  0.28990  Biso   1.000  C
  H7       1.0000 0.14310  0.46270  0.78880  Biso   1.000  H
  H8       1.0000 0.85690  0.53730  0.21120  Biso   1.000  H
  C13      1.0000 0.77800  0.03120  0.39070  Biso   1.000  C
  C14      1.0000 0.22200  0.96880  0.60930  Biso   1.000  C
  H9       1.0000 0.72380  0.11370  0.35070  Biso   1.000  H
  H10      1.0000 0.27620  0.88630  0.64930  Biso   1.000  H
  C15      1.0000 0.73330  0.99850  0.51060  Biso   1.000  C
  C16      1.0000 0.26670  0.00150  0.48940  Biso   1.000  C
  H11      1.0000 0.64670  0.05790  0.55240  Biso   1.000  H
  H12      1.0000 0.35330  0.94210  0.44760  Biso   1.000  H
  C17      1.0000 0.04080  0.61490  0.67290  Biso   1.000  C
  C18      1.0000 0.95920  0.38510  0.32710  Biso   1.000  C
  H13      1.0000 0.95940  0.66340  0.72630  Biso   1.000  H
  H14      1.0000 0.04060  0.33660  0.27370  Biso   1.000  H
  C19      1.0000 0.81860  0.87570  0.56930  Biso   1.000  C
  C20      1.0000 0.18140  0.12430  0.43070  Biso   1.000  C
  H15      1.0000 0.78950  0.85170  0.65030  Biso   1.000  H
  H16      1.0000 0.21050  0.14830  0.34970  Biso   1.000  H
  Cu1      1.0000 0.17310  0.68173  0.31140  Biso   1.000  Cu
  Cu2      1.0000 0.82690  0.31827  0.68860  Biso   1.000  Cu
  Mo1      1.0000 0.48637  0.94920  0.16005  Biso   1.000  Mo
  Mo2      1.0000 0.51363  0.05080  0.83995  Biso   1.000  Mo
  Mo3      1.0000 0.48726  0.44497  0.15197  Biso   1.000  Mo
  Mo4      1.0000 0.51274  0.55503  0.84803  Biso   1.000  Mo
  Mo5      1.0000 0.73892  0.75362  0.96688  Biso   1.000  Mo
  Mo6      1.0000 0.26108  0.24638  0.03312  Biso   1.000  Mo
  N1       1.0000 0.17010  0.59210  0.47620  Biso   1.000  N
  N2       1.0000 0.82990  0.40790  0.52380  Biso   1.000  N
  N3       1.0000 0.98780  0.82170  0.38640  Biso   1.000  N
  N4       1.0000 0.01220  0.17830  0.61360  Biso   1.000  N
  O1       1.0000 0.71350  0.86120  0.07836  Biso   1.000  O
  O2       1.0000 0.28650  0.13880  0.92164  Biso   1.000  O
  O3       1.0000 0.43370  0.86440  0.01372  Biso   1.000  O
  O4       1.0000 0.56630  0.13560  0.98628  Biso   1.000  O
  O5       1.0000 0.35280  0.60550  0.01742  Biso   1.000  O
  O6       1.0000 0.64720  0.39450  0.98258  Biso   1.000  O
  O7       1.0000 0.61730  0.32270  0.22540  Biso   1.000  O
  O8       1.0000 0.38270  0.67730  0.77460  Biso   1.000  O
  O9       1.0000 0.32930  0.52000  0.26088  Biso   1.000  O
  O10      1.0000 0.67070  0.48000  0.73912  Biso   1.000  O
  O11      1.0000 0.33670  0.32400  0.13549  Biso   1.000  O
  O12      1.0000 0.66330  0.67600  0.86451  Biso   1.000  O
  O13      1.0000 0.96060  0.70380  0.93100  Biso   1.000  O
  O14      1.0000 0.03940  0.29620  0.06900  Biso   1.000  O
  O15      1.0000 0.64520  0.59710  0.08798  Biso   1.000  O
  O16      1.0000 0.35480  0.40290  0.91202  Biso   1.000  O
  O17      1.0000 0.26940  0.06450  0.14782  Biso   1.000  O
  O18      1.0000 0.73060  0.93550  0.85218  Biso   1.000  O
  O19      1.0000 0.56710  0.04410  0.22530  Biso   1.000  O
  O20      1.0000 0.43290  0.95590  0.77470  Biso   1.000  O
  O21      1.0000 0.40490  0.80360  0.27050  Biso   1.000  O
  O22      1.0000 0.59510  0.19640  0.72950  Biso   1.000  O
  O23      1.0000 0.12750  0.76120  0.15989  Biso   1.000  O
  O24      1.0000 0.87250  0.23880  0.84011  Biso   1.000  O
  Se1      1.0000 0.24981  0.77788  0.02244  Biso   1.000  Se
  Se2      1.0000 0.75019  0.22212  0.97756  Biso   1.000  Se
