data_image0
_cell_length_a       20.0305
_cell_length_b       9.8326
_cell_length_c       11.9363
_cell_angle_alpha    90
_cell_angle_beta     101.136
_cell_angle_gamma    90

_symmetry_space_group_name_H-M    "P 1"
_symmetry_int_tables_number       1

loop_
  _symmetry_equiv_pos_as_xyz
  'x, y, z'

loop_
  _atom_site_label
  _atom_site_occupancy
  _atom_site_fract_x
  _atom_site_fract_y
  _atom_site_fract_z
  _atom_site_thermal_displace_type
  _atom_site_B_iso_or_equiv
  _atom_site_type_symbol
  Cu1      1.0000 0.25065  0.01919  0.38422  Biso   1.000  Cu
  Cu2      1.0000 0.75065  0.51919  0.38422  Biso   1.000  Cu
  Cu3      1.0000 0.74935  0.01919  0.11578  Biso   1.000  Cu
  Cu4      1.0000 0.24935  0.51919  0.11578  Biso   1.000  Cu
  Cu5      1.0000 0.74935  0.98081  0.61578  Biso   1.000  Cu
  Cu6      1.0000 0.24935  0.48081  0.61578  Biso   1.000  Cu
  Cu7      1.0000 0.25065  0.98081  0.88422  Biso   1.000  Cu
  Cu8      1.0000 0.75065  0.48081  0.88422  Biso   1.000  Cu
  S1       1.0000 0.17689  0.21341  0.22068  Biso   1.000  S
  S2       1.0000 0.67689  0.71341  0.22068  Biso   1.000  S
  S3       1.0000 0.82311  0.21341  0.27932  Biso   1.000  S
  S4       1.0000 0.32311  0.71341  0.27932  Biso   1.000  S
  S5       1.0000 0.82311  0.78659  0.77932  Biso   1.000  S
  S6       1.0000 0.32311  0.28659  0.77932  Biso   1.000  S
  S7       1.0000 0.17689  0.78659  0.72068  Biso   1.000  S
  S8       1.0000 0.67689  0.28659  0.72068  Biso   1.000  S
  O1       1.0000 0.28005  0.00972  0.55399  Biso   1.000  O
  O2       1.0000 0.78005  0.50972  0.55399  Biso   1.000  O
  O3       1.0000 0.71995  0.00972  0.94601  Biso   1.000  O
  O4       1.0000 0.21995  0.50972  0.94601  Biso   1.000  O
  O5       1.0000 0.71995  0.99028  0.44601  Biso   1.000  O
  O6       1.0000 0.21995  0.49028  0.44601  Biso   1.000  O
  O7       1.0000 0.28005  0.99028  0.05399  Biso   1.000  O
  O8       1.0000 0.78005  0.49028  0.05399  Biso   1.000  O
  O9       1.0000 0.18487  0.25400  0.34213  Biso   1.000  O
  O10      1.0000 0.68487  0.75400  0.34213  Biso   1.000  O
  O11      1.0000 0.81513  0.25400  0.15787  Biso   1.000  O
  O12      1.0000 0.31513  0.75400  0.15787  Biso   1.000  O
  O13      1.0000 0.81513  0.74600  0.65787  Biso   1.000  O
  O14      1.0000 0.31513  0.24600  0.65787  Biso   1.000  O
  O15      1.0000 0.18487  0.74600  0.84213  Biso   1.000  O
  O16      1.0000 0.68487  0.24600  0.84213  Biso   1.000  O
  O17      1.0000 0.21509  0.07968  0.22161  Biso   1.000  O
  O18      1.0000 0.71509  0.57968  0.22161  Biso   1.000  O
  O19      1.0000 0.78491  0.07968  0.27839  Biso   1.000  O
  O20      1.0000 0.28491  0.57968  0.27839  Biso   1.000  O
  O21      1.0000 0.78491  0.92032  0.77839  Biso   1.000  O
  O22      1.0000 0.28491  0.42032  0.77839  Biso   1.000  O
  O23      1.0000 0.21509  0.92032  0.72161  Biso   1.000  O
  O24      1.0000 0.71509  0.42032  0.72161  Biso   1.000  O
  N1       1.0000 0.16029  0.93250  0.39437  Biso   1.000  N
  N2       1.0000 0.66029  0.43250  0.39437  Biso   1.000  N
  N3       1.0000 0.83971  0.93250  0.10563  Biso   1.000  N
  N4       1.0000 0.33971  0.43250  0.10563  Biso   1.000  N
  N5       1.0000 0.83971  0.06750  0.60563  Biso   1.000  N
  N6       1.0000 0.33971  0.56750  0.60563  Biso   1.000  N
  N7       1.0000 0.16029  0.06750  0.89437  Biso   1.000  N
  N8       1.0000 0.66029  0.56750  0.89437  Biso   1.000  N
  C1       1.0000 0.09341  0.73180  0.40082  Biso   1.000  C
  C2       1.0000 0.59341  0.23180  0.40082  Biso   1.000  C
  C3       1.0000 0.90659  0.73180  0.09918  Biso   1.000  C
  C4       1.0000 0.40659  0.23180  0.09918  Biso   1.000  C
  C5       1.0000 0.90659  0.26820  0.59918  Biso   1.000  C
  C6       1.0000 0.40659  0.76820  0.59918  Biso   1.000  C
  C7       1.0000 0.09341  0.26820  0.90082  Biso   1.000  C
  C8       1.0000 0.59341  0.76820  0.90082  Biso   1.000  C
  H1       1.0000 0.09200  0.63750  0.40610  Biso   1.000  H
  H2       1.0000 0.59200  0.13750  0.40610  Biso   1.000  H
  H3       1.0000 0.90800  0.63750  0.09390  Biso   1.000  H
  H4       1.0000 0.40800  0.13750  0.09390  Biso   1.000  H
  H5       1.0000 0.90800  0.36250  0.59390  Biso   1.000  H
  H6       1.0000 0.40800  0.86250  0.59390  Biso   1.000  H
  H7       1.0000 0.09200  0.36250  0.90610  Biso   1.000  H
  H8       1.0000 0.59200  0.86250  0.90610  Biso   1.000  H
  O25      1.0000 0.20881  0.31312  0.15664  Biso   1.000  O
  O26      1.0000 0.70881  0.81312  0.15664  Biso   1.000  O
  O27      1.0000 0.79119  0.31312  0.34336  Biso   1.000  O
  O28      1.0000 0.29119  0.81312  0.34336  Biso   1.000  O
  O29      1.0000 0.79119  0.68688  0.84336  Biso   1.000  O
  O30      1.0000 0.29119  0.18688  0.84336  Biso   1.000  O
  O31      1.0000 0.20881  0.68688  0.65664  Biso   1.000  O
  O32      1.0000 0.70881  0.18688  0.65664  Biso   1.000  O
  C9       1.0000 0.96664  0.74040  0.38740  Biso   1.000  C
  C10      1.0000 0.46664  0.24040  0.38740  Biso   1.000  C
  C11      1.0000 0.03336  0.74040  0.11260  Biso   1.000  C
  C12      1.0000 0.53336  0.24040  0.11260  Biso   1.000  C
  C13      1.0000 0.03336  0.25960  0.61260  Biso   1.000  C
  C14      1.0000 0.53336  0.75960  0.61260  Biso   1.000  C
  C15      1.0000 0.96664  0.25960  0.88740  Biso   1.000  C
  C16      1.0000 0.46664  0.75960  0.88740  Biso   1.000  C
  C17      1.0000 0.04001  0.94820  0.38628  Biso   1.000  C
  C18      1.0000 0.54001  0.44820  0.38628  Biso   1.000  C
  C19      1.0000 0.95999  0.94820  0.11372  Biso   1.000  C
  C20      1.0000 0.45999  0.44820  0.11372  Biso   1.000  C
  C21      1.0000 0.95999  0.05180  0.61372  Biso   1.000  C
  C22      1.0000 0.45999  0.55180  0.61372  Biso   1.000  C
  C23      1.0000 0.04001  0.05180  0.88628  Biso   1.000  C
  C24      1.0000 0.54001  0.55180  0.88628  Biso   1.000  C
  H9       1.0000 0.00170  0.00310  0.38130  Biso   1.000  H
  H10      1.0000 0.50170  0.50310  0.38130  Biso   1.000  H
  H11      1.0000 0.99830  0.00310  0.11870  Biso   1.000  H
  H12      1.0000 0.49830  0.50310  0.11870  Biso   1.000  H
  H13      1.0000 0.99830  0.99690  0.61870  Biso   1.000  H
  H14      1.0000 0.49830  0.49690  0.61870  Biso   1.000  H
  H15      1.0000 0.00170  0.99690  0.88130  Biso   1.000  H
  H16      1.0000 0.50170  0.49690  0.88130  Biso   1.000  H
  N9       1.0000 0.84064  0.61190  0.38219  Biso   1.000  N
  N10      1.0000 0.34064  0.11190  0.38219  Biso   1.000  N
  N11      1.0000 0.15936  0.61190  0.11781  Biso   1.000  N
  N12      1.0000 0.65936  0.11190  0.11781  Biso   1.000  N
  N13      1.0000 0.15936  0.38810  0.61781  Biso   1.000  N
  N14      1.0000 0.65936  0.88810  0.61781  Biso   1.000  N
  N15      1.0000 0.84064  0.38810  0.88219  Biso   1.000  N
  N16      1.0000 0.34064  0.88810  0.88219  Biso   1.000  N
  C25      1.0000 0.03379  0.80700  0.39162  Biso   1.000  C
  C26      1.0000 0.53379  0.30700  0.39162  Biso   1.000  C
  C27      1.0000 0.96621  0.80700  0.10838  Biso   1.000  C
  C28      1.0000 0.46621  0.30700  0.10838  Biso   1.000  C
  C29      1.0000 0.96621  0.19300  0.60838  Biso   1.000  C
  C30      1.0000 0.46621  0.69300  0.60838  Biso   1.000  C
  C31      1.0000 0.03379  0.19300  0.89162  Biso   1.000  C
  C32      1.0000 0.53379  0.69300  0.89162  Biso   1.000  C
  C33      1.0000 0.89772  0.53940  0.38260  Biso   1.000  C
  C34      1.0000 0.39772  0.03940  0.38260  Biso   1.000  C
  C35      1.0000 0.10228  0.53940  0.11740  Biso   1.000  C
  C36      1.0000 0.60228  0.03940  0.11740  Biso   1.000  C
  C37      1.0000 0.10228  0.46060  0.61740  Biso   1.000  C
  C38      1.0000 0.60228  0.96060  0.61740  Biso   1.000  C
  C39      1.0000 0.89772  0.46060  0.88260  Biso   1.000  C
  C40      1.0000 0.39772  0.96060  0.88260  Biso   1.000  C
  H17      1.0000 0.89490  0.44500  0.38170  Biso   1.000  H
  H18      1.0000 0.39490  0.94500  0.38170  Biso   1.000  H
  H19      1.0000 0.10510  0.44500  0.11830  Biso   1.000  H
  H20      1.0000 0.60510  0.94500  0.11830  Biso   1.000  H
  H21      1.0000 0.10510  0.55500  0.61830  Biso   1.000  H
  H22      1.0000 0.60510  0.05500  0.61830  Biso   1.000  H
  H23      1.0000 0.89490  0.55500  0.88170  Biso   1.000  H
  H24      1.0000 0.39490  0.05500  0.88170  Biso   1.000  H
  O33      1.0000 0.10578  0.19124  0.16895  Biso   1.000  O
  O34      1.0000 0.60578  0.69124  0.16895  Biso   1.000  O
  O35      1.0000 0.89422  0.19124  0.33105  Biso   1.000  O
  O36      1.0000 0.39422  0.69124  0.33105  Biso   1.000  O
  O37      1.0000 0.89422  0.80876  0.83105  Biso   1.000  O
  O38      1.0000 0.39422  0.30876  0.83105  Biso   1.000  O
  O39      1.0000 0.10578  0.80876  0.66895  Biso   1.000  O
  O40      1.0000 0.60578  0.30876  0.66895  Biso   1.000  O
  C41      1.0000 0.84613  0.74820  0.38160  Biso   1.000  C
  C42      1.0000 0.34613  0.24820  0.38160  Biso   1.000  C
  C43      1.0000 0.15387  0.74820  0.11840  Biso   1.000  C
  C44      1.0000 0.65387  0.24820  0.11840  Biso   1.000  C
  C45      1.0000 0.15387  0.25180  0.61840  Biso   1.000  C
  C46      1.0000 0.65387  0.75180  0.61840  Biso   1.000  C
  C47      1.0000 0.84613  0.25180  0.88160  Biso   1.000  C
  C48      1.0000 0.34613  0.75180  0.88160  Biso   1.000  C
  H25      1.0000 0.80700  0.80000  0.37910  Biso   1.000  H
  H26      1.0000 0.30700  0.30000  0.37910  Biso   1.000  H
  H27      1.0000 0.19300  0.80000  0.12090  Biso   1.000  H
  H28      1.0000 0.69300  0.30000  0.12090  Biso   1.000  H
  H29      1.0000 0.19300  0.20000  0.62090  Biso   1.000  H
  H30      1.0000 0.69300  0.70000  0.62090  Biso   1.000  H
  H31      1.0000 0.80700  0.20000  0.87910  Biso   1.000  H
  H32      1.0000 0.30700  0.70000  0.87910  Biso   1.000  H
  C49      1.0000 0.10307  0.00650  0.38830  Biso   1.000  C
  C50      1.0000 0.60307  0.50650  0.38830  Biso   1.000  C
  C51      1.0000 0.89693  0.00650  0.11170  Biso   1.000  C
  C52      1.0000 0.39693  0.50650  0.11170  Biso   1.000  C
  C53      1.0000 0.89693  0.99350  0.61170  Biso   1.000  C
  C54      1.0000 0.39693  0.49350  0.61170  Biso   1.000  C
  C55      1.0000 0.10307  0.99350  0.88830  Biso   1.000  C
  C56      1.0000 0.60307  0.49350  0.88830  Biso   1.000  C
  H33      1.0000 0.10610  0.10080  0.38550  Biso   1.000  H
  H34      1.0000 0.60610  0.60080  0.38550  Biso   1.000  H
  H35      1.0000 0.89390  0.10080  0.11450  Biso   1.000  H
  H36      1.0000 0.39390  0.60080  0.11450  Biso   1.000  H
  H37      1.0000 0.89390  0.89920  0.61450  Biso   1.000  H
  H38      1.0000 0.39390  0.39920  0.61450  Biso   1.000  H
  H39      1.0000 0.10610  0.89920  0.88550  Biso   1.000  H
  H40      1.0000 0.60610  0.39920  0.88550  Biso   1.000  H
  C57      1.0000 0.90734  0.81520  0.38444  Biso   1.000  C
  C58      1.0000 0.40734  0.31520  0.38444  Biso   1.000  C
  C59      1.0000 0.09266  0.81520  0.11556  Biso   1.000  C
  C60      1.0000 0.59266  0.31520  0.11556  Biso   1.000  C
  C61      1.0000 0.09266  0.18480  0.61556  Biso   1.000  C
  C62      1.0000 0.59266  0.68480  0.61556  Biso   1.000  C
  C63      1.0000 0.90734  0.18480  0.88444  Biso   1.000  C
  C64      1.0000 0.40734  0.68480  0.88444  Biso   1.000  C
  H41      1.0000 0.90880  0.90970  0.38440  Biso   1.000  H
  H42      1.0000 0.40880  0.40970  0.38440  Biso   1.000  H
  H43      1.0000 0.09120  0.90970  0.11560  Biso   1.000  H
  H44      1.0000 0.59120  0.40970  0.11560  Biso   1.000  H
  H45      1.0000 0.09120  0.09030  0.61560  Biso   1.000  H
  H46      1.0000 0.59120  0.59030  0.61560  Biso   1.000  H
  H47      1.0000 0.90880  0.09030  0.88440  Biso   1.000  H
  H48      1.0000 0.40880  0.59030  0.88440  Biso   1.000  H
  C65      1.0000 0.96021  0.59910  0.38450  Biso   1.000  C
  C66      1.0000 0.46021  0.09910  0.38450  Biso   1.000  C
  C67      1.0000 0.03979  0.59910  0.11550  Biso   1.000  C
  C68      1.0000 0.53979  0.09910  0.11550  Biso   1.000  C
  C69      1.0000 0.03979  0.40090  0.61550  Biso   1.000  C
  C70      1.0000 0.53979  0.90090  0.61550  Biso   1.000  C
  C71      1.0000 0.96021  0.40090  0.88450  Biso   1.000  C
  C72      1.0000 0.46021  0.90090  0.88450  Biso   1.000  C
  H49      1.0000 0.99820  0.54500  0.38380  Biso   1.000  H
  H50      1.0000 0.49820  0.04500  0.38380  Biso   1.000  H
  H51      1.0000 0.00180  0.54500  0.11620  Biso   1.000  H
  H52      1.0000 0.50180  0.04500  0.11620  Biso   1.000  H
  H53      1.0000 0.00180  0.45500  0.61620  Biso   1.000  H
  H54      1.0000 0.50180  0.95500  0.61620  Biso   1.000  H
  H55      1.0000 0.99820  0.45500  0.88380  Biso   1.000  H
  H56      1.0000 0.49820  0.95500  0.88380  Biso   1.000  H
  C73      1.0000 0.15491  0.79670  0.40214  Biso   1.000  C
  C74      1.0000 0.65491  0.29670  0.40214  Biso   1.000  C
  C75      1.0000 0.84509  0.79670  0.09786  Biso   1.000  C
  C76      1.0000 0.34509  0.29670  0.09786  Biso   1.000  C
  C77      1.0000 0.84509  0.20330  0.59786  Biso   1.000  C
  C78      1.0000 0.34509  0.70330  0.59786  Biso   1.000  C
  C79      1.0000 0.15491  0.20330  0.90214  Biso   1.000  C
  C80      1.0000 0.65491  0.70330  0.90214  Biso   1.000  C
  H57      1.0000 0.19410  0.74430  0.40870  Biso   1.000  H
  H58      1.0000 0.69410  0.24430  0.40870  Biso   1.000  H
  H59      1.0000 0.80590  0.74430  0.09130  Biso   1.000  H
  H60      1.0000 0.30590  0.24430  0.09130  Biso   1.000  H
  H61      1.0000 0.80590  0.25570  0.59130  Biso   1.000  H
  H62      1.0000 0.30590  0.75570  0.59130  Biso   1.000  H
  H63      1.0000 0.19410  0.25570  0.90870  Biso   1.000  H
  H64      1.0000 0.69410  0.75570  0.90870  Biso   1.000  H
  O41      1.0000 0.00000  0.33340  0.25000  Biso   1.000  O
  O42      1.0000 0.50000  0.83340  0.25000  Biso   1.000  O
  O43      1.0000 0.00000  0.66660  0.75000  Biso   1.000  O
  O44      1.0000 0.50000  0.16660  0.75000  Biso   1.000  O
  H65      1.0000 0.25890  0.98400  0.59500  Biso   1.000  H
  H66      1.0000 0.75890  0.48400  0.59500  Biso   1.000  H
  H67      1.0000 0.74110  0.98400  0.90500  Biso   1.000  H
  H68      1.0000 0.24110  0.48400  0.90500  Biso   1.000  H
  H69      1.0000 0.74110  0.01600  0.40500  Biso   1.000  H
  H70      1.0000 0.24110  0.51600  0.40500  Biso   1.000  H
  H71      1.0000 0.25890  0.01600  0.09500  Biso   1.000  H
  H72      1.0000 0.75890  0.51600  0.09500  Biso   1.000  H
  H73      1.0000 0.29560  0.07700  0.58700  Biso   1.000  H
  H74      1.0000 0.79560  0.57700  0.58700  Biso   1.000  H
  H75      1.0000 0.70440  0.07700  0.91300  Biso   1.000  H
  H76      1.0000 0.20440  0.57700  0.91300  Biso   1.000  H
  H77      1.0000 0.70440  0.92300  0.41300  Biso   1.000  H
  H78      1.0000 0.20440  0.42300  0.41300  Biso   1.000  H
  H79      1.0000 0.29560  0.92300  0.08700  Biso   1.000  H
  H80      1.0000 0.79560  0.42300  0.08700  Biso   1.000  H
  H81      1.0000 0.01540  0.30700  0.31500  Biso   1.000  H
  H82      1.0000 0.51540  0.80700  0.31500  Biso   1.000  H
  H83      1.0000 0.98460  0.30700  0.18500  Biso   1.000  H
  H84      1.0000 0.48460  0.80700  0.18500  Biso   1.000  H
  H85      1.0000 0.98460  0.69300  0.68500  Biso   1.000  H
  H86      1.0000 0.48460  0.19300  0.68500  Biso   1.000  H
  H87      1.0000 0.01540  0.69300  0.81500  Biso   1.000  H
  H88      1.0000 0.51540  0.19300  0.81500  Biso   1.000  H
