data_image0
_cell_length_a       9.5095
_cell_length_b       16.7563
_cell_length_c       10.3604
_cell_angle_alpha    90
_cell_angle_beta     101.209
_cell_angle_gamma    90

_symmetry_space_group_name_H-M    "P 1"
_symmetry_int_tables_number       1

loop_
  _symmetry_equiv_pos_as_xyz
  'x, y, z'

loop_
  _atom_site_label
  _atom_site_occupancy
  _atom_site_fract_x
  _atom_site_fract_y
  _atom_site_fract_z
  _atom_site_thermal_displace_type
  _atom_site_B_iso_or_equiv
  _atom_site_type_symbol
  Cu1      1.0000 0.36419  0.95783  0.45713  Biso   1.000  Cu
  Cu2      1.0000 0.13581  0.45783  0.04287  Biso   1.000  Cu
  Cu3      1.0000 0.63581  0.04217  0.54287  Biso   1.000  Cu
  Cu4      1.0000 0.86419  0.54217  0.95713  Biso   1.000  Cu
  Cu5      1.0000 0.88491  0.90947  0.23545  Biso   1.000  Cu
  Cu6      1.0000 0.61509  0.40947  0.26455  Biso   1.000  Cu
  Cu7      1.0000 0.11509  0.09053  0.76455  Biso   1.000  Cu
  Cu8      1.0000 0.38491  0.59053  0.73545  Biso   1.000  Cu
  C1       1.0000 0.36100  0.13180  0.43320  Biso   1.000  C
  C2       1.0000 0.13900  0.63180  0.06680  Biso   1.000  C
  C3       1.0000 0.63900  0.86820  0.56680  Biso   1.000  C
  C4       1.0000 0.86100  0.36820  0.93320  Biso   1.000  C
  C5       1.0000 0.42120  0.20560  0.47160  Biso   1.000  C
  C6       1.0000 0.07880  0.70560  0.02840  Biso   1.000  C
  C7       1.0000 0.57880  0.79440  0.52840  Biso   1.000  C
  C8       1.0000 0.92120  0.29440  0.97160  Biso   1.000  C
  H1       1.0000 0.51620  0.20790  0.51560  Biso   1.000  H
  H2       1.0000 0.98380  0.70790  0.98440  Biso   1.000  H
  H3       1.0000 0.48380  0.79210  0.48440  Biso   1.000  H
  H4       1.0000 0.01620  0.29210  0.01560  Biso   1.000  H
  C9       1.0000 0.34540  0.27500  0.44700  Biso   1.000  C
  C10      1.0000 0.15460  0.77500  0.05300  Biso   1.000  C
  C11      1.0000 0.65460  0.72500  0.55300  Biso   1.000  C
  C12      1.0000 0.84540  0.22500  0.94700  Biso   1.000  C
  H5       1.0000 0.38920  0.32310  0.47590  Biso   1.000  H
  H6       1.0000 0.11080  0.82310  0.02410  Biso   1.000  H
  H7       1.0000 0.61080  0.67690  0.52410  Biso   1.000  H
  H8       1.0000 0.88920  0.17690  0.97590  Biso   1.000  H
  C13      1.0000 0.20470  0.27490  0.37980  Biso   1.000  C
  C14      1.0000 0.29530  0.77490  0.12020  Biso   1.000  C
  C15      1.0000 0.79530  0.72510  0.62020  Biso   1.000  C
  C16      1.0000 0.70470  0.22510  0.87980  Biso   1.000  C
  H9       1.0000 0.15410  0.32240  0.36060  Biso   1.000  H
  H10      1.0000 0.34590  0.82240  0.13940  Biso   1.000  H
  H11      1.0000 0.84590  0.67760  0.63940  Biso   1.000  H
  H12      1.0000 0.65410  0.17760  0.86060  Biso   1.000  H
  C17      1.0000 0.14250  0.20320  0.34250  Biso   1.000  C
  C18      1.0000 0.35750  0.70320  0.15750  Biso   1.000  C
  C19      1.0000 0.85750  0.79680  0.65750  Biso   1.000  C
  C20      1.0000 0.64250  0.29680  0.84250  Biso   1.000  C
  H13      1.0000 0.04790  0.20240  0.29730  Biso   1.000  H
  H14      1.0000 0.45210  0.70240  0.20270  Biso   1.000  H
  H15      1.0000 0.95210  0.79760  0.70270  Biso   1.000  H
  H16      1.0000 0.54790  0.29760  0.79730  Biso   1.000  H
  C21      1.0000 0.21500  0.13020  0.36920  Biso   1.000  C
  C22      1.0000 0.28500  0.63020  0.13080  Biso   1.000  C
  C23      1.0000 0.78500  0.86980  0.63080  Biso   1.000  C
  C24      1.0000 0.71500  0.36980  0.86920  Biso   1.000  C
  C25      1.0000 0.13280  0.05910  0.33380  Biso   1.000  C
  C26      1.0000 0.36720  0.55910  0.16620  Biso   1.000  C
  C27      1.0000 0.86720  0.94090  0.66620  Biso   1.000  C
  C28      1.0000 0.63280  0.44090  0.83380  Biso   1.000  C
  H17      1.0000 0.04120  0.06500  0.28340  Biso   1.000  H
  H18      1.0000 0.45880  0.56500  0.21660  Biso   1.000  H
  H19      1.0000 0.95880  0.93500  0.71660  Biso   1.000  H
  H20      1.0000 0.54120  0.43500  0.78340  Biso   1.000  H
  C29      1.0000 0.14590  0.85840  0.38450  Biso   1.000  C
  C30      1.0000 0.35410  0.35840  0.11550  Biso   1.000  C
  C31      1.0000 0.85410  0.14160  0.61550  Biso   1.000  C
  C32      1.0000 0.64590  0.64160  0.88450  Biso   1.000  C
  C33      1.0000 0.05550  0.78550  0.36070  Biso   1.000  C
  C34      1.0000 0.44450  0.28550  0.13930  Biso   1.000  C
  C35      1.0000 0.94450  0.21450  0.63930  Biso   1.000  C
  C36      1.0000 0.55550  0.71450  0.86070  Biso   1.000  C
  C37      1.0000 0.10510  0.71130  0.39950  Biso   1.000  C
  C38      1.0000 0.39490  0.21130  0.10050  Biso   1.000  C
  C39      1.0000 0.89490  0.28870  0.60050  Biso   1.000  C
  C40      1.0000 0.60510  0.78870  0.89950  Biso   1.000  C
  H21      1.0000 0.19900  0.70390  0.44390  Biso   1.000  H
  H22      1.0000 0.30100  0.20390  0.05610  Biso   1.000  H
  H23      1.0000 0.80100  0.29610  0.55610  Biso   1.000  H
  H24      1.0000 0.69900  0.79610  0.94390  Biso   1.000  H
  C41      1.0000 0.01260  0.64710  0.37140  Biso   1.000  C
  C42      1.0000 0.48740  0.14710  0.12860  Biso   1.000  C
  C43      1.0000 0.98740  0.35290  0.62860  Biso   1.000  C
  C44      1.0000 0.51260  0.85290  0.87140  Biso   1.000  C
  H25      1.0000 0.04340  0.59570  0.39630  Biso   1.000  H
  H26      1.0000 0.45660  0.09570  0.10370  Biso   1.000  H
  H27      1.0000 0.95660  0.40430  0.60370  Biso   1.000  H
  H28      1.0000 0.54340  0.90430  0.89630  Biso   1.000  H
  C45      1.0000 0.87490  0.66050  0.30630  Biso   1.000  C
  C46      1.0000 0.62510  0.16050  0.19370  Biso   1.000  C
  C47      1.0000 0.12510  0.33950  0.69370  Biso   1.000  C
  C48      1.0000 0.37490  0.83950  0.80630  Biso   1.000  C
  H29      1.0000 0.81070  0.61830  0.28670  Biso   1.000  H
  H30      1.0000 0.68930  0.11830  0.21330  Biso   1.000  H
  H31      1.0000 0.18930  0.38170  0.71330  Biso   1.000  H
  H32      1.0000 0.31070  0.88170  0.78670  Biso   1.000  H
  C49      1.0000 0.83280  0.73690  0.27030  Biso   1.000  C
  C50      1.0000 0.66720  0.23690  0.22970  Biso   1.000  C
  C51      1.0000 0.16720  0.26310  0.72970  Biso   1.000  C
  C52      1.0000 0.33280  0.76310  0.77030  Biso   1.000  C
  H33      1.0000 0.73900  0.74550  0.22660  Biso   1.000  H
  H34      1.0000 0.76100  0.24550  0.27340  Biso   1.000  H
  H35      1.0000 0.26100  0.25450  0.77340  Biso   1.000  H
  H36      1.0000 0.23900  0.75450  0.72660  Biso   1.000  H
  N1       1.0000 0.17550  0.98840  0.36610  Biso   1.000  N
  N2       1.0000 0.32450  0.48840  0.13390  Biso   1.000  N
  N3       1.0000 0.82450  0.01160  0.63390  Biso   1.000  N
  N4       1.0000 0.67550  0.51160  0.86610  Biso   1.000  N
  N5       1.0000 0.08250  0.92406  0.33440  Biso   1.000  N
  N6       1.0000 0.41750  0.42406  0.16560  Biso   1.000  N
  N7       1.0000 0.91750  0.07594  0.66560  Biso   1.000  N
  N8       1.0000 0.58250  0.57594  0.83440  Biso   1.000  N
  N9       1.0000 0.92010  0.79920  0.29520  Biso   1.000  N
  N10      1.0000 0.57990  0.29920  0.20480  Biso   1.000  N
  N11      1.0000 0.07990  0.20080  0.70480  Biso   1.000  N
  N12      1.0000 0.42010  0.70080  0.79520  Biso   1.000  N
  N13      1.0000 0.37970  0.06110  0.73980  Biso   1.000  N
  N14      1.0000 0.12030  0.56110  0.76020  Biso   1.000  N
  N15      1.0000 0.62030  0.93890  0.26020  Biso   1.000  N
  N16      1.0000 0.87970  0.43890  0.23980  Biso   1.000  N
  O1       1.0000 0.32610  0.11011  0.81170  Biso   1.000  O
  O2       1.0000 0.17390  0.61011  0.68830  Biso   1.000  O
  O3       1.0000 0.67390  0.88989  0.18830  Biso   1.000  O
  O4       1.0000 0.82610  0.38989  0.31170  Biso   1.000  O
  O5       1.0000 0.51010  0.05730  0.75100  Biso   1.000  O
  O6       1.0000 0.98990  0.55730  0.74900  Biso   1.000  O
  O7       1.0000 0.48990  0.94270  0.24900  Biso   1.000  O
  O8       1.0000 0.01010  0.44270  0.25100  Biso   1.000  O
  O9       1.0000 0.29500  0.01911  0.66090  Biso   1.000  O
  O10      1.0000 0.20500  0.51911  0.83910  Biso   1.000  O
  O11      1.0000 0.70500  0.98089  0.33910  Biso   1.000  O
  O12      1.0000 0.79500  0.48089  0.16090  Biso   1.000  O
  N17      1.0000 0.84250  0.98260  0.01200  Biso   1.000  N
  N18      1.0000 0.65750  0.48260  0.48800  Biso   1.000  N
  N19      1.0000 0.15750  0.01740  0.98800  Biso   1.000  N
  N20      1.0000 0.34250  0.51740  0.51200  Biso   1.000  N
  O13      1.0000 0.85760  0.00815  0.13200  Biso   1.000  O
  O14      1.0000 0.64240  0.50815  0.36800  Biso   1.000  O
  O15      1.0000 0.14240  0.99185  0.86800  Biso   1.000  O
  O16      1.0000 0.35760  0.49185  0.63200  Biso   1.000  O
  O17      1.0000 0.86590  0.91130  0.99730  Biso   1.000  O
  O18      1.0000 0.63410  0.41130  0.50270  Biso   1.000  O
  O19      1.0000 0.13410  0.08870  0.00270  Biso   1.000  O
  O20      1.0000 0.36590  0.58870  0.49730  Biso   1.000  O
  O21      1.0000 0.80530  0.02900  0.92220  Biso   1.000  O
  O22      1.0000 0.69470  0.52900  0.57780  Biso   1.000  O
  O23      1.0000 0.19470  0.97100  0.07780  Biso   1.000  O
  O24      1.0000 0.30530  0.47100  0.42220  Biso   1.000  O
  O25      1.0000 0.43880  0.06458  0.45510  Biso   1.000  O
  O26      1.0000 0.06120  0.56458  0.04490  Biso   1.000  O
  O27      1.0000 0.56120  0.93542  0.54490  Biso   1.000  O
  O28      1.0000 0.93880  0.43542  0.95510  Biso   1.000  O
  O29      1.0000 0.27270  0.85393  0.45140  Biso   1.000  O
  O30      1.0000 0.22730  0.35393  0.04860  Biso   1.000  O
  O31      1.0000 0.72730  0.14607  0.54860  Biso   1.000  O
  O32      1.0000 0.77270  0.64607  0.95140  Biso   1.000  O
