data_image0
_cell_length_a       10.3823
_cell_length_b       12.2166
_cell_length_c       13.2189
_cell_angle_alpha    65.324
_cell_angle_beta     86.737
_cell_angle_gamma    76.276

_symmetry_space_group_name_H-M    "P 1"
_symmetry_int_tables_number       1

loop_
  _symmetry_equiv_pos_as_xyz
  'x, y, z'

loop_
  _atom_site_label
  _atom_site_occupancy
  _atom_site_fract_x
  _atom_site_fract_y
  _atom_site_fract_z
  _atom_site_thermal_displace_type
  _atom_site_B_iso_or_equiv
  _atom_site_type_symbol
  Cu1      1.0000 0.28017  0.86770  0.75689  Biso   1.000  Cu
  Cu2      1.0000 0.71983  0.13230  0.24311  Biso   1.000  Cu
  Cu3      1.0000 0.73452  0.77302  0.67730  Biso   1.000  Cu
  Cu4      1.0000 0.26548  0.22698  0.32270  Biso   1.000  Cu
  Cu5      1.0000 0.05007  0.83325  0.88345  Biso   1.000  Cu
  Cu6      1.0000 0.94993  0.16675  0.11655  Biso   1.000  Cu
  Cu7      1.0000 0.33702  0.05010  0.93873  Biso   1.000  Cu
  Cu8      1.0000 0.66298  0.94990  0.06127  Biso   1.000  Cu
  Cl1      1.0000 0.94570  0.73020  0.72530  Biso   1.000  Cl
  Cl2      1.0000 0.05430  0.26980  0.27470  Biso   1.000  Cl
  Cl3      1.0000 0.72720  0.61177  0.64340  Biso   1.000  Cl
  Cl4      1.0000 0.27280  0.38823  0.35660  Biso   1.000  Cl
  Cl5      1.0000 0.54308  0.01059  0.87364  Biso   1.000  Cl
  Cl6      1.0000 0.45692  0.98941  0.12636  Biso   1.000  Cl
  Cl7      1.0000 0.29830  0.86397  0.96092  Biso   1.000  Cl
  Cl8      1.0000 0.70170  0.13603  0.03908  Biso   1.000  Cl
  O1       1.0000 0.20030  0.73160  0.84400  Biso   1.000  O
  O2       1.0000 0.79970  0.26840  0.15600  Biso   1.000  O
  O3       1.0000 0.37140  0.99360  0.66400  Biso   1.000  O
  O4       1.0000 0.62860  0.00640  0.33600  Biso   1.000  O
  O5       1.0000 0.09630  0.96050  0.74850  Biso   1.000  O
  O6       1.0000 0.90370  0.03950  0.25150  Biso   1.000  O
  O7       1.0000 0.00000  0.72020  0.02670  Biso   1.000  O
  O8       1.0000 0.00000  0.27980  0.97330  Biso   1.000  O
  N1       1.0000 0.44840  0.75940  0.75870  Biso   1.000  N
  N2       1.0000 0.55160  0.24060  0.24130  Biso   1.000  N
  N3       1.0000 0.54420  0.82470  0.70350  Biso   1.000  N
  N4       1.0000 0.45580  0.17530  0.29650  Biso   1.000  N
  N5       1.0000 0.71100  0.95830  0.60760  Biso   1.000  N
  N6       1.0000 0.28900  0.04170  0.39240  Biso   1.000  N
  N7       1.0000 0.90000  0.94670  0.90430  Biso   1.000  N
  N8       1.0000 0.10000  0.05330  0.09570  Biso   1.000  N
  N9       1.0000 0.83340  0.89020  0.00100  Biso   1.000  N
  N10      1.0000 0.16660  0.10980  0.99900  Biso   1.000  N
  N11      1.0000 0.71770  0.77240  0.17660  Biso   1.000  N
  N12      1.0000 0.28230  0.22760  0.82340  Biso   1.000  N
  C1       1.0000 0.26020  0.61020  0.89110  Biso   1.000  C
  C2       1.0000 0.73980  0.38980  0.10890  Biso   1.000  C
  C3       1.0000 0.19040  0.52660  0.96440  Biso   1.000  C
  C4       1.0000 0.80960  0.47340  0.03560  Biso   1.000  C
  H1       1.0000 0.10400  0.55510  0.98080  Biso   1.000  H
  H2       1.0000 0.89600  0.44490  0.01920  Biso   1.000  H
  C5       1.0000 0.24930  0.40290  0.01180  Biso   1.000  C
  C6       1.0000 0.75070  0.59710  0.98820  Biso   1.000  C
  H3       1.0000 0.20260  0.34860  0.06210  Biso   1.000  H
  H4       1.0000 0.79740  0.65140  0.93790  Biso   1.000  H
  C7       1.0000 0.37590  0.35550  0.98760  Biso   1.000  C
  C8       1.0000 0.62410  0.64450  0.01240  Biso   1.000  C
  H5       1.0000 0.41270  0.27050  0.01840  Biso   1.000  H
  H6       1.0000 0.58730  0.72950  0.98160  Biso   1.000  H
  C9       1.0000 0.44550  0.43640  0.91750  Biso   1.000  C
  C10      1.0000 0.55450  0.56360  0.08250  Biso   1.000  C
  H7       1.0000 0.53100  0.40570  0.90100  Biso   1.000  H
  H8       1.0000 0.46900  0.59430  0.09900  Biso   1.000  H
  C11      1.0000 0.39130  0.56510  0.86930  Biso   1.000  C
  C12      1.0000 0.60870  0.43490  0.13070  Biso   1.000  C
  C13      1.0000 0.47990  0.64220  0.80570  Biso   1.000  C
  C14      1.0000 0.52010  0.35780  0.19430  Biso   1.000  C
  H9       1.0000 0.56610  0.60260  0.79900  Biso   1.000  H
  H10      1.0000 0.43390  0.39740  0.20100  Biso   1.000  H
  C15      1.0000 0.49280  0.94410  0.65980  Biso   1.000  C
  C16      1.0000 0.50720  0.05590  0.34020  Biso   1.000  C
  C17      1.0000 0.58650  0.02250  0.60260  Biso   1.000  C
  C18      1.0000 0.41350  0.97750  0.39740  Biso   1.000  C
  C19      1.0000 0.54750  0.14810  0.54600  Biso   1.000  C
  C20      1.0000 0.45250  0.85190  0.45400  Biso   1.000  C
  H11      1.0000 0.45920  0.18960  0.54250  Biso   1.000  H
  H12      1.0000 0.54080  0.81040  0.45750  Biso   1.000  H
  C21      1.0000 0.64400  0.21200  0.49370  Biso   1.000  C
  C22      1.0000 0.35600  0.78800  0.50630  Biso   1.000  C
  H13      1.0000 0.62160  0.29790  0.45550  Biso   1.000  H
  H14      1.0000 0.37840  0.70210  0.54450  Biso   1.000  H
  C23      1.0000 0.77110  0.14740  0.49910  Biso   1.000  C
  C24      1.0000 0.22890  0.85260  0.50090  Biso   1.000  C
  H15      1.0000 0.83640  0.18840  0.46290  Biso   1.000  H
  H16      1.0000 0.16360  0.81160  0.53710  Biso   1.000  H
  C25      1.0000 0.80260  0.02140  0.55830  Biso   1.000  C
  C26      1.0000 0.19740  0.97860  0.44170  Biso   1.000  C
  H17      1.0000 0.89070  0.97830  0.56440  Biso   1.000  H
  H18      1.0000 0.10930  0.02170  0.43560  Biso   1.000  H
  C27      1.0000 0.03880  0.08110  0.70570  Biso   1.000  C
  C28      1.0000 0.96120  0.91890  0.29430  Biso   1.000  C
  C29      1.0000 0.09190  0.16280  0.61340  Biso   1.000  C
  C30      1.0000 0.90810  0.83720  0.38660  Biso   1.000  C
  H19      1.0000 0.16760  0.13220  0.58330  Biso   1.000  H
  H20      1.0000 0.83240  0.86780  0.41670  Biso   1.000  H
  C31      1.0000 0.03410  0.28730  0.56650  Biso   1.000  C
  C32      1.0000 0.96590  0.71270  0.43350  Biso   1.000  C
  H21      1.0000 0.07190  0.33890  0.50510  Biso   1.000  H
  H22      1.0000 0.92810  0.66110  0.49490  Biso   1.000  H
  C33      1.0000 0.92250  0.33860  0.60680  Biso   1.000  C
  C34      1.0000 0.07750  0.66140  0.39320  Biso   1.000  C
  H23      1.0000 0.88500  0.42330  0.57390  Biso   1.000  H
  H24      1.0000 0.11500  0.57670  0.42610  Biso   1.000  H
  C35      1.0000 0.86770  0.26050  0.69770  Biso   1.000  C
  C36      1.0000 0.13230  0.73950  0.30230  Biso   1.000  C
  H25      1.0000 0.79140  0.29310  0.72590  Biso   1.000  H
  H26      1.0000 0.20860  0.70690  0.27410  Biso   1.000  H
  C37      1.0000 0.92490  0.13220  0.74880  Biso   1.000  C
  C38      1.0000 0.07510  0.86780  0.25120  Biso   1.000  C
  C39      1.0000 0.85920  0.06110  0.84460  Biso   1.000  C
  C40      1.0000 0.14080  0.93890  0.15540  Biso   1.000  C
  H27      1.0000 0.78130  0.10260  0.86370  Biso   1.000  H
  H28      1.0000 0.21870  0.89740  0.13630  Biso   1.000  H
  C41      1.0000 0.89640  0.77470  0.05630  Biso   1.000  C
  C42      1.0000 0.10360  0.22530  0.94370  Biso   1.000  C
  C43      1.0000 0.83280  0.70650  0.15870  Biso   1.000  C
  C44      1.0000 0.16720  0.29350  0.84130  Biso   1.000  C
  C45      1.0000 0.88520  0.58560  0.22610  Biso   1.000  C
  C46      1.0000 0.11480  0.41440  0.77390  Biso   1.000  C
  H29      1.0000 0.96530  0.54300  0.21090  Biso   1.000  H
  H30      1.0000 0.03470  0.45700  0.78910  Biso   1.000  H
  C47      1.0000 0.81580  0.52700  0.31860  Biso   1.000  C
  C48      1.0000 0.18420  0.47300  0.68140  Biso   1.000  C
  H31      1.0000 0.84830  0.44430  0.36650  Biso   1.000  H
  H32      1.0000 0.15170  0.55570  0.63350  Biso   1.000  H
  C49      1.0000 0.70020  0.59330  0.33700  Biso   1.000  C
  C50      1.0000 0.29980  0.40670  0.66300  Biso   1.000  C
  H33      1.0000 0.65240  0.55580  0.39830  Biso   1.000  H
  H34      1.0000 0.34760  0.44420  0.60170  Biso   1.000  H
  C51      1.0000 0.65310  0.71410  0.26680  Biso   1.000  C
  C52      1.0000 0.34690  0.28590  0.73320  Biso   1.000  C
  H35      1.0000 0.57370  0.75790  0.28160  Biso   1.000  H
  H36      1.0000 0.42630  0.24210  0.71840  Biso   1.000  H
