data_image0
_cell_length_a       7.5469
_cell_length_b       9.8929
_cell_length_c       12.5714
_cell_angle_alpha    90
_cell_angle_beta     90
_cell_angle_gamma    90

_symmetry_space_group_name_H-M    "P 1"
_symmetry_int_tables_number       1

loop_
  _symmetry_equiv_pos_as_xyz
  'x, y, z'

loop_
  _atom_site_label
  _atom_site_occupancy
  _atom_site_fract_x
  _atom_site_fract_y
  _atom_site_fract_z
  _atom_site_thermal_displace_type
  _atom_site_B_iso_or_equiv
  _atom_site_type_symbol
  Cu1      1.0000 0.07006  0.69018  0.68049  Biso   1.000  Cu
  Cu2      1.0000 0.42994  0.30982  0.18049  Biso   1.000  Cu
  Cu3      1.0000 0.92994  0.19018  0.81951  Biso   1.000  Cu
  Cu4      1.0000 0.57006  0.80982  0.31951  Biso   1.000  Cu
  O1       1.0000 0.89350  0.76350  0.78010  Biso   1.000  O
  O2       1.0000 0.60650  0.23650  0.28010  Biso   1.000  O
  O3       1.0000 0.10650  0.26350  0.71990  Biso   1.000  O
  O4       1.0000 0.39350  0.73650  0.21990  Biso   1.000  O
  O5       1.0000 0.99330  0.97220  0.75570  Biso   1.000  O
  O6       1.0000 0.50670  0.02780  0.25570  Biso   1.000  O
  O7       1.0000 0.00670  0.47220  0.74430  Biso   1.000  O
  O8       1.0000 0.49330  0.52780  0.24430  Biso   1.000  O
  N1       1.0000 0.74060  0.07090  0.89690  Biso   1.000  N
  N2       1.0000 0.75940  0.92910  0.39690  Biso   1.000  N
  N3       1.0000 0.25940  0.57090  0.60310  Biso   1.000  N
  N4       1.0000 0.24060  0.42910  0.10310  Biso   1.000  N
  C1       1.0000 0.90410  0.88750  0.80430  Biso   1.000  C
  C2       1.0000 0.59590  0.11250  0.30430  Biso   1.000  C
  C3       1.0000 0.09590  0.38750  0.69570  Biso   1.000  C
  C4       1.0000 0.40410  0.61250  0.19570  Biso   1.000  C
  O9       1.0000 0.75600  0.20230  0.70500  Biso   1.000  O
  O10      1.0000 0.74400  0.79770  0.20500  Biso   1.000  O
  O11      1.0000 0.24400  0.70230  0.79500  Biso   1.000  O
  O12      1.0000 0.25600  0.29770  0.29500  Biso   1.000  O
  C5       1.0000 0.69160  0.28230  0.99780  Biso   1.000  C
  C6       1.0000 0.80840  0.71770  0.49780  Biso   1.000  C
  C7       1.0000 0.30840  0.78230  0.50220  Biso   1.000  C
  C8       1.0000 0.19160  0.21770  0.00220  Biso   1.000  C
  O13      1.0000 0.77370  0.33910  0.92430  Biso   1.000  O
  O14      1.0000 0.72630  0.66090  0.42430  Biso   1.000  O
  O15      1.0000 0.22630  0.83910  0.57570  Biso   1.000  O
  O16      1.0000 0.27370  0.16090  0.07570  Biso   1.000  O
  O17      1.0000 0.60810  0.34550  0.06860  Biso   1.000  O
  O18      1.0000 0.89190  0.65450  0.56860  Biso   1.000  O
  O19      1.0000 0.39190  0.84550  0.43140  Biso   1.000  O
  O20      1.0000 0.10810  0.15450  0.93140  Biso   1.000  O
  O21      1.0000 0.49850  0.12010  0.65150  Biso   1.000  O
  O22      1.0000 0.00150  0.87990  0.15150  Biso   1.000  O
  O23      1.0000 0.50150  0.62010  0.84850  Biso   1.000  O
  O24      1.0000 0.99850  0.37990  0.34850  Biso   1.000  O
  C9       1.0000 0.61240  0.13640  0.71920  Biso   1.000  C
  C10      1.0000 0.88760  0.86360  0.21920  Biso   1.000  C
  C11      1.0000 0.38760  0.63640  0.78080  Biso   1.000  C
  C12      1.0000 0.11240  0.36360  0.28080  Biso   1.000  C
  O25      1.0000 0.79060  0.60980  0.04150  Biso   1.000  O
  O26      1.0000 0.70940  0.39020  0.54150  Biso   1.000  O
  O27      1.0000 0.20940  0.10980  0.45850  Biso   1.000  O
  O28      1.0000 0.29060  0.89020  0.95850  Biso   1.000  O
  C13      1.0000 0.80380  0.92950  0.90390  Biso   1.000  C
  C14      1.0000 0.69620  0.07050  0.40390  Biso   1.000  C
  C15      1.0000 0.19620  0.42950  0.59610  Biso   1.000  C
  C16      1.0000 0.30380  0.57050  0.09610  Biso   1.000  C
  H1       1.0000 0.70320  0.86980  0.91400  Biso   1.000  H
  H2       1.0000 0.79680  0.13020  0.41400  Biso   1.000  H
  H3       1.0000 0.29680  0.36980  0.58600  Biso   1.000  H
  H4       1.0000 0.20320  0.63020  0.08600  Biso   1.000  H
  H5       1.0000 0.88090  0.92020  0.96530  Biso   1.000  H
  H6       1.0000 0.61910  0.07980  0.46530  Biso   1.000  H
  H7       1.0000 0.11910  0.42020  0.53470  Biso   1.000  H
  H8       1.0000 0.38090  0.57980  0.03470  Biso   1.000  H
  C17      1.0000 0.70510  0.12800  0.00460  Biso   1.000  C
  C18      1.0000 0.79490  0.87200  0.50460  Biso   1.000  C
  C19      1.0000 0.29490  0.62800  0.49540  Biso   1.000  C
  C20      1.0000 0.20510  0.37200  0.99540  Biso   1.000  C
  H9       1.0000 0.80020  0.10310  0.05270  Biso   1.000  H
  H10      1.0000 0.69980  0.89690  0.55270  Biso   1.000  H
  H11      1.0000 0.19980  0.60310  0.44730  Biso   1.000  H
  H12      1.0000 0.30020  0.39690  0.94730  Biso   1.000  H
  H13      1.0000 0.59530  0.09120  0.03230  Biso   1.000  H
  H14      1.0000 0.90470  0.90880  0.53230  Biso   1.000  H
  H15      1.0000 0.40470  0.59120  0.46770  Biso   1.000  H
  H16      1.0000 0.09530  0.40880  0.96770  Biso   1.000  H
  C21      1.0000 0.58348  0.08109  0.82966  Biso   1.000  C
  C22      1.0000 0.91652  0.91891  0.32966  Biso   1.000  C
  C23      1.0000 0.41652  0.58109  0.67034  Biso   1.000  C
  C24      1.0000 0.08348  0.41891  0.17034  Biso   1.000  C
  H17      1.0000 0.49770  0.13810  0.86550  Biso   1.000  H
  H18      1.0000 0.00230  0.86190  0.36550  Biso   1.000  H
  H19      1.0000 0.50230  0.63810  0.63450  Biso   1.000  H
  H20      1.0000 0.99770  0.36190  0.13450  Biso   1.000  H
  H21      1.0000 0.53160  0.99180  0.82330  Biso   1.000  H
  H22      1.0000 0.96840  0.00820  0.32330  Biso   1.000  H
  H23      1.0000 0.46840  0.49180  0.67670  Biso   1.000  H
  H24      1.0000 0.03160  0.50820  0.17670  Biso   1.000  H
  Na1      1.0000 0.79306  0.56230  0.86281  Biso   1.000  Na
  Na2      1.0000 0.70694  0.43770  0.36281  Biso   1.000  Na
  Na3      1.0000 0.20694  0.06230  0.63719  Biso   1.000  Na
  Na4      1.0000 0.29306  0.93770  0.13719  Biso   1.000  Na
