data_image0
_cell_length_a       9.899
_cell_length_b       12.565
_cell_length_c       7.548
_cell_angle_alpha    90
_cell_angle_beta     90
_cell_angle_gamma    90

_symmetry_space_group_name_H-M    "P 1"
_symmetry_int_tables_number       1

loop_
  _symmetry_equiv_pos_as_xyz
  'x, y, z'

loop_
  _atom_site_label
  _atom_site_occupancy
  _atom_site_fract_x
  _atom_site_fract_y
  _atom_site_fract_z
  _atom_site_thermal_displace_type
  _atom_site_B_iso_or_equiv
  _atom_site_type_symbol
  Cu1      1.0000 0.30980  0.18060  0.07040  Biso   1.000  Cu
  Cu2      1.0000 0.80980  0.31940  0.92960  Biso   1.000  Cu
  Cu3      1.0000 0.69020  0.68060  0.42960  Biso   1.000  Cu
  Cu4      1.0000 0.19020  0.81940  0.57040  Biso   1.000  Cu
  C1       1.0000 0.57040  0.09600  0.19810  Biso   1.000  C
  C2       1.0000 0.07040  0.40400  0.80190  Biso   1.000  C
  C3       1.0000 0.42960  0.59600  0.30190  Biso   1.000  C
  C4       1.0000 0.92960  0.90400  0.69810  Biso   1.000  C
  C5       1.0000 0.61190  0.19570  0.09750  Biso   1.000  C
  C6       1.0000 0.11190  0.30430  0.90250  Biso   1.000  C
  C7       1.0000 0.38810  0.69570  0.40250  Biso   1.000  C
  C8       1.0000 0.88810  0.80430  0.59750  Biso   1.000  C
  C9       1.0000 0.37140  0.99530  0.29570  Biso   1.000  C
  C10      1.0000 0.87140  0.50470  0.70430  Biso   1.000  C
  C11      1.0000 0.62860  0.49530  0.20430  Biso   1.000  C
  C12      1.0000 0.12860  0.00470  0.79570  Biso   1.000  C
  C13      1.0000 0.21670  0.00190  0.30930  Biso   1.000  C
  C14      1.0000 0.71670  0.49810  0.69070  Biso   1.000  C
  C15      1.0000 0.78330  0.50190  0.19070  Biso   1.000  C
  C16      1.0000 0.28330  0.99810  0.80930  Biso   1.000  C
  C17      1.0000 0.42030  0.17010  0.42100  Biso   1.000  C
  C18      1.0000 0.92030  0.32990  0.57900  Biso   1.000  C
  C19      1.0000 0.57970  0.67010  0.07900  Biso   1.000  C
  C20      1.0000 0.07970  0.82990  0.92100  Biso   1.000  C
  C21      1.0000 0.36280  0.28080  0.38590  Biso   1.000  C
  C22      1.0000 0.86280  0.21920  0.61410  Biso   1.000  C
  C23      1.0000 0.63720  0.78080  0.11410  Biso   1.000  C
  C24      1.0000 0.13720  0.71920  0.88590  Biso   1.000  C
  H1       1.0000 0.57200  0.05000  0.09600  Biso   1.000  H
  H2       1.0000 0.07200  0.45000  0.90400  Biso   1.000  H
  H3       1.0000 0.42800  0.55000  0.40400  Biso   1.000  H
  H4       1.0000 0.92800  0.95000  0.59600  Biso   1.000  H
  H5       1.0000 0.64000  0.09200  0.32200  Biso   1.000  H
  H6       1.0000 0.14000  0.40800  0.67800  Biso   1.000  H
  H7       1.0000 0.36000  0.59200  0.17800  Biso   1.000  H
  H8       1.0000 0.86000  0.90800  0.82200  Biso   1.000  H
  H9       1.0000 0.40000  0.94500  0.19600  Biso   1.000  H
  H10      1.0000 0.90000  0.55500  0.80400  Biso   1.000  H
  H11      1.0000 0.60000  0.44500  0.30400  Biso   1.000  H
  H12      1.0000 0.10000  0.05500  0.69600  Biso   1.000  H
  H13      1.0000 0.40000  0.96100  0.41700  Biso   1.000  H
  H14      1.0000 0.90000  0.53900  0.58300  Biso   1.000  H
  H15      1.0000 0.60000  0.46100  0.08300  Biso   1.000  H
  H16      1.0000 0.10000  0.03900  0.91700  Biso   1.000  H
  H17      1.0000 0.52000  0.17600  0.46500  Biso   1.000  H
  H18      1.0000 0.02000  0.32400  0.53500  Biso   1.000  H
  H19      1.0000 0.48000  0.67600  0.03500  Biso   1.000  H
  H20      1.0000 0.98000  0.82400  0.96500  Biso   1.000  H
  H21      1.0000 0.34000  0.14500  0.49600  Biso   1.000  H
  H22      1.0000 0.84000  0.35500  0.50400  Biso   1.000  H
  H23      1.0000 0.66000  0.64500  0.00400  Biso   1.000  H
  H24      1.0000 0.16000  0.85500  0.99600  Biso   1.000  H
  N1       1.0000 0.42710  0.10230  0.25930  Biso   1.000  N
  N2       1.0000 0.92710  0.39770  0.74070  Biso   1.000  N
  N3       1.0000 0.57290  0.60230  0.24070  Biso   1.000  N
  N4       1.0000 0.07290  0.89770  0.75930  Biso   1.000  N
  O1       1.0000 0.52750  0.24490  0.00720  Biso   1.000  O
  O2       1.0000 0.02750  0.25510  0.99280  Biso   1.000  O
  O3       1.0000 0.47250  0.74490  0.49280  Biso   1.000  O
  O4       1.0000 0.97250  0.75510  0.50720  Biso   1.000  O
  O5       1.0000 0.73710  0.22090  0.10670  Biso   1.000  O
  O6       1.0000 0.23710  0.27910  0.89330  Biso   1.000  O
  O7       1.0000 0.26290  0.72090  0.39330  Biso   1.000  O
  O8       1.0000 0.76290  0.77910  0.60670  Biso   1.000  O
  O9       1.0000 0.16110  0.07690  0.22790  Biso   1.000  O
  O10      1.0000 0.66110  0.42310  0.77210  Biso   1.000  O
  O11      1.0000 0.83890  0.57690  0.27210  Biso   1.000  O
  O12      1.0000 0.33890  0.92310  0.72790  Biso   1.000  O
  O13      1.0000 0.15440  0.93190  0.39100  Biso   1.000  O
  O14      1.0000 0.65440  0.56810  0.60900  Biso   1.000  O
  O15      1.0000 0.84560  0.43190  0.10900  Biso   1.000  O
  O16      1.0000 0.34560  0.06810  0.89100  Biso   1.000  O
  O17      1.0000 0.29640  0.29480  0.24450  Biso   1.000  O
  O18      1.0000 0.79640  0.20520  0.75550  Biso   1.000  O
  O19      1.0000 0.70360  0.79480  0.25550  Biso   1.000  O
  O20      1.0000 0.20360  0.70520  0.74450  Biso   1.000  O
  O21      1.0000 0.37970  0.34900  0.50070  Biso   1.000  O
  O22      1.0000 0.87970  0.15100  0.49930  Biso   1.000  O
  O23      1.0000 0.62030  0.84900  0.99930  Biso   1.000  O
  O24      1.0000 0.12030  0.65100  0.00070  Biso   1.000  O
  H25      1.0000 0.83600  0.90500  0.25200  Biso   1.000  H
  H26      1.0000 0.33600  0.59500  0.74800  Biso   1.000  H
  H27      1.0000 0.16400  0.40500  0.24800  Biso   1.000  H
  H28      1.0000 0.66400  0.09500  0.75200  Biso   1.000  H
  H29      1.0000 0.87200  0.98400  0.08700  Biso   1.000  H
  H30      1.0000 0.37200  0.51600  0.91300  Biso   1.000  H
  H31      1.0000 0.12800  0.48400  0.41300  Biso   1.000  H
  H32      1.0000 0.62800  0.01600  0.58700  Biso   1.000  H
  O25      1.0000 0.89240  0.95870  0.21010  Biso   1.000  O
  O26      1.0000 0.39240  0.54130  0.78990  Biso   1.000  O
  O27      1.0000 0.10760  0.45870  0.28990  Biso   1.000  O
  O28      1.0000 0.60760  0.04130  0.71010  Biso   1.000  O
  Na1      1.0000 0.93770  0.13730  0.20760  Biso   1.000  Na
  Na2      1.0000 0.43770  0.36270  0.79240  Biso   1.000  Na
  Na3      1.0000 0.06230  0.63730  0.29240  Biso   1.000  Na
  Na4      1.0000 0.56230  0.86270  0.70760  Biso   1.000  Na
