data_image0
_cell_length_a       15.9879
_cell_length_b       22.1446
_cell_length_c       8.2793
_cell_angle_alpha    90
_cell_angle_beta     103.421
_cell_angle_gamma    90

_symmetry_space_group_name_H-M    "P 1"
_symmetry_int_tables_number       1

loop_
  _symmetry_equiv_pos_as_xyz
  'x, y, z'

loop_
  _atom_site_label
  _atom_site_occupancy
  _atom_site_fract_x
  _atom_site_fract_y
  _atom_site_fract_z
  _atom_site_thermal_displace_type
  _atom_site_B_iso_or_equiv
  _atom_site_type_symbol
  C1       1.0000 0.29140  0.37115  0.38930  Biso   1.000  C
  C2       1.0000 0.70860  0.37115  0.61070  Biso   1.000  C
  C3       1.0000 0.79140  0.87115  0.38930  Biso   1.000  C
  C4       1.0000 0.20860  0.87115  0.61070  Biso   1.000  C
  C5       1.0000 0.70860  0.62885  0.61070  Biso   1.000  C
  C6       1.0000 0.29140  0.62885  0.38930  Biso   1.000  C
  C7       1.0000 0.20860  0.12885  0.61070  Biso   1.000  C
  C8       1.0000 0.79140  0.12885  0.38930  Biso   1.000  C
  H1       1.0000 0.30870  0.34980  0.30590  Biso   1.000  H
  H2       1.0000 0.69130  0.34980  0.69410  Biso   1.000  H
  H3       1.0000 0.80870  0.84980  0.30590  Biso   1.000  H
  H4       1.0000 0.19130  0.84980  0.69410  Biso   1.000  H
  H5       1.0000 0.69130  0.65020  0.69410  Biso   1.000  H
  H6       1.0000 0.30870  0.65020  0.30590  Biso   1.000  H
  H7       1.0000 0.19130  0.15020  0.69410  Biso   1.000  H
  H8       1.0000 0.80870  0.15020  0.30590  Biso   1.000  H
  C9       1.0000 0.29581  0.43306  0.38710  Biso   1.000  C
  C10      1.0000 0.70419  0.43306  0.61290  Biso   1.000  C
  C11      1.0000 0.79581  0.93306  0.38710  Biso   1.000  C
  C12      1.0000 0.20419  0.93306  0.61290  Biso   1.000  C
  C13      1.0000 0.70419  0.56694  0.61290  Biso   1.000  C
  C14      1.0000 0.29581  0.56694  0.38710  Biso   1.000  C
  C15      1.0000 0.20419  0.06694  0.61290  Biso   1.000  C
  C16      1.0000 0.79581  0.06694  0.38710  Biso   1.000  C
  H9       1.0000 0.31340  0.45280  0.30120  Biso   1.000  H
  H10      1.0000 0.68660  0.45280  0.69880  Biso   1.000  H
  H11      1.0000 0.81340  0.95280  0.30120  Biso   1.000  H
  H12      1.0000 0.18660  0.95280  0.69880  Biso   1.000  H
  H13      1.0000 0.68660  0.54720  0.69880  Biso   1.000  H
  H14      1.0000 0.31340  0.54720  0.30120  Biso   1.000  H
  H15      1.0000 0.18660  0.04720  0.69880  Biso   1.000  H
  H16      1.0000 0.81340  0.04720  0.30120  Biso   1.000  H
  C17      1.0000 0.27160  0.46665  0.50870  Biso   1.000  C
  C18      1.0000 0.72840  0.46665  0.49130  Biso   1.000  C
  C19      1.0000 0.77160  0.96665  0.50870  Biso   1.000  C
  C20      1.0000 0.22840  0.96665  0.49130  Biso   1.000  C
  C21      1.0000 0.72840  0.53335  0.49130  Biso   1.000  C
  C22      1.0000 0.27160  0.53335  0.50870  Biso   1.000  C
  C23      1.0000 0.22840  0.03335  0.49130  Biso   1.000  C
  C24      1.0000 0.77160  0.03335  0.50870  Biso   1.000  C
  C25      1.0000 0.24386  0.43376  0.62880  Biso   1.000  C
  C26      1.0000 0.75614  0.43376  0.37120  Biso   1.000  C
  C27      1.0000 0.74386  0.93376  0.62880  Biso   1.000  C
  C28      1.0000 0.25614  0.93376  0.37120  Biso   1.000  C
  C29      1.0000 0.75614  0.56624  0.37120  Biso   1.000  C
  C30      1.0000 0.24386  0.56624  0.62880  Biso   1.000  C
  C31      1.0000 0.25614  0.06624  0.37120  Biso   1.000  C
  C32      1.0000 0.74386  0.06624  0.62880  Biso   1.000  C
  H17      1.0000 0.22120  0.45360  0.70640  Biso   1.000  H
  H18      1.0000 0.77880  0.45360  0.29360  Biso   1.000  H
  H19      1.0000 0.72120  0.95360  0.70640  Biso   1.000  H
  H20      1.0000 0.27880  0.95360  0.29360  Biso   1.000  H
  H21      1.0000 0.77880  0.54640  0.29360  Biso   1.000  H
  H22      1.0000 0.22120  0.54640  0.70640  Biso   1.000  H
  H23      1.0000 0.27880  0.04640  0.29360  Biso   1.000  H
  H24      1.0000 0.72120  0.04640  0.70640  Biso   1.000  H
  C33      1.0000 0.24302  0.37230  0.62370  Biso   1.000  C
  C34      1.0000 0.75698  0.37230  0.37630  Biso   1.000  C
  C35      1.0000 0.74302  0.87230  0.62370  Biso   1.000  C
  C36      1.0000 0.25698  0.87230  0.37630  Biso   1.000  C
  C37      1.0000 0.75698  0.62770  0.37630  Biso   1.000  C
  C38      1.0000 0.24302  0.62770  0.62370  Biso   1.000  C
  C39      1.0000 0.25698  0.12770  0.37630  Biso   1.000  C
  C40      1.0000 0.74302  0.12770  0.62370  Biso   1.000  C
  H25      1.0000 0.22510  0.35210  0.70770  Biso   1.000  H
  H26      1.0000 0.77490  0.35210  0.29230  Biso   1.000  H
  H27      1.0000 0.72510  0.85210  0.70770  Biso   1.000  H
  H28      1.0000 0.27490  0.85210  0.29230  Biso   1.000  H
  H29      1.0000 0.77490  0.64790  0.29230  Biso   1.000  H
  H30      1.0000 0.22510  0.64790  0.70770  Biso   1.000  H
  H31      1.0000 0.27490  0.14790  0.29230  Biso   1.000  H
  H32      1.0000 0.72510  0.14790  0.70770  Biso   1.000  H
  C41      1.0000 0.14130  0.28061  0.17920  Biso   1.000  C
  C42      1.0000 0.85870  0.28061  0.82080  Biso   1.000  C
  C43      1.0000 0.64130  0.78061  0.17920  Biso   1.000  C
  C44      1.0000 0.35870  0.78061  0.82080  Biso   1.000  C
  C45      1.0000 0.85870  0.71939  0.82080  Biso   1.000  C
  C46      1.0000 0.14130  0.71939  0.17920  Biso   1.000  C
  C47      1.0000 0.35870  0.21939  0.82080  Biso   1.000  C
  C48      1.0000 0.64130  0.21939  0.17920  Biso   1.000  C
  C49      1.0000 0.12753  0.28229  0.99000  Biso   1.000  C
  C50      1.0000 0.87247  0.28229  0.01000  Biso   1.000  C
  C51      1.0000 0.62753  0.78229  0.99000  Biso   1.000  C
  C52      1.0000 0.37247  0.78229  0.01000  Biso   1.000  C
  C53      1.0000 0.87247  0.71771  0.01000  Biso   1.000  C
  C54      1.0000 0.12753  0.71771  0.99000  Biso   1.000  C
  C55      1.0000 0.37247  0.21771  0.01000  Biso   1.000  C
  C56      1.0000 0.62753  0.21771  0.99000  Biso   1.000  C
  H33      1.0000 0.09230  0.24800  0.94370  Biso   1.000  H
  H34      1.0000 0.90770  0.24800  0.05630  Biso   1.000  H
  H35      1.0000 0.59230  0.74800  0.94370  Biso   1.000  H
  H36      1.0000 0.40770  0.74800  0.05630  Biso   1.000  H
  H37      1.0000 0.90770  0.75200  0.05630  Biso   1.000  H
  H38      1.0000 0.09230  0.75200  0.94370  Biso   1.000  H
  H39      1.0000 0.40770  0.25200  0.05630  Biso   1.000  H
  H40      1.0000 0.59230  0.25200  0.94370  Biso   1.000  H
  H41      1.0000 0.18210  0.27840  0.95930  Biso   1.000  H
  H42      1.0000 0.81790  0.27840  0.04070  Biso   1.000  H
  H43      1.0000 0.68210  0.77840  0.95930  Biso   1.000  H
  H44      1.0000 0.31790  0.77840  0.04070  Biso   1.000  H
  H45      1.0000 0.81790  0.72160  0.04070  Biso   1.000  H
  H46      1.0000 0.18210  0.72160  0.95930  Biso   1.000  H
  H47      1.0000 0.31790  0.22160  0.04070  Biso   1.000  H
  H48      1.0000 0.68210  0.22160  0.95930  Biso   1.000  H
  C57      1.0000 0.12798  0.38895  0.93760  Biso   1.000  C
  C58      1.0000 0.87202  0.38895  0.06240  Biso   1.000  C
  C59      1.0000 0.62798  0.88895  0.93760  Biso   1.000  C
  C60      1.0000 0.37202  0.88895  0.06240  Biso   1.000  C
  C61      1.0000 0.87202  0.61105  0.06240  Biso   1.000  C
  C62      1.0000 0.12798  0.61105  0.93760  Biso   1.000  C
  C63      1.0000 0.37202  0.11105  0.06240  Biso   1.000  C
  C64      1.0000 0.62798  0.11105  0.93760  Biso   1.000  C
  C65      1.0000 0.07999  0.44530  0.86740  Biso   1.000  C
  C66      1.0000 0.92001  0.44530  0.13260  Biso   1.000  C
  C67      1.0000 0.57999  0.94530  0.86740  Biso   1.000  C
  C68      1.0000 0.42001  0.94530  0.13260  Biso   1.000  C
  C69      1.0000 0.92001  0.55470  0.13260  Biso   1.000  C
  C70      1.0000 0.07999  0.55470  0.86740  Biso   1.000  C
  C71      1.0000 0.42001  0.05470  0.13260  Biso   1.000  C
  C72      1.0000 0.57999  0.05470  0.86740  Biso   1.000  C
  C73      1.0000 0.00294  0.44573  0.75010  Biso   1.000  C
  C74      1.0000 0.99706  0.44573  0.24990  Biso   1.000  C
  C75      1.0000 0.50294  0.94573  0.75010  Biso   1.000  C
  C76      1.0000 0.49706  0.94573  0.24990  Biso   1.000  C
  C77      1.0000 0.99706  0.55427  0.24990  Biso   1.000  C
  C78      1.0000 0.00294  0.55427  0.75010  Biso   1.000  C
  C79      1.0000 0.49706  0.05427  0.24990  Biso   1.000  C
  C80      1.0000 0.50294  0.05427  0.75010  Biso   1.000  C
  H49      1.0000 0.97750  0.40910  0.71200  Biso   1.000  H
  H50      1.0000 0.02250  0.40910  0.28800  Biso   1.000  H
  H51      1.0000 0.47750  0.90910  0.71200  Biso   1.000  H
  H52      1.0000 0.52250  0.90910  0.28800  Biso   1.000  H
  H53      1.0000 0.02250  0.59090  0.28800  Biso   1.000  H
  H54      1.0000 0.97750  0.59090  0.71200  Biso   1.000  H
  H55      1.0000 0.52250  0.09090  0.28800  Biso   1.000  H
  H56      1.0000 0.47750  0.09090  0.71200  Biso   1.000  H
  C81      1.0000 0.96590  0.50000  0.69080  Biso   1.000  C
  C82      1.0000 0.03410  0.50000  0.30920  Biso   1.000  C
  C83      1.0000 0.46590  0.00000  0.69080  Biso   1.000  C
  C84      1.0000 0.53410  0.00000  0.30920  Biso   1.000  C
  H57      1.0000 0.91440  0.50000  0.61080  Biso   1.000  H
  H58      1.0000 0.08560  0.50000  0.38920  Biso   1.000  H
  H59      1.0000 0.41440  0.00000  0.61080  Biso   1.000  H
  H60      1.0000 0.58560  0.00000  0.38920  Biso   1.000  H
  C85      1.0000 0.11800  0.50000  0.92680  Biso   1.000  C
  C86      1.0000 0.88200  0.50000  0.07320  Biso   1.000  C
  C87      1.0000 0.61800  0.00000  0.92680  Biso   1.000  C
  C88      1.0000 0.38200  0.00000  0.07320  Biso   1.000  C
  H61      1.0000 0.16960  0.50000  0.00640  Biso   1.000  H
  H62      1.0000 0.83040  0.50000  0.99360  Biso   1.000  H
  H63      1.0000 0.66960  0.00000  0.00640  Biso   1.000  H
  H64      1.0000 0.33040  0.00000  0.99360  Biso   1.000  H
  Cu1      1.0000 0.25000  0.25000  0.50000  Biso   1.000  Cu
  Cu2      1.0000 0.75000  0.25000  0.50000  Biso   1.000  Cu
  Cu3      1.0000 0.75000  0.75000  0.50000  Biso   1.000  Cu
  Cu4      1.0000 0.25000  0.75000  0.50000  Biso   1.000  Cu
  N1       1.0000 0.26484  0.34012  0.50600  Biso   1.000  N
  N2       1.0000 0.73516  0.34012  0.49400  Biso   1.000  N
  N3       1.0000 0.76484  0.84012  0.50600  Biso   1.000  N
  N4       1.0000 0.23516  0.84012  0.49400  Biso   1.000  N
  N5       1.0000 0.73516  0.65988  0.49400  Biso   1.000  N
  N6       1.0000 0.26484  0.65988  0.50600  Biso   1.000  N
  N7       1.0000 0.23516  0.15988  0.49400  Biso   1.000  N
  N8       1.0000 0.76484  0.15988  0.50600  Biso   1.000  N
  N9       1.0000 0.08508  0.33661  0.91650  Biso   1.000  N
  N10      1.0000 0.91492  0.33661  0.08350  Biso   1.000  N
  N11      1.0000 0.58508  0.83661  0.91650  Biso   1.000  N
  N12      1.0000 0.41492  0.83661  0.08350  Biso   1.000  N
  N13      1.0000 0.91492  0.66339  0.08350  Biso   1.000  N
  N14      1.0000 0.08508  0.66339  0.91650  Biso   1.000  N
  N15      1.0000 0.41492  0.16339  0.08350  Biso   1.000  N
  N16      1.0000 0.58508  0.16339  0.91650  Biso   1.000  N
  H65      1.0000 0.03270  0.33530  0.85970  Biso   1.000  H
  H66      1.0000 0.96730  0.33530  0.14030  Biso   1.000  H
  H67      1.0000 0.53270  0.83530  0.85970  Biso   1.000  H
  H68      1.0000 0.46730  0.83530  0.14030  Biso   1.000  H
  H69      1.0000 0.96730  0.66470  0.14030  Biso   1.000  H
  H70      1.0000 0.03270  0.66470  0.85970  Biso   1.000  H
  H71      1.0000 0.46730  0.16470  0.14030  Biso   1.000  H
  H72      1.0000 0.53270  0.16470  0.85970  Biso   1.000  H
  O1       1.0000 0.20730  0.25189  0.25600  Biso   1.000  O
  O2       1.0000 0.79270  0.25189  0.74400  Biso   1.000  O
  O3       1.0000 0.70730  0.75189  0.25600  Biso   1.000  O
  O4       1.0000 0.29270  0.75189  0.74400  Biso   1.000  O
  O5       1.0000 0.79270  0.74811  0.74400  Biso   1.000  O
  O6       1.0000 0.20730  0.74811  0.25600  Biso   1.000  O
  O7       1.0000 0.29270  0.24811  0.74400  Biso   1.000  O
  O8       1.0000 0.70730  0.24811  0.25600  Biso   1.000  O
  O9       1.0000 0.08824  0.30624  0.24410  Biso   1.000  O
  O10      1.0000 0.91176  0.30624  0.75590  Biso   1.000  O
  O11      1.0000 0.58824  0.80624  0.24410  Biso   1.000  O
  O12      1.0000 0.41176  0.80624  0.75590  Biso   1.000  O
  O13      1.0000 0.91176  0.69376  0.75590  Biso   1.000  O
  O14      1.0000 0.08824  0.69376  0.24410  Biso   1.000  O
  O15      1.0000 0.41176  0.19376  0.75590  Biso   1.000  O
  O16      1.0000 0.58824  0.19376  0.24410  Biso   1.000  O
  O17      1.0000 0.20416  0.39148  0.01060  Biso   1.000  O
  O18      1.0000 0.79584  0.39148  0.98940  Biso   1.000  O
  O19      1.0000 0.70416  0.89148  0.01060  Biso   1.000  O
  O20      1.0000 0.29584  0.89148  0.98940  Biso   1.000  O
  O21      1.0000 0.79584  0.60852  0.98940  Biso   1.000  O
  O22      1.0000 0.20416  0.60852  0.01060  Biso   1.000  O
  O23      1.0000 0.29584  0.10852  0.98940  Biso   1.000  O
  O24      1.0000 0.70416  0.10852  0.01060  Biso   1.000  O
  O25      1.0000 0.10398  0.26406  0.55710  Biso   1.000  O
  O26      1.0000 0.89602  0.26406  0.44290  Biso   1.000  O
  O27      1.0000 0.60398  0.76406  0.55710  Biso   1.000  O
  O28      1.0000 0.39602  0.76406  0.44290  Biso   1.000  O
  O29      1.0000 0.89602  0.73594  0.44290  Biso   1.000  O
  O30      1.0000 0.10398  0.73594  0.55710  Biso   1.000  O
  O31      1.0000 0.39602  0.23594  0.44290  Biso   1.000  O
  O32      1.0000 0.60398  0.23594  0.55710  Biso   1.000  O
  H73      1.0000 0.09830  0.27730  0.45880  Biso   1.000  H
  H74      1.0000 0.90170  0.27730  0.54120  Biso   1.000  H
  H75      1.0000 0.59830  0.77730  0.45880  Biso   1.000  H
  H76      1.0000 0.40170  0.77730  0.54120  Biso   1.000  H
  H77      1.0000 0.90170  0.72270  0.54120  Biso   1.000  H
  H78      1.0000 0.09830  0.72270  0.45880  Biso   1.000  H
  H79      1.0000 0.40170  0.22270  0.54120  Biso   1.000  H
  H80      1.0000 0.59830  0.22270  0.45880  Biso   1.000  H
  H81      1.0000 0.15470  0.27120  0.61290  Biso   1.000  H
  H82      1.0000 0.84530  0.27120  0.38710  Biso   1.000  H
  H83      1.0000 0.65470  0.77120  0.61290  Biso   1.000  H
  H84      1.0000 0.34530  0.77120  0.38710  Biso   1.000  H
  H85      1.0000 0.84530  0.72880  0.38710  Biso   1.000  H
  H86      1.0000 0.15470  0.72880  0.61290  Biso   1.000  H
  H87      1.0000 0.34530  0.22880  0.38710  Biso   1.000  H
  H88      1.0000 0.65470  0.22880  0.61290  Biso   1.000  H
  O33      1.0000 0.50000  0.33852  0.50000  Biso   1.000  O
  O34      1.0000 0.00000  0.83852  0.50000  Biso   1.000  O
  O35      1.0000 0.50000  0.66148  0.50000  Biso   1.000  O
  O36      1.0000 0.00000  0.16148  0.50000  Biso   1.000  O
  H89      1.0000 0.45230  0.32160  0.50000  Biso   1.000  H
  H90      1.0000 0.54770  0.32160  0.50000  Biso   1.000  H
  H91      1.0000 0.95230  0.82160  0.50000  Biso   1.000  H
  H92      1.0000 0.04770  0.82160  0.50000  Biso   1.000  H
  H93      1.0000 0.54770  0.67840  0.50000  Biso   1.000  H
  H94      1.0000 0.45230  0.67840  0.50000  Biso   1.000  H
  H95      1.0000 0.04770  0.17840  0.50000  Biso   1.000  H
  H96      1.0000 0.95230  0.17840  0.50000  Biso   1.000  H
  O37      1.0000 0.37298  0.41748  0.01010  Biso   1.000  O
  O38      1.0000 0.62702  0.41748  0.98990  Biso   1.000  O
  O39      1.0000 0.87298  0.91748  0.01010  Biso   1.000  O
  O40      1.0000 0.12702  0.91748  0.98990  Biso   1.000  O
  O41      1.0000 0.62702  0.58252  0.98990  Biso   1.000  O
  O42      1.0000 0.37298  0.58252  0.01010  Biso   1.000  O
  O43      1.0000 0.12702  0.08252  0.98990  Biso   1.000  O
  O44      1.0000 0.87298  0.08252  0.01010  Biso   1.000  O
  H97      1.0000 0.34530  0.39060  0.94610  Biso   1.000  H
  H98      1.0000 0.65470  0.39060  0.05390  Biso   1.000  H
  H99      1.0000 0.84530  0.89060  0.94610  Biso   1.000  H
  H100     1.0000 0.15470  0.89060  0.05390  Biso   1.000  H
  H101     1.0000 0.65470  0.60940  0.05390  Biso   1.000  H
  H102     1.0000 0.34530  0.60940  0.94610  Biso   1.000  H
  H103     1.0000 0.15470  0.10940  0.05390  Biso   1.000  H
  H104     1.0000 0.84530  0.10940  0.94610  Biso   1.000  H
  H105     1.0000 0.33850  0.44490  0.02570  Biso   1.000  H
  H106     1.0000 0.66150  0.44490  0.97430  Biso   1.000  H
  H107     1.0000 0.83850  0.94490  0.02570  Biso   1.000  H
  H108     1.0000 0.16150  0.94490  0.97430  Biso   1.000  H
  H109     1.0000 0.66150  0.55510  0.97430  Biso   1.000  H
  H110     1.0000 0.33850  0.55510  0.02570  Biso   1.000  H
  H111     1.0000 0.16150  0.05510  0.97430  Biso   1.000  H
  H112     1.0000 0.83850  0.05510  0.02570  Biso   1.000  H
  O45      1.0000 0.47788  0.39742  0.76800  Biso   1.000  O
  O46      1.0000 0.52212  0.39742  0.23200  Biso   1.000  O
  O47      1.0000 0.97788  0.89742  0.76800  Biso   1.000  O
  O48      1.0000 0.02212  0.89742  0.23200  Biso   1.000  O
  O49      1.0000 0.52212  0.60258  0.23200  Biso   1.000  O
  O50      1.0000 0.47788  0.60258  0.76800  Biso   1.000  O
  O51      1.0000 0.02212  0.10258  0.23200  Biso   1.000  O
  O52      1.0000 0.97788  0.10258  0.76800  Biso   1.000  O
  H113     1.0000 0.45770  0.42700  0.81210  Biso   1.000  H
  H114     1.0000 0.54230  0.42700  0.18790  Biso   1.000  H
  H115     1.0000 0.95770  0.92700  0.81210  Biso   1.000  H
  H116     1.0000 0.04230  0.92700  0.18790  Biso   1.000  H
  H117     1.0000 0.54230  0.57300  0.18790  Biso   1.000  H
  H118     1.0000 0.45770  0.57300  0.81210  Biso   1.000  H
  H119     1.0000 0.04230  0.07300  0.18790  Biso   1.000  H
  H120     1.0000 0.95770  0.07300  0.81210  Biso   1.000  H
  H121     1.0000 0.53240  0.39750  0.79930  Biso   1.000  H
  H122     1.0000 0.46760  0.39750  0.20070  Biso   1.000  H
  H123     1.0000 0.03240  0.89750  0.79930  Biso   1.000  H
  H124     1.0000 0.96760  0.89750  0.20070  Biso   1.000  H
  H125     1.0000 0.46760  0.60250  0.20070  Biso   1.000  H
  H126     1.0000 0.53240  0.60250  0.79930  Biso   1.000  H
  H127     1.0000 0.96760  0.10250  0.20070  Biso   1.000  H
  H128     1.0000 0.03240  0.10250  0.79930  Biso   1.000  H
  O53      1.0000 0.50000  0.50000  0.50000  Biso   1.000  O
  O54      1.0000 0.00000  0.00000  0.50000  Biso   1.000  O
  H129     1.0000 0.53770  0.31170  0.49740  Biso   1.000  H
  H130     1.0000 0.46230  0.31170  0.50260  Biso   1.000  H
  H131     1.0000 0.03770  0.81170  0.49740  Biso   1.000  H
  H132     1.0000 0.96230  0.81170  0.50260  Biso   1.000  H
  H133     1.0000 0.46230  0.68830  0.50260  Biso   1.000  H
  H134     1.0000 0.53770  0.68830  0.49740  Biso   1.000  H
  H135     1.0000 0.96230  0.18830  0.50260  Biso   1.000  H
  H136     1.0000 0.03770  0.18830  0.49740  Biso   1.000  H
  H137     1.0000 0.52770  0.48510  0.43350  Biso   1.000  H
  H138     1.0000 0.47230  0.48510  0.56650  Biso   1.000  H
  H139     1.0000 0.02770  0.98510  0.43350  Biso   1.000  H
  H140     1.0000 0.97230  0.98510  0.56650  Biso   1.000  H
  H141     1.0000 0.47230  0.51490  0.56650  Biso   1.000  H
  H142     1.0000 0.52770  0.51490  0.43350  Biso   1.000  H
  H143     1.0000 0.97230  0.01490  0.56650  Biso   1.000  H
  H144     1.0000 0.02770  0.01490  0.43350  Biso   1.000  H
  H145     1.0000 0.49420  0.47340  0.57070  Biso   1.000  H
  H146     1.0000 0.50580  0.47340  0.42930  Biso   1.000  H
  H147     1.0000 0.99420  0.97340  0.57070  Biso   1.000  H
  H148     1.0000 0.00580  0.97340  0.42930  Biso   1.000  H
  H149     1.0000 0.50580  0.52660  0.42930  Biso   1.000  H
  H150     1.0000 0.49420  0.52660  0.57070  Biso   1.000  H
  H151     1.0000 0.00580  0.02660  0.42930  Biso   1.000  H
  H152     1.0000 0.99420  0.02660  0.57070  Biso   1.000  H
