data_image0
_cell_length_a       6.062
_cell_length_b       7.701
_cell_length_c       16.162
_cell_angle_alpha    88.15
_cell_angle_beta     84.94
_cell_angle_gamma    78.13

_symmetry_space_group_name_H-M    "P 1"
_symmetry_int_tables_number       1

loop_
  _symmetry_equiv_pos_as_xyz
  'x, y, z'

loop_
  _atom_site_label
  _atom_site_occupancy
  _atom_site_fract_x
  _atom_site_fract_y
  _atom_site_fract_z
  _atom_site_thermal_displace_type
  _atom_site_B_iso_or_equiv
  _atom_site_type_symbol
  Cu1      1.0000 0.19708  0.18590  0.30035  Biso   1.000  Cu
  Cu2      1.0000 0.80292  0.81410  0.69965  Biso   1.000  Cu
  O1       1.0000 0.19450  0.00090  0.22470  Biso   1.000  O
  O2       1.0000 0.80550  0.99910  0.77530  Biso   1.000  O
  O3       1.0000 0.18920  0.39892  0.36957  Biso   1.000  O
  O4       1.0000 0.81080  0.60108  0.63043  Biso   1.000  O
  O5       1.0000 0.93370  0.40270  0.22289  Biso   1.000  O
  O6       1.0000 0.06630  0.59730  0.77711  Biso   1.000  O
  O7       1.0000 0.78910  0.59730  0.93078  Biso   1.000  O
  O8       1.0000 0.21090  0.40270  0.06922  Biso   1.000  O
  O9       1.0000 0.01110  0.76780  0.96079  Biso   1.000  O
  O10      1.0000 0.98890  0.23220  0.03921  Biso   1.000  O
  O11      1.0000 0.78200  0.83810  0.37070  Biso   1.000  O
  O12      1.0000 0.21800  0.16190  0.62930  Biso   1.000  O
  O13      1.0000 0.71790  0.65887  0.47196  Biso   1.000  O
  O14      1.0000 0.28210  0.34113  0.52804  Biso   1.000  O
  O15      1.0000 0.02230  0.76720  0.46519  Biso   1.000  O
  O16      1.0000 0.97770  0.23280  0.53481  Biso   1.000  O
  O17      1.0000 0.89330  0.15268  0.34566  Biso   1.000  O
  O18      1.0000 0.10670  0.84732  0.65434  Biso   1.000  O
  O19      1.0000 0.32200  0.99870  0.40998  Biso   1.000  O
  O20      1.0000 0.67800  0.00130  0.59002  Biso   1.000  O
  N1       1.0000 0.49120  0.23040  0.25503  Biso   1.000  N
  N2       1.0000 0.50880  0.76960  0.74497  Biso   1.000  N
  N3       1.0000 0.84390  0.75470  0.43656  Biso   1.000  N
  N4       1.0000 0.15610  0.24530  0.56344  Biso   1.000  N
  C1       1.0000 0.61820  0.14050  0.19699  Biso   1.000  C
  C2       1.0000 0.38180  0.85950  0.80301  Biso   1.000  C
  C3       1.0000 0.55870  0.99960  0.15127  Biso   1.000  C
  C4       1.0000 0.44130  0.00040  0.84873  Biso   1.000  C
  C5       1.0000 0.34890  0.93940  0.16775  Biso   1.000  C
  C6       1.0000 0.65110  0.06060  0.83225  Biso   1.000  C
  C7       1.0000 0.31150  0.80260  0.11640  Biso   1.000  C
  C8       1.0000 0.68850  0.19740  0.88360  Biso   1.000  C
  C9       1.0000 0.46440  0.73190  0.05303  Biso   1.000  C
  C10      1.0000 0.53560  0.26810  0.94697  Biso   1.000  C
  C11      1.0000 0.66870  0.79160  0.03904  Biso   1.000  C
  C12      1.0000 0.33130  0.20840  0.96096  Biso   1.000  C
  C13      1.0000 0.71450  0.92330  0.08701  Biso   1.000  C
  C14      1.0000 0.28550  0.07670  0.91299  Biso   1.000  C
  C15      1.0000 0.57010  0.37070  0.29841  Biso   1.000  C
  C16      1.0000 0.42990  0.62930  0.70159  Biso   1.000  C
  C17      1.0000 0.35370  0.49720  0.33410  Biso   1.000  C
  C18      1.0000 0.64630  0.50280  0.66590  Biso   1.000  C
  C19      1.0000 0.70080  0.48470  0.24099  Biso   1.000  C
  C20      1.0000 0.29920  0.51530  0.75901  Biso   1.000  C
  N5       1.0000 0.83230  0.71540  0.97317  Biso   1.000  N
  N6       1.0000 0.16770  0.28460  0.02683  Biso   1.000  N
  C21      1.0000 0.70190  0.28650  0.37150  Biso   1.000  C
  C22      1.0000 0.29810  0.71350  0.62850  Biso   1.000  C
  H1       1.0000 0.69000  0.59300  0.27080  Biso   1.000  H
  H2       1.0000 0.31000  0.40700  0.72920  Biso   1.000  H
  H3       1.0000 0.39100  0.56800  0.37590  Biso   1.000  H
  H4       1.0000 0.60900  0.43200  0.62410  Biso   1.000  H
  H5       1.0000 0.17700  0.76200  0.12670  Biso   1.000  H
  H6       1.0000 0.82300  0.23800  0.87330  Biso   1.000  H
  H7       1.0000 0.75200  0.37600  0.39670  Biso   1.000  H
  H8       1.0000 0.24800  0.62400  0.60330  Biso   1.000  H
  H9       1.0000 0.75700  0.16400  0.18450  Biso   1.000  H
  H10      1.0000 0.24300  0.83600  0.81550  Biso   1.000  H
  H11      1.0000 0.85600  0.96500  0.07770  Biso   1.000  H
  H12      1.0000 0.14400  0.03500  0.92230  Biso   1.000  H
  H13      1.0000 0.42700  0.64900  0.01950  Biso   1.000  H
  H14      1.0000 0.57300  0.35100  0.98050  Biso   1.000  H
  H15      1.0000 0.28300  0.57000  0.29060  Biso   1.000  H
  H16      1.0000 0.71700  0.43000  0.70940  Biso   1.000  H
  H17      1.0000 0.62200  0.50500  0.18800  Biso   1.000  H
  H18      1.0000 0.37800  0.49500  0.81200  Biso   1.000  H
  H19      1.0000 0.87200  0.05700  0.35300  Biso   1.000  H
  H20      1.0000 0.12800  0.94300  0.64700  Biso   1.000  H
  H21      1.0000 0.23300  0.94300  0.42900  Biso   1.000  H
  H22      1.0000 0.76700  0.05700  0.57100  Biso   1.000  H
  H23      1.0000 0.43900  0.93700  0.39700  Biso   1.000  H
  H24      1.0000 0.56100  0.06300  0.60300  Biso   1.000  H
  H25      1.0000 0.19900  0.37900  0.42000  Biso   1.000  H
  H26      1.0000 0.80100  0.62100  0.58000  Biso   1.000  H
  H27      1.0000 0.98100  0.41700  0.17670  Biso   1.000  H
  H28      1.0000 0.01900  0.58300  0.82330  Biso   1.000  H
  H29      1.0000 0.60000  0.23800  0.41140  Biso   1.000  H
  H30      1.0000 0.40000  0.76200  0.58860  Biso   1.000  H
