data_image0
_cell_length_a       9.967
_cell_length_b       12.95
_cell_length_c       14.945
_cell_angle_alpha    106.9
_cell_angle_beta     102.94
_cell_angle_gamma    102.11

_symmetry_space_group_name_H-M    "P 1"
_symmetry_int_tables_number       1

loop_
  _symmetry_equiv_pos_as_xyz
  'x, y, z'

loop_
  _atom_site_label
  _atom_site_occupancy
  _atom_site_fract_x
  _atom_site_fract_y
  _atom_site_fract_z
  _atom_site_thermal_displace_type
  _atom_site_B_iso_or_equiv
  _atom_site_type_symbol
  Cu1      1.0000 0.00000  0.00000  0.00000  Biso   1.000  Cu
  S1       1.0000 0.12810  0.86810  0.26091  Biso   1.000  S
  S2       1.0000 0.87190  0.13190  0.73909  Biso   1.000  S
  N1       1.0000 0.06330  0.95200  0.11060  Biso   1.000  N
  N2       1.0000 0.93670  0.04800  0.88940  Biso   1.000  N
  C1       1.0000 0.09200  0.91930  0.17430  Biso   1.000  C
  C2       1.0000 0.90800  0.08070  0.82570  Biso   1.000  C
  N3       1.0000 0.89330  0.09410  0.07630  Biso   1.000  N
  N4       1.0000 0.10670  0.90590  0.92370  Biso   1.000  N
  O1       1.0000 0.12590  0.31580  0.35200  Biso   1.000  O
  O2       1.0000 0.87410  0.68420  0.64800  Biso   1.000  O
  N5       1.0000 0.23930  0.17070  0.07840  Biso   1.000  N
  N6       1.0000 0.76070  0.82930  0.92160  Biso   1.000  N
  N7       1.0000 0.43690  0.37900  0.38030  Biso   1.000  N
  N8       1.0000 0.56310  0.62100  0.61970  Biso   1.000  N
  H1       1.0000 0.34550  0.34680  0.35710  Biso   1.000  H
  H2       1.0000 0.65450  0.65320  0.64290  Biso   1.000  H
  N9       1.0000 0.94420  0.38250  0.38030  Biso   1.000  N
  N10      1.0000 0.05580  0.61750  0.61970  Biso   1.000  N
  H3       1.0000 0.85670  0.38230  0.35790  Biso   1.000  H
  H4       1.0000 0.14330  0.61770  0.64210  Biso   1.000  H
  O3       1.0000 0.64760  0.40790  0.34510  Biso   1.000  O
  O4       1.0000 0.35240  0.59210  0.65490  Biso   1.000  O
  C3       1.0000 0.00080  0.31570  0.32420  Biso   1.000  C
  C4       1.0000 0.99920  0.68430  0.67580  Biso   1.000  C
  C5       1.0000 0.90650  0.23990  0.22320  Biso   1.000  C
  C6       1.0000 0.09350  0.76010  0.77680  Biso   1.000  C
  C7       1.0000 0.96080  0.16270  0.16940  Biso   1.000  C
  C8       1.0000 0.03920  0.83730  0.83060  Biso   1.000  C
  H5       1.0000 0.05030  0.15790  0.19990  Biso   1.000  H
  H6       1.0000 0.94970  0.84210  0.80010  Biso   1.000  H
  C9       1.0000 0.76240  0.09720  0.03510  Biso   1.000  C
  C10      1.0000 0.23760  0.90280  0.96490  Biso   1.000  C
  H7       1.0000 0.71360  0.04940  0.97060  Biso   1.000  H
  H8       1.0000 0.28640  0.95060  0.02940  Biso   1.000  H
  C11      1.0000 0.69580  0.16750  0.08320  Biso   1.000  C
  C12      1.0000 0.30420  0.83250  0.91680  Biso   1.000  C
  H9       1.0000 0.60290  0.16600  0.05250  Biso   1.000  H
  H10      1.0000 0.39710  0.83400  0.94750  Biso   1.000  H
  C13      1.0000 0.77000  0.24180  0.17980  Biso   1.000  C
  C14      1.0000 0.23000  0.75820  0.82020  Biso   1.000  C
  H11      1.0000 0.72800  0.29140  0.21380  Biso   1.000  H
  H12      1.0000 0.27200  0.70860  0.78620  Biso   1.000  H
  C15      1.0000 0.03210  0.45750  0.48160  Biso   1.000  C
  C16      1.0000 0.96790  0.54250  0.51840  Biso   1.000  C
  H13      1.0000 0.04020  0.41320  0.52380  Biso   1.000  H
  H14      1.0000 0.95980  0.58680  0.47620  Biso   1.000  H
  H15      1.0000 0.12820  0.49270  0.48180  Biso   1.000  H
  H16      1.0000 0.87180  0.50730  0.51820  Biso   1.000  H
  C17      1.0000 0.51550  0.37180  0.31850  Biso   1.000  C
  C18      1.0000 0.48450  0.62820  0.68150  Biso   1.000  C
  C19      1.0000 0.43060  0.31490  0.21020  Biso   1.000  C
  C20      1.0000 0.56940  0.68510  0.78980  Biso   1.000  C
  C21      1.0000 0.31500  0.21900  0.17420  Biso   1.000  C
  C22      1.0000 0.68500  0.78100  0.82580  Biso   1.000  C
  H17      1.0000 0.28820  0.18650  0.21790  Biso   1.000  H
  H18      1.0000 0.71180  0.81350  0.78210  Biso   1.000  H
  C23      1.0000 0.28010  0.21710  0.01640  Biso   1.000  C
  C24      1.0000 0.71990  0.78290  0.98360  Biso   1.000  C
  H19      1.0000 0.22700  0.18450  0.95030  Biso   1.000  H
  H20      1.0000 0.77300  0.81550  0.04970  Biso   1.000  H
  C25      1.0000 0.39550  0.30980  0.04520  Biso   1.000  C
  C26      1.0000 0.60450  0.69020  0.95480  Biso   1.000  C
  H21      1.0000 0.42210  0.33880  0.99950  Biso   1.000  H
  H22      1.0000 0.57790  0.66120  0.00050  Biso   1.000  H
  C27      1.0000 0.47290  0.36050  0.14440  Biso   1.000  C
  C28      1.0000 0.52710  0.63950  0.85560  Biso   1.000  C
  H23      1.0000 0.55210  0.42410  0.16620  Biso   1.000  H
  H24      1.0000 0.44790  0.57590  0.83380  Biso   1.000  H
  C29      1.0000 0.50090  0.43980  0.48660  Biso   1.000  C
  C30      1.0000 0.49910  0.56020  0.51340  Biso   1.000  C
  H25      1.0000 0.59950  0.43760  0.50680  Biso   1.000  H
  H26      1.0000 0.40050  0.56240  0.49320  Biso   1.000  H
  H27      1.0000 0.44730  0.40300  0.52120  Biso   1.000  H
  H28      1.0000 0.55270  0.59700  0.47880  Biso   1.000  H
  N11      1.0000 0.43950  0.33090  0.79390  Biso   1.000  N
  N12      1.0000 0.56050  0.66910  0.20610  Biso   1.000  N
  O5       1.0000 0.34480  0.36390  0.81240  Biso   1.000  O
  O6       1.0000 0.65520  0.63610  0.18760  Biso   1.000  O
  O7       1.0000 0.54870  0.34700  0.84910  Biso   1.000  O
  O8       1.0000 0.45130  0.65300  0.15090  Biso   1.000  O
  C31      1.0000 0.41370  0.26270  0.68650  Biso   1.000  C
  C32      1.0000 0.58630  0.73730  0.31350  Biso   1.000  C
  C33      1.0000 0.50640  0.20570  0.66560  Biso   1.000  C
  C34      1.0000 0.49360  0.79430  0.33440  Biso   1.000  C
  H29      1.0000 0.58300  0.20700  0.71510  Biso   1.000  H
  H30      1.0000 0.41700  0.79300  0.28490  Biso   1.000  H
  C35      1.0000 0.48580  0.14590  0.57010  Biso   1.000  C
  C36      1.0000 0.51420  0.85410  0.42990  Biso   1.000  C
  H31      1.0000 0.55060  0.10720  0.55350  Biso   1.000  H
  H32      1.0000 0.44940  0.89280  0.44650  Biso   1.000  H
  C37      1.0000 0.36900  0.14180  0.49700  Biso   1.000  C
  C38      1.0000 0.63100  0.85820  0.50300  Biso   1.000  C
  H33      1.0000 0.35210  0.09800  0.43180  Biso   1.000  H
  H34      1.0000 0.64790  0.90200  0.56820  Biso   1.000  H
  C39      1.0000 0.27850  0.20530  0.52410  Biso   1.000  C
  C40      1.0000 0.72150  0.79470  0.47590  Biso   1.000  C
  H35      1.0000 0.20170  0.20720  0.47670  Biso   1.000  H
  H36      1.0000 0.79830  0.79280  0.52330  Biso   1.000  H
  C41      1.0000 0.30360  0.26480  0.62110  Biso   1.000  C
  C42      1.0000 0.69640  0.73520  0.37890  Biso   1.000  C
  H37      1.0000 0.24280  0.30640  0.64040  Biso   1.000  H
  H38      1.0000 0.75720  0.69360  0.35960  Biso   1.000  H
  N13      1.0000 0.56530  0.98920  0.19950  Biso   1.000  N
  N14      1.0000 0.43470  0.01080  0.80050  Biso   1.000  N
  O9       1.0000 0.57390  0.91010  0.13740  Biso   1.000  O
  O10      1.0000 0.42610  0.08990  0.86260  Biso   1.000  O
  O11      1.0000 0.46570  0.02890  0.18810  Biso   1.000  O
  O12      1.0000 0.53430  0.97110  0.81190  Biso   1.000  O
  C43      1.0000 0.67850  0.03650  0.29350  Biso   1.000  C
  C44      1.0000 0.32150  0.96350  0.70650  Biso   1.000  C
  C45      1.0000 0.66310  0.12310  0.36640  Biso   1.000  C
  C46      1.0000 0.33690  0.87690  0.63360  Biso   1.000  C
  H39      1.0000 0.58390  0.15030  0.35520  Biso   1.000  H
  H40      1.0000 0.41610  0.84970  0.64480  Biso   1.000  H
  C47      1.0000 0.76650  0.16740  0.45450  Biso   1.000  C
  C48      1.0000 0.23350  0.83260  0.54550  Biso   1.000  C
  H41      1.0000 0.75930  0.22580  0.50510  Biso   1.000  H
  H42      1.0000 0.24070  0.77420  0.49490  Biso   1.000  H
  C49      1.0000 0.88010  0.12650  0.46840  Biso   1.000  C
  C50      1.0000 0.11990  0.87350  0.53160  Biso   1.000  C
  H43      1.0000 0.94930  0.15660  0.52980  Biso   1.000  H
  H44      1.0000 0.05070  0.84340  0.47020  Biso   1.000  H
  C51      1.0000 0.89710  0.04300  0.39640  Biso   1.000  C
  C52      1.0000 0.10290  0.95700  0.60360  Biso   1.000  C
  H45      1.0000 0.97800  0.01780  0.40780  Biso   1.000  H
  H46      1.0000 0.02200  0.98220  0.59220  Biso   1.000  H
  C53      1.0000 0.79320  0.99590  0.30610  Biso   1.000  C
  C54      1.0000 0.20680  0.00410  0.69390  Biso   1.000  C
  H47      1.0000 0.80150  0.93810  0.25540  Biso   1.000  H
  H48      1.0000 0.19850  0.06190  0.74460  Biso   1.000  H
  N15      1.0000 0.14430  0.56470  0.27940  Biso   1.000  N
  N16      1.0000 0.85570  0.43530  0.72060  Biso   1.000  N
  O13      1.0000 0.25940  0.54790  0.29920  Biso   1.000  O
  O14      1.0000 0.74060  0.45210  0.70080  Biso   1.000  O
  O15      1.0000 0.10920  0.62920  0.33600  Biso   1.000  O
  O16      1.0000 0.89080  0.37080  0.66400  Biso   1.000  O
  C55      1.0000 0.04800  0.49960  0.18160  Biso   1.000  C
  C56      1.0000 0.95200  0.50040  0.81840  Biso   1.000  C
  C57      1.0000 0.08090  0.41530  0.11870  Biso   1.000  C
  C58      1.0000 0.91910  0.58470  0.88130  Biso   1.000  C
  H49      1.0000 0.16700  0.39910  0.13810  Biso   1.000  H
  H50      1.0000 0.83300  0.60090  0.86190  Biso   1.000  H
  C59      1.0000 0.86190  0.37410  0.00060  Biso   1.000  C
  C60      1.0000 0.13810  0.62590  0.99940  Biso   1.000  C
  H51      1.0000 0.79840  0.32980  0.93860  Biso   1.000  H
  H52      1.0000 0.20160  0.67020  0.06140  Biso   1.000  H
  C61      1.0000 0.98840  0.35700  0.02970  Biso   1.000  C
  C62      1.0000 0.01160  0.64300  0.97030  Biso   1.000  C
  H53      1.0000 0.01330  0.30220  0.98620  Biso   1.000  H
  H54      1.0000 0.98670  0.69780  0.01380  Biso   1.000  H
  C63      1.0000 0.82480  0.45570  0.06070  Biso   1.000  C
  C64      1.0000 0.17520  0.54430  0.93930  Biso   1.000  C
  H55      1.0000 0.73680  0.46860  0.03960  Biso   1.000  H
  H56      1.0000 0.26320  0.53140  0.96040  Biso   1.000  H
  C65      1.0000 0.91880  0.52100  0.15500  Biso   1.000  C
  C66      1.0000 0.08120  0.47900  0.84500  Biso   1.000  C
  H57      1.0000 0.89450  0.57680  0.19790  Biso   1.000  H
  H58      1.0000 0.10550  0.42320  0.80210  Biso   1.000  H
