data_image0
_cell_length_a       8.259
_cell_length_b       9.613
_cell_length_c       12.656
_cell_angle_alpha    85.7
_cell_angle_beta     74.66
_cell_angle_gamma    71.18

_symmetry_space_group_name_H-M    "P 1"
_symmetry_int_tables_number       1

loop_
  _symmetry_equiv_pos_as_xyz
  'x, y, z'

loop_
  _atom_site_label
  _atom_site_occupancy
  _atom_site_fract_x
  _atom_site_fract_y
  _atom_site_fract_z
  _atom_site_thermal_displace_type
  _atom_site_B_iso_or_equiv
  _atom_site_type_symbol
  Cu1      1.0000 0.50000  0.00000  0.50000  Biso   1.000  Cu
  S1       1.0000 0.19560  0.67090  0.49300  Biso   1.000  S
  S2       1.0000 0.80440  0.32910  0.50700  Biso   1.000  S
  S3       1.0000 0.27500  0.63670  0.43800  Biso   1.000  S
  S4       1.0000 0.72500  0.36330  0.56200  Biso   1.000  S
  N1       1.0000 0.36020  0.87950  0.47660  Biso   1.000  N
  N2       1.0000 0.63980  0.12050  0.52340  Biso   1.000  N
  C1       1.0000 0.30220  0.78730  0.47500  Biso   1.000  C
  C2       1.0000 0.69780  0.21270  0.52500  Biso   1.000  C
  N3       1.0000 0.27950  0.13210  0.60780  Biso   1.000  N
  N4       1.0000 0.72050  0.86790  0.39220  Biso   1.000  N
  O1       1.0000 0.99380  0.94270  0.86070  Biso   1.000  O
  O2       1.0000 0.00620  0.05730  0.13930  Biso   1.000  O
  N5       1.0000 0.74140  0.13210  0.86710  Biso   1.000  N
  N6       1.0000 0.25860  0.86790  0.13290  Biso   1.000  N
  H1       1.0000 0.69890  0.22070  0.84620  Biso   1.000  H
  H2       1.0000 0.30110  0.77930  0.15380  Biso   1.000  H
  C3       1.0000 0.91870  0.06590  0.83310  Biso   1.000  C
  C4       1.0000 0.08130  0.93410  0.16690  Biso   1.000  C
  C5       1.0000 0.01960  0.15230  0.75390  Biso   1.000  C
  C6       1.0000 0.98040  0.84770  0.24610  Biso   1.000  C
  C7       1.0000 0.17320  0.07210  0.68140  Biso   1.000  C
  C8       1.0000 0.82680  0.92790  0.31860  Biso   1.000  C
  H3       1.0000 0.20460  0.97010  0.68390  Biso   1.000  H
  H4       1.0000 0.79540  0.02990  0.31610  Biso   1.000  H
  C9       1.0000 0.23450  0.27990  0.60640  Biso   1.000  C
  C10      1.0000 0.76550  0.72010  0.39360  Biso   1.000  C
  H5       1.0000 0.30910  0.32390  0.55790  Biso   1.000  H
  H6       1.0000 0.69090  0.67610  0.44210  Biso   1.000  H
  C11      1.0000 0.08270  0.36740  0.67420  Biso   1.000  C
  C12      1.0000 0.91730  0.63260  0.32580  Biso   1.000  C
  H7       1.0000 0.05390  0.46910  0.67000  Biso   1.000  H
  H8       1.0000 0.94610  0.53090  0.33000  Biso   1.000  H
  C13      1.0000 0.97160  0.30370  0.74920  Biso   1.000  C
  C14      1.0000 0.02840  0.69630  0.25080  Biso   1.000  C
  H9       1.0000 0.86730  0.36180  0.79520  Biso   1.000  H
  H10      1.0000 0.13270  0.63820  0.20480  Biso   1.000  H
  C15      1.0000 0.62100  0.06430  0.93510  Biso   1.000  C
  C16      1.0000 0.37900  0.93570  0.06490  Biso   1.000  C
  C17      1.0000 0.47820  0.05870  0.89930  Biso   1.000  C
  C18      1.0000 0.52180  0.94130  0.10070  Biso   1.000  C
  H11      1.0000 0.46360  0.09790  0.83170  Biso   1.000  H
  H12      1.0000 0.53640  0.90210  0.16830  Biso   1.000  H
  C19      1.0000 0.64340  0.00530  0.03620  Biso   1.000  C
  C20      1.0000 0.35660  0.99470  0.96380  Biso   1.000  C
  H13      1.0000 0.73900  0.00860  0.06050  Biso   1.000  H
  H14      1.0000 0.26100  0.99140  0.93950  Biso   1.000  H
  N7       1.0000 0.25560  0.62420  0.87600  Biso   1.000  N
  N8       1.0000 0.74440  0.37580  0.12400  Biso   1.000  N
  H15      1.0000 0.21570  0.71170  0.85250  Biso   1.000  H
  H16      1.0000 0.78430  0.28830  0.14750  Biso   1.000  H
  N9       1.0000 0.58920  0.82600  0.64610  Biso   1.000  N
  N10      1.0000 0.41080  0.17400  0.35390  Biso   1.000  N
  O3       1.0000 0.50780  0.43580  0.87770  Biso   1.000  O
  O4       1.0000 0.49220  0.56420  0.12230  Biso   1.000  O
  C21      1.0000 0.43470  0.56070  0.85100  Biso   1.000  C
  C22      1.0000 0.56530  0.43930  0.14900  Biso   1.000  C
  C23      1.0000 0.54000  0.65690  0.79200  Biso   1.000  C
  C24      1.0000 0.46000  0.34310  0.20800  Biso   1.000  C
  C25      1.0000 0.49870  0.74040  0.70220  Biso   1.000  C
  C26      1.0000 0.50130  0.25960  0.29780  Biso   1.000  C
  H17      1.0000 0.40160  0.73610  0.68020  Biso   1.000  H
  H18      1.0000 0.59840  0.26390  0.31980  Biso   1.000  H
  C27      1.0000 0.72950  0.82880  0.67900  Biso   1.000  C
  C28      1.0000 0.27050  0.17120  0.32100  Biso   1.000  C
  H19      1.0000 0.79470  0.88830  0.64160  Biso   1.000  H
  H20      1.0000 0.20530  0.11170  0.35840  Biso   1.000  H
  C29      1.0000 0.78220  0.74740  0.76590  Biso   1.000  C
  C30      1.0000 0.21780  0.25260  0.23410  Biso   1.000  C
  H21      1.0000 0.88210  0.75100  0.78490  Biso   1.000  H
  H22      1.0000 0.11790  0.24900  0.21510  Biso   1.000  H
  C31      1.0000 0.68580  0.66170  0.82340  Biso   1.000  C
  C32      1.0000 0.31420  0.33830  0.17660  Biso   1.000  C
  H23      1.0000 0.71810  0.60750  0.88280  Biso   1.000  H
  H24      1.0000 0.28190  0.39250  0.11720  Biso   1.000  H
  C33      1.0000 0.12910  0.55820  0.93760  Biso   1.000  C
  C34      1.0000 0.87090  0.44180  0.06240  Biso   1.000  C
  C35      1.0000 0.97300  0.64840  0.00370  Biso   1.000  C
  C36      1.0000 0.02700  0.35160  0.99630  Biso   1.000  C
  H25      1.0000 0.95390  0.74900  0.00640  Biso   1.000  H
  H26      1.0000 0.04610  0.25100  0.99360  Biso   1.000  H
  C37      1.0000 0.15400  0.41000  0.93460  Biso   1.000  C
  C38      1.0000 0.84600  0.59000  0.06540  Biso   1.000  C
  H27      1.0000 0.25750  0.34840  0.89040  Biso   1.000  H
  H28      1.0000 0.74250  0.65160  0.10960  Biso   1.000  H
