data_image0
_cell_length_a       29.888
_cell_length_b       45.858
_cell_length_c       13.6318
_cell_angle_alpha    90
_cell_angle_beta     90
_cell_angle_gamma    90

_symmetry_space_group_name_H-M    "P 1"
_symmetry_int_tables_number       1

loop_
  _symmetry_equiv_pos_as_xyz
  'x, y, z'

loop_
  _atom_site_label
  _atom_site_occupancy
  _atom_site_fract_x
  _atom_site_fract_y
  _atom_site_fract_z
  _atom_site_thermal_displace_type
  _atom_site_B_iso_or_equiv
  _atom_site_type_symbol
  Zn1      1.0000 0.75000  0.75000  0.25000  Biso   1.000  Zn
  Zn2      1.0000 0.25000  0.75000  0.25000  Biso   1.000  Zn
  Zn3      1.0000 0.75000  0.25000  0.75000  Biso   1.000  Zn
  Zn4      1.0000 0.25000  0.25000  0.75000  Biso   1.000  Zn
  N1       1.0000 0.78110  0.78137  0.32950  Biso   1.000  N
  N2       1.0000 0.21890  0.71863  0.32950  Biso   1.000  N
  N3       1.0000 0.78110  0.21863  0.67050  Biso   1.000  N
  N4       1.0000 0.21890  0.28137  0.67050  Biso   1.000  N
  N5       1.0000 0.28110  0.28137  0.82950  Biso   1.000  N
  N6       1.0000 0.71890  0.21863  0.82950  Biso   1.000  N
  N7       1.0000 0.28110  0.71863  0.17050  Biso   1.000  N
  N8       1.0000 0.71890  0.78137  0.17050  Biso   1.000  N
  N9       1.0000 0.21890  0.21863  0.67050  Biso   1.000  N
  N10      1.0000 0.78110  0.28137  0.67050  Biso   1.000  N
  N11      1.0000 0.21890  0.78137  0.32950  Biso   1.000  N
  N12      1.0000 0.78110  0.71863  0.32950  Biso   1.000  N
  N13      1.0000 0.71890  0.71863  0.17050  Biso   1.000  N
  N14      1.0000 0.28110  0.78137  0.17050  Biso   1.000  N
  N15      1.0000 0.71890  0.28137  0.82950  Biso   1.000  N
  N16      1.0000 0.28110  0.21863  0.82950  Biso   1.000  N
  C1       1.0000 0.75000  0.82513  0.25000  Biso   1.000  C
  C2       1.0000 0.25000  0.67487  0.25000  Biso   1.000  C
  C3       1.0000 0.75000  0.17487  0.75000  Biso   1.000  C
  C4       1.0000 0.25000  0.32513  0.75000  Biso   1.000  C
  C5       1.0000 0.25000  0.17487  0.75000  Biso   1.000  C
  C6       1.0000 0.75000  0.32513  0.75000  Biso   1.000  C
  C7       1.0000 0.25000  0.82513  0.25000  Biso   1.000  C
  C8       1.0000 0.75000  0.67487  0.25000  Biso   1.000  C
  C9       1.0000 0.77590  0.81120  0.31860  Biso   1.000  C
  C10      1.0000 0.22410  0.68880  0.31860  Biso   1.000  C
  C11      1.0000 0.77590  0.18880  0.68140  Biso   1.000  C
  C12      1.0000 0.22410  0.31120  0.68140  Biso   1.000  C
  C13      1.0000 0.27590  0.31120  0.81860  Biso   1.000  C
  C14      1.0000 0.72410  0.18880  0.81860  Biso   1.000  C
  C15      1.0000 0.27590  0.68880  0.18140  Biso   1.000  C
  C16      1.0000 0.72410  0.81120  0.18140  Biso   1.000  C
  C17      1.0000 0.22410  0.18880  0.68140  Biso   1.000  C
  C18      1.0000 0.77590  0.31120  0.68140  Biso   1.000  C
  C19      1.0000 0.22410  0.81120  0.31860  Biso   1.000  C
  C20      1.0000 0.77590  0.68880  0.31860  Biso   1.000  C
  C21      1.0000 0.72410  0.68880  0.18140  Biso   1.000  C
  C22      1.0000 0.27590  0.81120  0.18140  Biso   1.000  C
  C23      1.0000 0.72410  0.31120  0.81860  Biso   1.000  C
  C24      1.0000 0.27590  0.18880  0.81860  Biso   1.000  C
  C25      1.0000 0.80450  0.82580  0.38660  Biso   1.000  C
  C26      1.0000 0.19550  0.67420  0.38660  Biso   1.000  C
  C27      1.0000 0.80450  0.17420  0.61340  Biso   1.000  C
  C28      1.0000 0.19550  0.32580  0.61340  Biso   1.000  C
  C29      1.0000 0.30450  0.32580  0.88660  Biso   1.000  C
  C30      1.0000 0.69550  0.17420  0.88660  Biso   1.000  C
  C31      1.0000 0.30450  0.67420  0.11340  Biso   1.000  C
  C32      1.0000 0.69550  0.82580  0.11340  Biso   1.000  C
  C33      1.0000 0.19550  0.17420  0.61340  Biso   1.000  C
  C34      1.0000 0.80450  0.32580  0.61340  Biso   1.000  C
  C35      1.0000 0.19550  0.82580  0.38660  Biso   1.000  C
  C36      1.0000 0.80450  0.67420  0.38660  Biso   1.000  C
  C37      1.0000 0.69550  0.67420  0.11340  Biso   1.000  C
  C38      1.0000 0.30450  0.82580  0.11340  Biso   1.000  C
  C39      1.0000 0.69550  0.32580  0.88660  Biso   1.000  C
  C40      1.0000 0.30450  0.17420  0.88660  Biso   1.000  C
  H1       1.0000 0.80890  0.84580  0.39080  Biso   1.000  H
  H2       1.0000 0.19110  0.65420  0.39080  Biso   1.000  H
  H3       1.0000 0.80890  0.15420  0.60920  Biso   1.000  H
  H4       1.0000 0.19110  0.34580  0.60920  Biso   1.000  H
  H5       1.0000 0.30890  0.34580  0.89080  Biso   1.000  H
  H6       1.0000 0.69110  0.15420  0.89080  Biso   1.000  H
  H7       1.0000 0.30890  0.65420  0.10920  Biso   1.000  H
  H8       1.0000 0.69110  0.84580  0.10920  Biso   1.000  H
  H9       1.0000 0.19110  0.15420  0.60920  Biso   1.000  H
  H10      1.0000 0.80890  0.34580  0.60920  Biso   1.000  H
  H11      1.0000 0.19110  0.84580  0.39080  Biso   1.000  H
  H12      1.0000 0.80890  0.65420  0.39080  Biso   1.000  H
  H13      1.0000 0.69110  0.65420  0.10920  Biso   1.000  H
  H14      1.0000 0.30890  0.84580  0.10920  Biso   1.000  H
  H15      1.0000 0.69110  0.34580  0.89080  Biso   1.000  H
  H16      1.0000 0.30890  0.15420  0.89080  Biso   1.000  H
  C41      1.0000 0.82480  0.80481  0.44550  Biso   1.000  C
  C42      1.0000 0.17520  0.69519  0.44550  Biso   1.000  C
  C43      1.0000 0.82480  0.19519  0.55450  Biso   1.000  C
  C44      1.0000 0.17520  0.30481  0.55450  Biso   1.000  C
  C45      1.0000 0.32480  0.30481  0.94550  Biso   1.000  C
  C46      1.0000 0.67520  0.19519  0.94550  Biso   1.000  C
  C47      1.0000 0.32480  0.69519  0.05450  Biso   1.000  C
  C48      1.0000 0.67520  0.80481  0.05450  Biso   1.000  C
  C49      1.0000 0.17520  0.19519  0.55450  Biso   1.000  C
  C50      1.0000 0.82480  0.30481  0.55450  Biso   1.000  C
  C51      1.0000 0.17520  0.80481  0.44550  Biso   1.000  C
  C52      1.0000 0.82480  0.69519  0.44550  Biso   1.000  C
  C53      1.0000 0.67520  0.69519  0.05450  Biso   1.000  C
  C54      1.0000 0.32480  0.80481  0.05450  Biso   1.000  C
  C55      1.0000 0.67520  0.30481  0.94550  Biso   1.000  C
  C56      1.0000 0.32480  0.19519  0.94550  Biso   1.000  C
  H17      1.0000 0.84660  0.80730  0.49330  Biso   1.000  H
  H18      1.0000 0.15340  0.69270  0.49330  Biso   1.000  H
  H19      1.0000 0.84660  0.19270  0.50670  Biso   1.000  H
  H20      1.0000 0.15340  0.30730  0.50670  Biso   1.000  H
  H21      1.0000 0.34660  0.30730  0.99330  Biso   1.000  H
  H22      1.0000 0.65340  0.19270  0.99330  Biso   1.000  H
  H23      1.0000 0.34660  0.69270  0.00670  Biso   1.000  H
  H24      1.0000 0.65340  0.80730  0.00670  Biso   1.000  H
  H25      1.0000 0.15340  0.19270  0.50670  Biso   1.000  H
  H26      1.0000 0.84660  0.30730  0.50670  Biso   1.000  H
  H27      1.0000 0.15340  0.80730  0.49330  Biso   1.000  H
  H28      1.0000 0.84660  0.69270  0.49330  Biso   1.000  H
  H29      1.0000 0.65340  0.69270  0.00670  Biso   1.000  H
  H30      1.0000 0.34660  0.80730  0.00670  Biso   1.000  H
  H31      1.0000 0.65340  0.30730  0.99330  Biso   1.000  H
  H32      1.0000 0.34660  0.19270  0.99330  Biso   1.000  H
  C57      1.0000 0.80280  0.77766  0.41330  Biso   1.000  C
  C58      1.0000 0.19720  0.72234  0.41330  Biso   1.000  C
  C59      1.0000 0.80280  0.22234  0.58670  Biso   1.000  C
  C60      1.0000 0.19720  0.27766  0.58670  Biso   1.000  C
  C61      1.0000 0.30280  0.27766  0.91330  Biso   1.000  C
  C62      1.0000 0.69720  0.22234  0.91330  Biso   1.000  C
  C63      1.0000 0.30280  0.72234  0.08670  Biso   1.000  C
  C64      1.0000 0.69720  0.77766  0.08670  Biso   1.000  C
  C65      1.0000 0.19720  0.22234  0.58670  Biso   1.000  C
  C66      1.0000 0.80280  0.27766  0.58670  Biso   1.000  C
  C67      1.0000 0.19720  0.77766  0.41330  Biso   1.000  C
  C68      1.0000 0.80280  0.72234  0.41330  Biso   1.000  C
  C69      1.0000 0.69720  0.72234  0.08670  Biso   1.000  C
  C70      1.0000 0.30280  0.77766  0.08670  Biso   1.000  C
  C71      1.0000 0.69720  0.27766  0.91330  Biso   1.000  C
  C72      1.0000 0.30280  0.22234  0.91330  Biso   1.000  C
  C73      1.0000 0.82420  0.75000  0.44420  Biso   1.000  C
  C74      1.0000 0.17580  0.75000  0.44420  Biso   1.000  C
  C75      1.0000 0.82420  0.25000  0.55580  Biso   1.000  C
  C76      1.0000 0.17580  0.25000  0.55580  Biso   1.000  C
  C77      1.0000 0.32420  0.25000  0.94420  Biso   1.000  C
  C78      1.0000 0.67580  0.25000  0.94420  Biso   1.000  C
  C79      1.0000 0.32420  0.75000  0.05580  Biso   1.000  C
  C80      1.0000 0.67580  0.75000  0.05580  Biso   1.000  C
  H33      1.0000 0.85010  0.75000  0.48190  Biso   1.000  H
  H34      1.0000 0.14990  0.75000  0.48190  Biso   1.000  H
  H35      1.0000 0.85010  0.25000  0.51810  Biso   1.000  H
  H36      1.0000 0.14990  0.25000  0.51810  Biso   1.000  H
  H37      1.0000 0.35010  0.25000  0.98190  Biso   1.000  H
  H38      1.0000 0.64990  0.25000  0.98190  Biso   1.000  H
  H39      1.0000 0.35010  0.75000  0.01810  Biso   1.000  H
  H40      1.0000 0.64990  0.75000  0.01810  Biso   1.000  H
  C81      1.0000 0.75000  0.85811  0.25000  Biso   1.000  C
  C82      1.0000 0.25000  0.64189  0.25000  Biso   1.000  C
  C83      1.0000 0.75000  0.14189  0.75000  Biso   1.000  C
  C84      1.0000 0.25000  0.35811  0.75000  Biso   1.000  C
  C85      1.0000 0.25000  0.14189  0.75000  Biso   1.000  C
  C86      1.0000 0.75000  0.35811  0.75000  Biso   1.000  C
  C87      1.0000 0.25000  0.85811  0.25000  Biso   1.000  C
  C88      1.0000 0.75000  0.64189  0.25000  Biso   1.000  C
  C89      1.0000 0.71336  0.87314  0.28440  Biso   1.000  C
  C90      1.0000 0.28664  0.62686  0.28440  Biso   1.000  C
  C91      1.0000 0.71336  0.12686  0.71560  Biso   1.000  C
  C92      1.0000 0.28664  0.37314  0.71560  Biso   1.000  C
  C93      1.0000 0.21336  0.37314  0.78440  Biso   1.000  C
  C94      1.0000 0.78664  0.12686  0.78440  Biso   1.000  C
  C95      1.0000 0.21336  0.62686  0.21560  Biso   1.000  C
  C96      1.0000 0.78664  0.87314  0.21560  Biso   1.000  C
  C97      1.0000 0.28664  0.12686  0.71560  Biso   1.000  C
  C98      1.0000 0.71336  0.37314  0.71560  Biso   1.000  C
  C99      1.0000 0.28664  0.87314  0.28440  Biso   1.000  C
  C100     1.0000 0.71336  0.62686  0.28440  Biso   1.000  C
  C101     1.0000 0.78664  0.62686  0.21560  Biso   1.000  C
  C102     1.0000 0.21336  0.87314  0.21560  Biso   1.000  C
  C103     1.0000 0.78664  0.37314  0.78440  Biso   1.000  C
  C104     1.0000 0.21336  0.12686  0.78440  Biso   1.000  C
  H41      1.0000 0.68870  0.86290  0.30770  Biso   1.000  H
  H42      1.0000 0.31130  0.63710  0.30770  Biso   1.000  H
  H43      1.0000 0.68870  0.13710  0.69230  Biso   1.000  H
  H44      1.0000 0.31130  0.36290  0.69230  Biso   1.000  H
  H45      1.0000 0.18870  0.36290  0.80770  Biso   1.000  H
  H46      1.0000 0.81130  0.13710  0.80770  Biso   1.000  H
  H47      1.0000 0.18870  0.63710  0.19230  Biso   1.000  H
  H48      1.0000 0.81130  0.86290  0.19230  Biso   1.000  H
  H49      1.0000 0.31130  0.13710  0.69230  Biso   1.000  H
  H50      1.0000 0.68870  0.36290  0.69230  Biso   1.000  H
  H51      1.0000 0.31130  0.86290  0.30770  Biso   1.000  H
  H52      1.0000 0.68870  0.63710  0.30770  Biso   1.000  H
  H53      1.0000 0.81130  0.63710  0.19230  Biso   1.000  H
  H54      1.0000 0.18870  0.86290  0.19230  Biso   1.000  H
  H55      1.0000 0.81130  0.36290  0.80770  Biso   1.000  H
  H56      1.0000 0.18870  0.13710  0.80770  Biso   1.000  H
  C105     1.0000 0.71286  0.90360  0.28449  Biso   1.000  C
  C106     1.0000 0.28714  0.59640  0.28449  Biso   1.000  C
  C107     1.0000 0.71286  0.09640  0.71551  Biso   1.000  C
  C108     1.0000 0.28714  0.40360  0.71551  Biso   1.000  C
  C109     1.0000 0.21286  0.40360  0.78449  Biso   1.000  C
  C110     1.0000 0.78714  0.09640  0.78449  Biso   1.000  C
  C111     1.0000 0.21286  0.59640  0.21551  Biso   1.000  C
  C112     1.0000 0.78714  0.90360  0.21551  Biso   1.000  C
  C113     1.0000 0.28714  0.09640  0.71551  Biso   1.000  C
  C114     1.0000 0.71286  0.40360  0.71551  Biso   1.000  C
  C115     1.0000 0.28714  0.90360  0.28449  Biso   1.000  C
  C116     1.0000 0.71286  0.59640  0.28449  Biso   1.000  C
  C117     1.0000 0.78714  0.59640  0.21551  Biso   1.000  C
  C118     1.0000 0.21286  0.90360  0.21551  Biso   1.000  C
  C119     1.0000 0.78714  0.40360  0.78449  Biso   1.000  C
  C120     1.0000 0.21286  0.09640  0.78449  Biso   1.000  C
  C121     1.0000 0.75000  0.91847  0.25000  Biso   1.000  C
  C122     1.0000 0.25000  0.58153  0.25000  Biso   1.000  C
  C123     1.0000 0.75000  0.08153  0.75000  Biso   1.000  C
  C124     1.0000 0.25000  0.41847  0.75000  Biso   1.000  C
  C125     1.0000 0.25000  0.08153  0.75000  Biso   1.000  C
  C126     1.0000 0.75000  0.41847  0.75000  Biso   1.000  C
  C127     1.0000 0.25000  0.91847  0.25000  Biso   1.000  C
  C128     1.0000 0.75000  0.58153  0.25000  Biso   1.000  C
  H57      1.0000 0.75000  0.93870  0.25000  Biso   1.000  H
  H58      1.0000 0.25000  0.56130  0.25000  Biso   1.000  H
  H59      1.0000 0.75000  0.06130  0.75000  Biso   1.000  H
  H60      1.0000 0.25000  0.43870  0.75000  Biso   1.000  H
  H61      1.0000 0.25000  0.06130  0.75000  Biso   1.000  H
  H62      1.0000 0.75000  0.43870  0.75000  Biso   1.000  H
  H63      1.0000 0.25000  0.93870  0.25000  Biso   1.000  H
  H64      1.0000 0.75000  0.56130  0.25000  Biso   1.000  H
  C129     1.0000 0.67274  0.91989  0.31977  Biso   1.000  C
  C130     1.0000 0.32726  0.58011  0.31977  Biso   1.000  C
  C131     1.0000 0.67274  0.08011  0.68023  Biso   1.000  C
  C132     1.0000 0.32726  0.41989  0.68023  Biso   1.000  C
  C133     1.0000 0.17274  0.41989  0.81977  Biso   1.000  C
  C134     1.0000 0.82726  0.08011  0.81977  Biso   1.000  C
  C135     1.0000 0.17274  0.58011  0.18023  Biso   1.000  C
  C136     1.0000 0.82726  0.91989  0.18023  Biso   1.000  C
  C137     1.0000 0.32726  0.08011  0.68023  Biso   1.000  C
  C138     1.0000 0.67274  0.41989  0.68023  Biso   1.000  C
  C139     1.0000 0.32726  0.91989  0.31977  Biso   1.000  C
  C140     1.0000 0.67274  0.58011  0.31977  Biso   1.000  C
  C141     1.0000 0.82726  0.58011  0.18023  Biso   1.000  C
  C142     1.0000 0.17274  0.91989  0.18023  Biso   1.000  C
  C143     1.0000 0.82726  0.41989  0.81977  Biso   1.000  C
  C144     1.0000 0.17274  0.08011  0.81977  Biso   1.000  C
  C145     1.0000 0.64925  0.91065  0.40180  Biso   1.000  C
  C146     1.0000 0.35075  0.58935  0.40180  Biso   1.000  C
  C147     1.0000 0.64925  0.08935  0.59820  Biso   1.000  C
  C148     1.0000 0.35075  0.41065  0.59820  Biso   1.000  C
  C149     1.0000 0.14925  0.41065  0.90180  Biso   1.000  C
  C150     1.0000 0.85075  0.08935  0.90180  Biso   1.000  C
  C151     1.0000 0.14925  0.58935  0.09820  Biso   1.000  C
  C152     1.0000 0.85075  0.91065  0.09820  Biso   1.000  C
  C153     1.0000 0.35075  0.08935  0.59820  Biso   1.000  C
  C154     1.0000 0.64925  0.41065  0.59820  Biso   1.000  C
  C155     1.0000 0.35075  0.91065  0.40180  Biso   1.000  C
  C156     1.0000 0.64925  0.58935  0.40180  Biso   1.000  C
  C157     1.0000 0.85075  0.58935  0.09820  Biso   1.000  C
  C158     1.0000 0.14925  0.91065  0.09820  Biso   1.000  C
  C159     1.0000 0.85075  0.41065  0.90180  Biso   1.000  C
  C160     1.0000 0.14925  0.08935  0.90180  Biso   1.000  C
  H65      1.0000 0.65810  0.89380  0.43430  Biso   1.000  H
  H66      1.0000 0.34190  0.60620  0.43430  Biso   1.000  H
  H67      1.0000 0.65810  0.10620  0.56570  Biso   1.000  H
  H68      1.0000 0.34190  0.39380  0.56570  Biso   1.000  H
  H69      1.0000 0.15810  0.39380  0.93430  Biso   1.000  H
  H70      1.0000 0.84190  0.10620  0.93430  Biso   1.000  H
  H71      1.0000 0.15810  0.60620  0.06570  Biso   1.000  H
  H72      1.0000 0.84190  0.89380  0.06570  Biso   1.000  H
  H73      1.0000 0.34190  0.10620  0.56570  Biso   1.000  H
  H74      1.0000 0.65810  0.39380  0.56570  Biso   1.000  H
  H75      1.0000 0.34190  0.89380  0.43430  Biso   1.000  H
  H76      1.0000 0.65810  0.60620  0.43430  Biso   1.000  H
  H77      1.0000 0.84190  0.60620  0.06570  Biso   1.000  H
  H78      1.0000 0.15810  0.89380  0.06570  Biso   1.000  H
  H79      1.0000 0.84190  0.39380  0.93430  Biso   1.000  H
  H80      1.0000 0.15810  0.10620  0.93430  Biso   1.000  H
  C161     1.0000 0.61299  0.92620  0.43546  Biso   1.000  C
  C162     1.0000 0.38701  0.57380  0.43546  Biso   1.000  C
  C163     1.0000 0.61299  0.07380  0.56454  Biso   1.000  C
  C164     1.0000 0.38701  0.42620  0.56454  Biso   1.000  C
  C165     1.0000 0.11299  0.42620  0.93546  Biso   1.000  C
  C166     1.0000 0.88701  0.07380  0.93546  Biso   1.000  C
  C167     1.0000 0.11299  0.57380  0.06454  Biso   1.000  C
  C168     1.0000 0.88701  0.92620  0.06454  Biso   1.000  C
  C169     1.0000 0.38701  0.07380  0.56454  Biso   1.000  C
  C170     1.0000 0.61299  0.42620  0.56454  Biso   1.000  C
  C171     1.0000 0.38701  0.92620  0.43546  Biso   1.000  C
  C172     1.0000 0.61299  0.57380  0.43546  Biso   1.000  C
  C173     1.0000 0.88701  0.57380  0.06454  Biso   1.000  C
  C174     1.0000 0.11299  0.92620  0.06454  Biso   1.000  C
  C175     1.0000 0.88701  0.42620  0.93546  Biso   1.000  C
  C176     1.0000 0.11299  0.07380  0.93546  Biso   1.000  C
  H81      1.0000 0.59780  0.91980  0.49100  Biso   1.000  H
  H82      1.0000 0.40220  0.58020  0.49100  Biso   1.000  H
  H83      1.0000 0.59780  0.08020  0.50900  Biso   1.000  H
  H84      1.0000 0.40220  0.41980  0.50900  Biso   1.000  H
  H85      1.0000 0.09780  0.41980  0.99100  Biso   1.000  H
  H86      1.0000 0.90220  0.08020  0.99100  Biso   1.000  H
  H87      1.0000 0.09780  0.58020  0.00900  Biso   1.000  H
  H88      1.0000 0.90220  0.91980  0.00900  Biso   1.000  H
  H89      1.0000 0.40220  0.08020  0.50900  Biso   1.000  H
  H90      1.0000 0.59780  0.41980  0.50900  Biso   1.000  H
  H91      1.0000 0.40220  0.91980  0.49100  Biso   1.000  H
  H92      1.0000 0.59780  0.58020  0.49100  Biso   1.000  H
  H93      1.0000 0.90220  0.58020  0.00900  Biso   1.000  H
  H94      1.0000 0.09780  0.91980  0.00900  Biso   1.000  H
  H95      1.0000 0.90220  0.41980  0.99100  Biso   1.000  H
  H96      1.0000 0.09780  0.08020  0.99100  Biso   1.000  H
  C177     1.0000 0.59902  0.95097  0.38807  Biso   1.000  C
  C178     1.0000 0.40098  0.54903  0.38807  Biso   1.000  C
  C179     1.0000 0.59902  0.04903  0.61193  Biso   1.000  C
  C180     1.0000 0.40098  0.45097  0.61193  Biso   1.000  C
  C181     1.0000 0.09902  0.45097  0.88807  Biso   1.000  C
  C182     1.0000 0.90098  0.04903  0.88807  Biso   1.000  C
  C183     1.0000 0.09902  0.54903  0.11193  Biso   1.000  C
  C184     1.0000 0.90098  0.95097  0.11193  Biso   1.000  C
  C185     1.0000 0.40098  0.04903  0.61193  Biso   1.000  C
  C186     1.0000 0.59902  0.45097  0.61193  Biso   1.000  C
  C187     1.0000 0.40098  0.95097  0.38807  Biso   1.000  C
  C188     1.0000 0.59902  0.54903  0.38807  Biso   1.000  C
  C189     1.0000 0.90098  0.54903  0.11193  Biso   1.000  C
  C190     1.0000 0.09902  0.95097  0.11193  Biso   1.000  C
  C191     1.0000 0.90098  0.45097  0.88807  Biso   1.000  C
  C192     1.0000 0.09902  0.04903  0.88807  Biso   1.000  C
  C193     1.0000 0.62119  0.96008  0.30391  Biso   1.000  C
  C194     1.0000 0.37881  0.53992  0.30391  Biso   1.000  C
  C195     1.0000 0.62119  0.03992  0.69609  Biso   1.000  C
  C196     1.0000 0.37881  0.46008  0.69609  Biso   1.000  C
  C197     1.0000 0.12119  0.46008  0.80391  Biso   1.000  C
  C198     1.0000 0.87881  0.03992  0.80391  Biso   1.000  C
  C199     1.0000 0.12119  0.53992  0.19609  Biso   1.000  C
  C200     1.0000 0.87881  0.96008  0.19609  Biso   1.000  C
  C201     1.0000 0.37881  0.03992  0.69609  Biso   1.000  C
  C202     1.0000 0.62119  0.46008  0.69609  Biso   1.000  C
  C203     1.0000 0.37881  0.96008  0.30391  Biso   1.000  C
  C204     1.0000 0.62119  0.53992  0.30391  Biso   1.000  C
  C205     1.0000 0.87881  0.53992  0.19609  Biso   1.000  C
  C206     1.0000 0.12119  0.96008  0.19609  Biso   1.000  C
  C207     1.0000 0.87881  0.46008  0.80391  Biso   1.000  C
  C208     1.0000 0.12119  0.03992  0.80391  Biso   1.000  C
  H97      1.0000 0.61100  0.97630  0.26970  Biso   1.000  H
  H98      1.0000 0.38900  0.52370  0.26970  Biso   1.000  H
  H99      1.0000 0.61100  0.02370  0.73030  Biso   1.000  H
  H100     1.0000 0.38900  0.47630  0.73030  Biso   1.000  H
  H101     1.0000 0.11100  0.47630  0.76970  Biso   1.000  H
  H102     1.0000 0.88900  0.02370  0.76970  Biso   1.000  H
  H103     1.0000 0.11100  0.52370  0.23030  Biso   1.000  H
  H104     1.0000 0.88900  0.97630  0.23030  Biso   1.000  H
  H105     1.0000 0.38900  0.02370  0.73030  Biso   1.000  H
  H106     1.0000 0.61100  0.47630  0.73030  Biso   1.000  H
  H107     1.0000 0.38900  0.97630  0.26970  Biso   1.000  H
  H108     1.0000 0.61100  0.52370  0.26970  Biso   1.000  H
  H109     1.0000 0.88900  0.52370  0.23030  Biso   1.000  H
  H110     1.0000 0.11100  0.97630  0.23030  Biso   1.000  H
  H111     1.0000 0.88900  0.47630  0.76970  Biso   1.000  H
  H112     1.0000 0.11100  0.02370  0.76970  Biso   1.000  H
  C209     1.0000 0.65870  0.94494  0.27071  Biso   1.000  C
  C210     1.0000 0.34130  0.55506  0.27071  Biso   1.000  C
  C211     1.0000 0.65870  0.05506  0.72929  Biso   1.000  C
  C212     1.0000 0.34130  0.44494  0.72929  Biso   1.000  C
  C213     1.0000 0.15870  0.44494  0.77071  Biso   1.000  C
  C214     1.0000 0.84130  0.05506  0.77071  Biso   1.000  C
  C215     1.0000 0.15870  0.55506  0.22929  Biso   1.000  C
  C216     1.0000 0.84130  0.94494  0.22929  Biso   1.000  C
  C217     1.0000 0.34130  0.05506  0.72929  Biso   1.000  C
  C218     1.0000 0.65870  0.44494  0.72929  Biso   1.000  C
  C219     1.0000 0.34130  0.94494  0.27071  Biso   1.000  C
  C220     1.0000 0.65870  0.55506  0.27071  Biso   1.000  C
  C221     1.0000 0.84130  0.55506  0.22929  Biso   1.000  C
  C222     1.0000 0.15870  0.94494  0.22929  Biso   1.000  C
  C223     1.0000 0.84130  0.44494  0.77071  Biso   1.000  C
  C224     1.0000 0.15870  0.05506  0.77071  Biso   1.000  C
  H113     1.0000 0.67430  0.95150  0.21600  Biso   1.000  H
  H114     1.0000 0.32570  0.54850  0.21600  Biso   1.000  H
  H115     1.0000 0.67430  0.04850  0.78400  Biso   1.000  H
  H116     1.0000 0.32570  0.45150  0.78400  Biso   1.000  H
  H117     1.0000 0.17430  0.45150  0.71600  Biso   1.000  H
  H118     1.0000 0.82570  0.04850  0.71600  Biso   1.000  H
  H119     1.0000 0.17430  0.54850  0.28400  Biso   1.000  H
  H120     1.0000 0.82570  0.95150  0.28400  Biso   1.000  H
  H121     1.0000 0.32570  0.04850  0.78400  Biso   1.000  H
  H122     1.0000 0.67430  0.45150  0.78400  Biso   1.000  H
  H123     1.0000 0.32570  0.95150  0.21600  Biso   1.000  H
  H124     1.0000 0.67430  0.54850  0.21600  Biso   1.000  H
  H125     1.0000 0.82570  0.54850  0.28400  Biso   1.000  H
  H126     1.0000 0.17430  0.95150  0.28400  Biso   1.000  H
  H127     1.0000 0.82570  0.45150  0.71600  Biso   1.000  H
  H128     1.0000 0.17430  0.04850  0.71600  Biso   1.000  H
  C225     1.0000 0.56075  0.96879  0.42735  Biso   1.000  C
  C226     1.0000 0.43925  0.53121  0.42735  Biso   1.000  C
  C227     1.0000 0.56075  0.03121  0.57265  Biso   1.000  C
  C228     1.0000 0.43925  0.46879  0.57265  Biso   1.000  C
  C229     1.0000 0.06075  0.46879  0.92735  Biso   1.000  C
  C230     1.0000 0.93925  0.03121  0.92735  Biso   1.000  C
  C231     1.0000 0.06075  0.53121  0.07265  Biso   1.000  C
  C232     1.0000 0.93925  0.96879  0.07265  Biso   1.000  C
  C233     1.0000 0.43925  0.03121  0.57265  Biso   1.000  C
  C234     1.0000 0.56075  0.46879  0.57265  Biso   1.000  C
  C235     1.0000 0.43925  0.96879  0.42735  Biso   1.000  C
  C236     1.0000 0.56075  0.53121  0.42735  Biso   1.000  C
  C237     1.0000 0.93925  0.53121  0.07265  Biso   1.000  C
  C238     1.0000 0.06075  0.96879  0.07265  Biso   1.000  C
  C239     1.0000 0.93925  0.46879  0.92735  Biso   1.000  C
  C240     1.0000 0.06075  0.03121  0.92735  Biso   1.000  C
  O1       1.0000 0.54650  0.98944  0.37493  Biso   1.000  O
  O2       1.0000 0.45350  0.51056  0.37493  Biso   1.000  O
  O3       1.0000 0.54650  0.01056  0.62507  Biso   1.000  O
  O4       1.0000 0.45350  0.48944  0.62507  Biso   1.000  O
  O5       1.0000 0.04650  0.48944  0.87493  Biso   1.000  O
  O6       1.0000 0.95350  0.01056  0.87493  Biso   1.000  O
  O7       1.0000 0.04650  0.51056  0.12507  Biso   1.000  O
  O8       1.0000 0.95350  0.98944  0.12507  Biso   1.000  O
  O9       1.0000 0.45350  0.01056  0.62507  Biso   1.000  O
  O10      1.0000 0.54650  0.48944  0.62507  Biso   1.000  O
  O11      1.0000 0.45350  0.98944  0.37493  Biso   1.000  O
  O12      1.0000 0.54650  0.51056  0.37493  Biso   1.000  O
  O13      1.0000 0.95350  0.51056  0.12507  Biso   1.000  O
  O14      1.0000 0.04650  0.98944  0.12507  Biso   1.000  O
  O15      1.0000 0.95350  0.48944  0.87493  Biso   1.000  O
  O16      1.0000 0.04650  0.01056  0.87493  Biso   1.000  O
  Cu1      1.0000 0.50000  0.01627  0.42046  Biso   1.000  Cu
  Cu2      1.0000 0.50000  0.48373  0.42046  Biso   1.000  Cu
  Cu3      1.0000 0.50000  0.98373  0.57954  Biso   1.000  Cu
  Cu4      1.0000 0.50000  0.51627  0.57954  Biso   1.000  Cu
  Cu5      1.0000 0.00000  0.51627  0.92046  Biso   1.000  Cu
  Cu6      1.0000 0.00000  0.98373  0.92046  Biso   1.000  Cu
  Cu7      1.0000 0.00000  0.48373  0.07954  Biso   1.000  Cu
  Cu8      1.0000 0.00000  0.01627  0.07954  Biso   1.000  Cu
  O17      1.0000 0.54625  0.96142  0.51013  Biso   1.000  O
  O18      1.0000 0.45375  0.53858  0.51013  Biso   1.000  O
  O19      1.0000 0.54625  0.03858  0.48987  Biso   1.000  O
  O20      1.0000 0.45375  0.46142  0.48987  Biso   1.000  O
  O21      1.0000 0.04625  0.46142  0.01013  Biso   1.000  O
  O22      1.0000 0.95375  0.03858  0.01013  Biso   1.000  O
  O23      1.0000 0.04625  0.53858  0.98987  Biso   1.000  O
  O24      1.0000 0.95375  0.96142  0.98987  Biso   1.000  O
  O25      1.0000 0.45375  0.03858  0.48987  Biso   1.000  O
  O26      1.0000 0.54625  0.46142  0.48987  Biso   1.000  O
  O27      1.0000 0.45375  0.96142  0.51013  Biso   1.000  O
  O28      1.0000 0.54625  0.53858  0.51013  Biso   1.000  O
  O29      1.0000 0.95375  0.53858  0.98987  Biso   1.000  O
  O30      1.0000 0.04625  0.96142  0.98987  Biso   1.000  O
  O31      1.0000 0.95375  0.46142  0.01013  Biso   1.000  O
  O32      1.0000 0.04625  0.03858  0.01013  Biso   1.000  O
  O33      1.0000 0.50000  0.04416  0.29461  Biso   1.000  O
  O34      1.0000 0.50000  0.45584  0.29461  Biso   1.000  O
  O35      1.0000 0.50000  0.95584  0.70539  Biso   1.000  O
  O36      1.0000 0.50000  0.54416  0.70539  Biso   1.000  O
  O37      1.0000 0.00000  0.54416  0.79461  Biso   1.000  O
  O38      1.0000 0.00000  0.95584  0.79461  Biso   1.000  O
  O39      1.0000 0.00000  0.45584  0.20539  Biso   1.000  O
  O40      1.0000 0.00000  0.04416  0.20539  Biso   1.000  O
  N17      1.0000 0.75480  0.78146  0.35350  Biso   1.000  N
  N18      1.0000 0.24520  0.71854  0.35350  Biso   1.000  N
  N19      1.0000 0.75480  0.21854  0.64650  Biso   1.000  N
  N20      1.0000 0.24520  0.28146  0.64650  Biso   1.000  N
  N21      1.0000 0.25480  0.28146  0.85350  Biso   1.000  N
  N22      1.0000 0.74520  0.21854  0.85350  Biso   1.000  N
  N23      1.0000 0.25480  0.71854  0.14650  Biso   1.000  N
  N24      1.0000 0.74520  0.78146  0.14650  Biso   1.000  N
  N25      1.0000 0.24520  0.21854  0.64650  Biso   1.000  N
  N26      1.0000 0.75480  0.28146  0.64650  Biso   1.000  N
  N27      1.0000 0.24520  0.78146  0.35350  Biso   1.000  N
  N28      1.0000 0.75480  0.71854  0.35350  Biso   1.000  N
  N29      1.0000 0.74520  0.71854  0.14650  Biso   1.000  N
  N30      1.0000 0.25480  0.78146  0.14650  Biso   1.000  N
  N31      1.0000 0.74520  0.28146  0.85350  Biso   1.000  N
  N32      1.0000 0.25480  0.21854  0.85350  Biso   1.000  N
  C241     1.0000 0.75580  0.81180  0.33730  Biso   1.000  C
  C242     1.0000 0.24420  0.68820  0.33730  Biso   1.000  C
  C243     1.0000 0.75580  0.18820  0.66270  Biso   1.000  C
  C244     1.0000 0.24420  0.31180  0.66270  Biso   1.000  C
  C245     1.0000 0.25580  0.31180  0.83730  Biso   1.000  C
  C246     1.0000 0.74420  0.18820  0.83730  Biso   1.000  C
  C247     1.0000 0.25580  0.68820  0.16270  Biso   1.000  C
  C248     1.0000 0.74420  0.81180  0.16270  Biso   1.000  C
  C249     1.0000 0.24420  0.18820  0.66270  Biso   1.000  C
  C250     1.0000 0.75580  0.31180  0.66270  Biso   1.000  C
  C251     1.0000 0.24420  0.81180  0.33730  Biso   1.000  C
  C252     1.0000 0.75580  0.68820  0.33730  Biso   1.000  C
  C253     1.0000 0.74420  0.68820  0.16270  Biso   1.000  C
  C254     1.0000 0.25580  0.81180  0.16270  Biso   1.000  C
  C255     1.0000 0.74420  0.31180  0.83730  Biso   1.000  C
  C256     1.0000 0.25580  0.18820  0.83730  Biso   1.000  C
  C257     1.0000 0.76370  0.82559  0.42810  Biso   1.000  C
  C258     1.0000 0.23630  0.67441  0.42810  Biso   1.000  C
  C259     1.0000 0.76370  0.17441  0.57190  Biso   1.000  C
  C260     1.0000 0.23630  0.32559  0.57190  Biso   1.000  C
  C261     1.0000 0.26370  0.32559  0.92810  Biso   1.000  C
  C262     1.0000 0.73630  0.17441  0.92810  Biso   1.000  C
  C263     1.0000 0.26370  0.67441  0.07190  Biso   1.000  C
  C264     1.0000 0.73630  0.82559  0.07190  Biso   1.000  C
  C265     1.0000 0.23630  0.17441  0.57190  Biso   1.000  C
  C266     1.0000 0.76370  0.32559  0.57190  Biso   1.000  C
  C267     1.0000 0.23630  0.82559  0.42810  Biso   1.000  C
  C268     1.0000 0.76370  0.67441  0.42810  Biso   1.000  C
  C269     1.0000 0.73630  0.67441  0.07190  Biso   1.000  C
  C270     1.0000 0.26370  0.82559  0.07190  Biso   1.000  C
  C271     1.0000 0.73630  0.32559  0.92810  Biso   1.000  C
  C272     1.0000 0.26370  0.17441  0.92810  Biso   1.000  C
  H129     1.0000 0.76880  0.84540  0.43730  Biso   1.000  H
  H130     1.0000 0.23120  0.65460  0.43730  Biso   1.000  H
  H131     1.0000 0.76880  0.15460  0.56270  Biso   1.000  H
  H132     1.0000 0.23120  0.34540  0.56270  Biso   1.000  H
  H133     1.0000 0.26880  0.34540  0.93730  Biso   1.000  H
  H134     1.0000 0.73120  0.15460  0.93730  Biso   1.000  H
  H135     1.0000 0.26880  0.65460  0.06270  Biso   1.000  H
  H136     1.0000 0.73120  0.84540  0.06270  Biso   1.000  H
  H137     1.0000 0.23120  0.15460  0.56270  Biso   1.000  H
  H138     1.0000 0.76880  0.34540  0.56270  Biso   1.000  H
  H139     1.0000 0.23120  0.84540  0.43730  Biso   1.000  H
  H140     1.0000 0.76880  0.65460  0.43730  Biso   1.000  H
  H141     1.0000 0.73120  0.65460  0.06270  Biso   1.000  H
  H142     1.0000 0.26880  0.84540  0.06270  Biso   1.000  H
  H143     1.0000 0.73120  0.34540  0.93730  Biso   1.000  H
  H144     1.0000 0.26880  0.15460  0.93730  Biso   1.000  H
  C273     1.0000 0.76240  0.80433  0.50280  Biso   1.000  C
  C274     1.0000 0.23760  0.69567  0.50280  Biso   1.000  C
  C275     1.0000 0.76240  0.19567  0.49720  Biso   1.000  C
  C276     1.0000 0.23760  0.30433  0.49720  Biso   1.000  C
  C277     1.0000 0.26240  0.30433  0.00280  Biso   1.000  C
  C278     1.0000 0.73760  0.19567  0.00280  Biso   1.000  C
  C279     1.0000 0.26240  0.69567  0.99720  Biso   1.000  C
  C280     1.0000 0.73760  0.80433  0.99720  Biso   1.000  C
  C281     1.0000 0.23760  0.19567  0.49720  Biso   1.000  C
  C282     1.0000 0.76240  0.30433  0.49720  Biso   1.000  C
  C283     1.0000 0.23760  0.80433  0.50280  Biso   1.000  C
  C284     1.0000 0.76240  0.69567  0.50280  Biso   1.000  C
  C285     1.0000 0.73760  0.69567  0.99720  Biso   1.000  C
  C286     1.0000 0.26240  0.80433  0.99720  Biso   1.000  C
  C287     1.0000 0.73760  0.30433  0.00280  Biso   1.000  C
  C288     1.0000 0.26240  0.19567  0.00280  Biso   1.000  C
  H145     1.0000 0.76520  0.80680  0.57020  Biso   1.000  H
  H146     1.0000 0.23480  0.69320  0.57020  Biso   1.000  H
  H147     1.0000 0.76520  0.19320  0.42980  Biso   1.000  H
  H148     1.0000 0.23480  0.30680  0.42980  Biso   1.000  H
  H149     1.0000 0.26520  0.30680  0.07020  Biso   1.000  H
  H150     1.0000 0.73480  0.19320  0.07020  Biso   1.000  H
  H151     1.0000 0.26520  0.69320  0.92980  Biso   1.000  H
  H152     1.0000 0.73480  0.80680  0.92980  Biso   1.000  H
  H153     1.0000 0.23480  0.19320  0.42980  Biso   1.000  H
  H154     1.0000 0.76520  0.30680  0.42980  Biso   1.000  H
  H155     1.0000 0.23480  0.80680  0.57020  Biso   1.000  H
  H156     1.0000 0.76520  0.69320  0.57020  Biso   1.000  H
  H157     1.0000 0.73480  0.69320  0.92980  Biso   1.000  H
  H158     1.0000 0.26520  0.80680  0.92980  Biso   1.000  H
  H159     1.0000 0.73480  0.30680  0.07020  Biso   1.000  H
  H160     1.0000 0.26520  0.19320  0.07020  Biso   1.000  H
  C289     1.0000 0.75570  0.77772  0.44760  Biso   1.000  C
  C290     1.0000 0.24430  0.72228  0.44760  Biso   1.000  C
  C291     1.0000 0.75570  0.22228  0.55240  Biso   1.000  C
  C292     1.0000 0.24430  0.27772  0.55240  Biso   1.000  C
  C293     1.0000 0.25570  0.27772  0.94760  Biso   1.000  C
  C294     1.0000 0.74430  0.22228  0.94760  Biso   1.000  C
  C295     1.0000 0.25570  0.72228  0.05240  Biso   1.000  C
  C296     1.0000 0.74430  0.77772  0.05240  Biso   1.000  C
  C297     1.0000 0.24430  0.22228  0.55240  Biso   1.000  C
  C298     1.0000 0.75570  0.27772  0.55240  Biso   1.000  C
  C299     1.0000 0.24430  0.77772  0.44760  Biso   1.000  C
  C300     1.0000 0.75570  0.72228  0.44760  Biso   1.000  C
  C301     1.0000 0.74430  0.72228  0.05240  Biso   1.000  C
  C302     1.0000 0.25570  0.77772  0.05240  Biso   1.000  C
  C303     1.0000 0.74430  0.27772  0.94760  Biso   1.000  C
  C304     1.0000 0.25570  0.22228  0.94760  Biso   1.000  C
  C305     1.0000 0.76060  0.75000  0.49500  Biso   1.000  C
  C306     1.0000 0.23940  0.75000  0.49500  Biso   1.000  C
  C307     1.0000 0.76060  0.25000  0.50500  Biso   1.000  C
  C308     1.0000 0.23940  0.25000  0.50500  Biso   1.000  C
  C309     1.0000 0.26060  0.25000  0.99500  Biso   1.000  C
  C310     1.0000 0.73940  0.25000  0.99500  Biso   1.000  C
  C311     1.0000 0.26060  0.75000  0.00500  Biso   1.000  C
  C312     1.0000 0.73940  0.75000  0.00500  Biso   1.000  C
  H161     1.0000 0.76750  0.75000  0.56160  Biso   1.000  H
  H162     1.0000 0.23250  0.75000  0.56160  Biso   1.000  H
  H163     1.0000 0.76750  0.25000  0.43840  Biso   1.000  H
  H164     1.0000 0.23250  0.25000  0.43840  Biso   1.000  H
  H165     1.0000 0.26750  0.25000  0.06160  Biso   1.000  H
  H166     1.0000 0.73250  0.25000  0.06160  Biso   1.000  H
  H167     1.0000 0.26750  0.75000  0.93840  Biso   1.000  H
  H168     1.0000 0.73250  0.75000  0.93840  Biso   1.000  H
  O41      1.0000 0.85670  0.75000  0.04600  Biso   1.000  O
  O42      1.0000 0.14330  0.75000  0.04600  Biso   1.000  O
  O43      1.0000 0.85670  0.25000  0.95400  Biso   1.000  O
  O44      1.0000 0.14330  0.25000  0.95400  Biso   1.000  O
  O45      1.0000 0.35670  0.25000  0.54600  Biso   1.000  O
  O46      1.0000 0.64330  0.25000  0.54600  Biso   1.000  O
  O47      1.0000 0.35670  0.75000  0.45400  Biso   1.000  O
  O48      1.0000 0.64330  0.75000  0.45400  Biso   1.000  O
