data_image0
_cell_length_a       7.2358
_cell_length_b       13.838
_cell_length_c       16.15
_cell_angle_alpha    90
_cell_angle_beta     99.127
_cell_angle_gamma    90

_symmetry_space_group_name_H-M    "P 1"
_symmetry_int_tables_number       1

loop_
  _symmetry_equiv_pos_as_xyz
  'x, y, z'

loop_
  _atom_site_label
  _atom_site_occupancy
  _atom_site_fract_x
  _atom_site_fract_y
  _atom_site_fract_z
  _atom_site_thermal_displace_type
  _atom_site_B_iso_or_equiv
  _atom_site_type_symbol
  Br1      1.0000 0.14913  0.96192  0.34420  Biso   1.000  Br
  Br2      1.0000 0.85087  0.46192  0.15580  Biso   1.000  Br
  Br3      1.0000 0.85087  0.03808  0.65580  Biso   1.000  Br
  Br4      1.0000 0.14913  0.53808  0.84420  Biso   1.000  Br
  Br5      1.0000 0.01904  0.94803  0.13197  Biso   1.000  Br
  Br6      1.0000 0.98096  0.44803  0.36803  Biso   1.000  Br
  Br7      1.0000 0.98096  0.05197  0.86803  Biso   1.000  Br
  Br8      1.0000 0.01904  0.55197  0.63197  Biso   1.000  Br
  Cu1      1.0000 0.28244  0.00831  0.22537  Biso   1.000  Cu
  Cu2      1.0000 0.71756  0.50831  0.27463  Biso   1.000  Cu
  Cu3      1.0000 0.71756  0.99169  0.77463  Biso   1.000  Cu
  Cu4      1.0000 0.28244  0.49169  0.72537  Biso   1.000  Cu
  N1       1.0000 0.51120  0.07310  0.29500  Biso   1.000  N
  N2       1.0000 0.48880  0.57310  0.20500  Biso   1.000  N
  N3       1.0000 0.48880  0.92690  0.70500  Biso   1.000  N
  N4       1.0000 0.51120  0.42690  0.79500  Biso   1.000  N
  N5       1.0000 0.08620  0.23580  0.26470  Biso   1.000  N
  N6       1.0000 0.91380  0.73580  0.23530  Biso   1.000  N
  N7       1.0000 0.91380  0.76420  0.73530  Biso   1.000  N
  N8       1.0000 0.08620  0.26420  0.76470  Biso   1.000  N
  C1       1.0000 0.36200  0.32530  0.24940  Biso   1.000  C
  C2       1.0000 0.63800  0.82530  0.25060  Biso   1.000  C
  C3       1.0000 0.63800  0.67470  0.75060  Biso   1.000  C
  C4       1.0000 0.36200  0.17470  0.74940  Biso   1.000  C
  N9       1.0000 0.97000  0.23630  0.08860  Biso   1.000  N
  N10      1.0000 0.03000  0.73630  0.41140  Biso   1.000  N
  N11      1.0000 0.03000  0.76370  0.91140  Biso   1.000  N
  N12      1.0000 0.97000  0.26370  0.58860  Biso   1.000  N
  N13      1.0000 0.39980  0.07430  0.13160  Biso   1.000  N
  N14      1.0000 0.60020  0.57430  0.36840  Biso   1.000  N
  N15      1.0000 0.60020  0.92570  0.86840  Biso   1.000  N
  N16      1.0000 0.39980  0.42570  0.63160  Biso   1.000  N
  N17      1.0000 0.49840  0.36340  0.27760  Biso   1.000  N
  N18      1.0000 0.50160  0.86340  0.22240  Biso   1.000  N
  N19      1.0000 0.50160  0.63660  0.72240  Biso   1.000  N
  N20      1.0000 0.49840  0.13660  0.77760  Biso   1.000  N
  C5       1.0000 0.68200  0.15530  0.10520  Biso   1.000  C
  C6       1.0000 0.31800  0.65530  0.39480  Biso   1.000  C
  C7       1.0000 0.31800  0.84470  0.89480  Biso   1.000  C
  C8       1.0000 0.68200  0.34470  0.60520  Biso   1.000  C
  C9       1.0000 0.63210  0.11310  0.24920  Biso   1.000  C
  C10      1.0000 0.36790  0.61310  0.25080  Biso   1.000  C
  C11      1.0000 0.36790  0.88690  0.75080  Biso   1.000  C
  C12      1.0000 0.63210  0.38690  0.74920  Biso   1.000  C
  C13      1.0000 0.57190  0.11470  0.15870  Biso   1.000  C
  C14      1.0000 0.42810  0.61470  0.34130  Biso   1.000  C
  C15      1.0000 0.42810  0.88530  0.84130  Biso   1.000  C
  C16      1.0000 0.57190  0.38530  0.65870  Biso   1.000  C
  C17      1.0000 0.18870  0.27700  0.21220  Biso   1.000  C
  C18      1.0000 0.81130  0.77700  0.28780  Biso   1.000  C
  C19      1.0000 0.81130  0.72300  0.78780  Biso   1.000  C
  C20      1.0000 0.18870  0.22300  0.71220  Biso   1.000  C
  C21      1.0000 0.43620  0.11830  0.99170  Biso   1.000  C
  C22      1.0000 0.56380  0.61830  0.50830  Biso   1.000  C
  C23      1.0000 0.56380  0.88170  0.00830  Biso   1.000  C
  C24      1.0000 0.43620  0.38170  0.49170  Biso   1.000  C
  H1       1.0000 0.38570  0.12020  0.93510  Biso   1.000  H
  H2       1.0000 0.61430  0.62020  0.56490  Biso   1.000  H
  H3       1.0000 0.61430  0.87980  0.06490  Biso   1.000  H
  H4       1.0000 0.38570  0.37980  0.43510  Biso   1.000  H
  C25      1.0000 0.80360  0.15540  0.28470  Biso   1.000  C
  C26      1.0000 0.19640  0.65540  0.21530  Biso   1.000  C
  C27      1.0000 0.19640  0.84460  0.71530  Biso   1.000  C
  C28      1.0000 0.80360  0.34460  0.78470  Biso   1.000  C
  C29      1.0000 0.33460  0.07810  0.04910  Biso   1.000  C
  C30      1.0000 0.66540  0.57810  0.45090  Biso   1.000  C
  C31      1.0000 0.66540  0.92190  0.95090  Biso   1.000  C
  C32      1.0000 0.33460  0.42190  0.54910  Biso   1.000  C
  H5       1.0000 0.21670  0.05280  0.02960  Biso   1.000  H
  H6       1.0000 0.78330  0.55280  0.47040  Biso   1.000  H
  H7       1.0000 0.78330  0.94720  0.97040  Biso   1.000  H
  H8       1.0000 0.21670  0.44720  0.52960  Biso   1.000  H
  C33      1.0000 0.61190  0.15560  0.01870  Biso   1.000  C
  C34      1.0000 0.38810  0.65560  0.48130  Biso   1.000  C
  C35      1.0000 0.38810  0.84440  0.98130  Biso   1.000  C
  C36      1.0000 0.61190  0.34440  0.51870  Biso   1.000  C
  H9       1.0000 0.68300  0.18040  0.98040  Biso   1.000  H
  H10      1.0000 0.31700  0.68040  0.51960  Biso   1.000  H
  H11      1.0000 0.31700  0.81960  0.01960  Biso   1.000  H
  H12      1.0000 0.68300  0.31960  0.48040  Biso   1.000  H
  C37      1.0000 0.56110  0.07420  0.37850  Biso   1.000  C
  C38      1.0000 0.43890  0.57420  0.12150  Biso   1.000  C
  C39      1.0000 0.43890  0.92580  0.62150  Biso   1.000  C
  C40      1.0000 0.56110  0.42580  0.87850  Biso   1.000  C
  H13      1.0000 0.48100  0.04600  0.41120  Biso   1.000  H
  H14      1.0000 0.51900  0.54600  0.08880  Biso   1.000  H
  H15      1.0000 0.51900  0.95400  0.58880  Biso   1.000  H
  H16      1.0000 0.48100  0.45400  0.91120  Biso   1.000  H
  C41      1.0000 0.92100  0.19690  0.22940  Biso   1.000  C
  C42      1.0000 0.07900  0.69690  0.27060  Biso   1.000  C
  C43      1.0000 0.07900  0.80310  0.77060  Biso   1.000  C
  C44      1.0000 0.92100  0.30310  0.72940  Biso   1.000  C
  C45      1.0000 0.13080  0.27830  0.12450  Biso   1.000  C
  C46      1.0000 0.86920  0.77830  0.37550  Biso   1.000  C
  C47      1.0000 0.86920  0.72170  0.87550  Biso   1.000  C
  C48      1.0000 0.13080  0.22170  0.62450  Biso   1.000  C
  C49      1.0000 0.86270  0.19710  0.14100  Biso   1.000  C
  C50      1.0000 0.13730  0.69710  0.35900  Biso   1.000  C
  C51      1.0000 0.13730  0.80290  0.85900  Biso   1.000  C
  C52      1.0000 0.86270  0.30290  0.64100  Biso   1.000  C
  C53      1.0000 0.72720  0.11550  0.41870  Biso   1.000  C
  C54      1.0000 0.27280  0.61550  0.08130  Biso   1.000  C
  C55      1.0000 0.27280  0.88450  0.58130  Biso   1.000  C
  C56      1.0000 0.72720  0.38450  0.91870  Biso   1.000  C
  H17      1.0000 0.75510  0.11500  0.47690  Biso   1.000  H
  H18      1.0000 0.24490  0.61500  0.02310  Biso   1.000  H
  H19      1.0000 0.24490  0.88500  0.52310  Biso   1.000  H
  H20      1.0000 0.75510  0.38500  0.97690  Biso   1.000  H
  C57      1.0000 0.84990  0.15690  0.37210  Biso   1.000  C
  C58      1.0000 0.15010  0.65690  0.12790  Biso   1.000  C
  C59      1.0000 0.15010  0.84310  0.62790  Biso   1.000  C
  C60      1.0000 0.84990  0.34310  0.87210  Biso   1.000  C
  H21      1.0000 0.96070  0.18510  0.39810  Biso   1.000  H
  H22      1.0000 0.03930  0.68510  0.10190  Biso   1.000  H
  H23      1.0000 0.03930  0.81490  0.60190  Biso   1.000  H
  H24      1.0000 0.96070  0.31490  0.89810  Biso   1.000  H
  N21      1.0000 0.33800  0.36270  0.03110  Biso   1.000  N
  N22      1.0000 0.66200  0.86270  0.46890  Biso   1.000  N
  N23      1.0000 0.66200  0.63730  0.96890  Biso   1.000  N
  N24      1.0000 0.33800  0.13730  0.53110  Biso   1.000  N
  C61      1.0000 0.24590  0.32500  0.07080  Biso   1.000  C
  C62      1.0000 0.75410  0.82500  0.42920  Biso   1.000  C
  C63      1.0000 0.75410  0.67500  0.92920  Biso   1.000  C
  C64      1.0000 0.24590  0.17500  0.57080  Biso   1.000  C
