data_image0
_cell_length_a       12.7461
_cell_length_b       14.0896
_cell_length_c       23.8855
_cell_angle_alpha    90
_cell_angle_beta     95.721
_cell_angle_gamma    90

_symmetry_space_group_name_H-M    "P 1"
_symmetry_int_tables_number       1

loop_
  _symmetry_equiv_pos_as_xyz
  'x, y, z'

loop_
  _atom_site_label
  _atom_site_occupancy
  _atom_site_fract_x
  _atom_site_fract_y
  _atom_site_fract_z
  _atom_site_thermal_displace_type
  _atom_site_B_iso_or_equiv
  _atom_site_type_symbol
  Br1      1.0000 0.69000  0.63966  0.01447  Biso   1.000  Br
  Br2      1.0000 0.31000  0.13966  0.48553  Biso   1.000  Br
  Br3      1.0000 0.31000  0.36034  0.98553  Biso   1.000  Br
  Br4      1.0000 0.69000  0.86034  0.51447  Biso   1.000  Br
  Cu1      1.0000 0.53298  0.59667  0.95680  Biso   1.000  Cu
  Cu2      1.0000 0.46702  0.09667  0.54320  Biso   1.000  Cu
  Cu3      1.0000 0.46702  0.40333  0.04320  Biso   1.000  Cu
  Cu4      1.0000 0.53298  0.90333  0.45680  Biso   1.000  Cu
  Cu5      1.0000 0.95506  0.95509  0.05625  Biso   1.000  Cu
  Cu6      1.0000 0.04494  0.45509  0.44375  Biso   1.000  Cu
  Cu7      1.0000 0.04494  0.04491  0.94375  Biso   1.000  Cu
  Cu8      1.0000 0.95506  0.54491  0.55625  Biso   1.000  Cu
  Br5      1.0000 0.77116  0.93268  0.02834  Biso   1.000  Br
  Br6      1.0000 0.22884  0.43268  0.47166  Biso   1.000  Br
  Br7      1.0000 0.22884  0.06732  0.97166  Biso   1.000  Br
  Br8      1.0000 0.77116  0.56732  0.52834  Biso   1.000  Br
  N1       1.0000 0.49420  0.73310  0.93630  Biso   1.000  N
  N2       1.0000 0.50580  0.23310  0.56370  Biso   1.000  N
  N3       1.0000 0.50580  0.26690  0.06370  Biso   1.000  N
  N4       1.0000 0.49420  0.76690  0.43630  Biso   1.000  N
  C1       1.0000 0.35660  0.65150  0.87960  Biso   1.000  C
  C2       1.0000 0.64340  0.15150  0.62040  Biso   1.000  C
  C3       1.0000 0.64340  0.34850  0.12040  Biso   1.000  C
  C4       1.0000 0.35660  0.84850  0.37960  Biso   1.000  C
  N5       1.0000 0.12250  0.73890  0.79600  Biso   1.000  N
  N6       1.0000 0.87750  0.23890  0.70400  Biso   1.000  N
  N7       1.0000 0.87750  0.26110  0.20400  Biso   1.000  N
  N8       1.0000 0.12250  0.76110  0.29600  Biso   1.000  N
  N9       1.0000 0.09100  0.98270  0.10520  Biso   1.000  N
  N10      1.0000 0.90900  0.48270  0.39480  Biso   1.000  N
  N11      1.0000 0.90900  0.01730  0.89480  Biso   1.000  N
  N12      1.0000 0.09100  0.51730  0.60520  Biso   1.000  N
  C5       1.0000 0.50770  0.90170  0.93480  Biso   1.000  C
  C6       1.0000 0.49230  0.40170  0.56520  Biso   1.000  C
  C7       1.0000 0.49230  0.09830  0.06520  Biso   1.000  C
  C8       1.0000 0.50770  0.59830  0.43480  Biso   1.000  C
  H1       1.0000 0.54600  0.95700  0.94710  Biso   1.000  H
  H2       1.0000 0.45400  0.45700  0.55290  Biso   1.000  H
  H3       1.0000 0.45400  0.04300  0.05290  Biso   1.000  H
  H4       1.0000 0.54600  0.54300  0.44710  Biso   1.000  H
  C9       1.0000 0.14260  0.06490  0.11220  Biso   1.000  C
  C10      1.0000 0.85740  0.56490  0.38780  Biso   1.000  C
  C11      1.0000 0.85740  0.93510  0.88780  Biso   1.000  C
  C12      1.0000 0.14260  0.43510  0.61220  Biso   1.000  C
  H5       1.0000 0.11210  0.12060  0.09510  Biso   1.000  H
  H6       1.0000 0.88790  0.62060  0.40490  Biso   1.000  H
  H7       1.0000 0.88790  0.87940  0.90490  Biso   1.000  H
  H8       1.0000 0.11210  0.37940  0.59510  Biso   1.000  H
  N13      1.0000 0.98260  0.82450  0.08790  Biso   1.000  N
  N14      1.0000 0.01740  0.32450  0.41210  Biso   1.000  N
  N15      1.0000 0.01740  0.17550  0.91210  Biso   1.000  N
  N16      1.0000 0.98260  0.67550  0.58790  Biso   1.000  N
  C13      1.0000 0.26660  0.82660  0.84380  Biso   1.000  C
  C14      1.0000 0.73340  0.32660  0.65620  Biso   1.000  C
  C15      1.0000 0.73340  0.17340  0.15620  Biso   1.000  C
  C16      1.0000 0.26660  0.67340  0.34380  Biso   1.000  C
  N17      1.0000 0.25740  0.64490  0.18990  Biso   1.000  N
  N18      1.0000 0.74260  0.14490  0.31010  Biso   1.000  N
  N19      1.0000 0.74260  0.35510  0.81010  Biso   1.000  N
  N20      1.0000 0.25740  0.85510  0.68990  Biso   1.000  N
  C17      1.0000 0.15240  0.77850  0.98710  Biso   1.000  C
  C18      1.0000 0.84760  0.27850  0.51290  Biso   1.000  C
  C19      1.0000 0.84760  0.22150  0.01290  Biso   1.000  C
  C20      1.0000 0.15240  0.72150  0.48710  Biso   1.000  C
  N21      1.0000 0.36850  0.81600  0.21480  Biso   1.000  N
  N22      1.0000 0.63150  0.31600  0.28520  Biso   1.000  N
  N23      1.0000 0.63150  0.18400  0.78520  Biso   1.000  N
  N24      1.0000 0.36850  0.68400  0.71480  Biso   1.000  N
  N25      1.0000 0.41070  0.57200  0.89770  Biso   1.000  N
  N26      1.0000 0.58930  0.07200  0.60230  Biso   1.000  N
  N27      1.0000 0.58930  0.42800  0.10230  Biso   1.000  N
  N28      1.0000 0.41070  0.92800  0.39770  Biso   1.000  N
  C21      1.0000 0.31250  0.73480  0.04400  Biso   1.000  C
  C22      1.0000 0.68750  0.23480  0.45600  Biso   1.000  C
  C23      1.0000 0.68750  0.26520  0.95600  Biso   1.000  C
  C24      1.0000 0.31250  0.76520  0.54400  Biso   1.000  C
  C25      1.0000 0.21540  0.74000  0.82730  Biso   1.000  C
  C26      1.0000 0.78460  0.24000  0.67270  Biso   1.000  C
  C27      1.0000 0.78460  0.26000  0.17270  Biso   1.000  C
  C28      1.0000 0.21540  0.76000  0.32730  Biso   1.000  C
  N29      1.0000 0.22370  0.91090  0.82700  Biso   1.000  N
  N30      1.0000 0.77630  0.41090  0.67300  Biso   1.000  N
  N31      1.0000 0.77630  0.08910  0.17300  Biso   1.000  N
  N32      1.0000 0.22370  0.58910  0.32700  Biso   1.000  N
  C29      1.0000 0.36360  0.82740  0.88140  Biso   1.000  C
  C30      1.0000 0.63640  0.32740  0.61860  Biso   1.000  C
  C31      1.0000 0.63640  0.17260  0.11860  Biso   1.000  C
  C32      1.0000 0.36360  0.67260  0.38140  Biso   1.000  C
  C33      1.0000 0.21770  0.72950  0.17130  Biso   1.000  C
  C34      1.0000 0.78230  0.22950  0.32870  Biso   1.000  C
  C35      1.0000 0.78230  0.27050  0.82870  Biso   1.000  C
  C36      1.0000 0.21770  0.77050  0.67130  Biso   1.000  C
  C37      1.0000 0.13500  0.90460  0.12900  Biso   1.000  C
  C38      1.0000 0.86500  0.40460  0.37100  Biso   1.000  C
  C39      1.0000 0.86500  0.09540  0.87100  Biso   1.000  C
  C40      1.0000 0.13500  0.59540  0.62900  Biso   1.000  C
  N33      1.0000 0.88940  0.82920  0.73320  Biso   1.000  N
  N34      1.0000 0.11060  0.32920  0.76680  Biso   1.000  N
  N35      1.0000 0.11060  0.17080  0.26680  Biso   1.000  N
  N36      1.0000 0.88940  0.67080  0.23320  Biso   1.000  N
  N37      1.0000 0.03390  0.06770  0.77470  Biso   1.000  N
  N38      1.0000 0.96610  0.56770  0.72530  Biso   1.000  N
  N39      1.0000 0.96610  0.93230  0.22530  Biso   1.000  N
  N40      1.0000 0.03390  0.43230  0.27470  Biso   1.000  N
  C41      1.0000 0.26600  0.64900  0.84390  Biso   1.000  C
  C42      1.0000 0.73400  0.14900  0.65610  Biso   1.000  C
  C43      1.0000 0.73400  0.35100  0.15610  Biso   1.000  C
  C44      1.0000 0.26600  0.85100  0.34390  Biso   1.000  C
  C45      1.0000 0.28360  0.48150  0.84090  Biso   1.000  C
  C46      1.0000 0.71640  0.98150  0.65910  Biso   1.000  C
  C47      1.0000 0.71640  0.51850  0.15910  Biso   1.000  C
  C48      1.0000 0.28360  0.01850  0.34090  Biso   1.000  C
  H9       1.0000 0.25920  0.42090  0.82790  Biso   1.000  H
  H10      1.0000 0.74080  0.92090  0.67210  Biso   1.000  H
  H11      1.0000 0.74080  0.57910  0.17210  Biso   1.000  H
  H12      1.0000 0.25920  0.07910  0.32790  Biso   1.000  H
  C49      1.0000 0.40520  0.74020  0.90010  Biso   1.000  C
  C50      1.0000 0.59480  0.24020  0.59990  Biso   1.000  C
  C51      1.0000 0.59480  0.25980  0.09990  Biso   1.000  C
  C52      1.0000 0.40520  0.75980  0.40010  Biso   1.000  C
  C53      1.0000 0.92570  0.74650  0.07570  Biso   1.000  C
  C54      1.0000 0.07430  0.24650  0.42430  Biso   1.000  C
  C55      1.0000 0.07430  0.25350  0.92430  Biso   1.000  C
  C56      1.0000 0.92570  0.75350  0.57570  Biso   1.000  C
  H13      1.0000 0.85900  0.75180  0.05440  Biso   1.000  H
  H14      1.0000 0.14100  0.25180  0.44560  Biso   1.000  H
  H15      1.0000 0.14100  0.24820  0.94560  Biso   1.000  H
  H16      1.0000 0.85900  0.74820  0.55440  Biso   1.000  H
  C57      1.0000 0.05790  0.64770  0.12510  Biso   1.000  C
  C58      1.0000 0.94210  0.14770  0.37490  Biso   1.000  C
  C59      1.0000 0.94210  0.35230  0.87490  Biso   1.000  C
  C60      1.0000 0.05790  0.85230  0.62510  Biso   1.000  C
  H17      1.0000 0.08380  0.58710  0.13720  Biso   1.000  H
  H18      1.0000 0.91620  0.08710  0.36280  Biso   1.000  H
  H19      1.0000 0.91620  0.41290  0.86280  Biso   1.000  H
  H20      1.0000 0.08380  0.91290  0.63720  Biso   1.000  H
  C61      1.0000 0.24060  0.07100  0.14420  Biso   1.000  C
  C62      1.0000 0.75940  0.57100  0.35580  Biso   1.000  C
  C63      1.0000 0.75940  0.92900  0.85580  Biso   1.000  C
  C64      1.0000 0.24060  0.42900  0.64420  Biso   1.000  C
  H21      1.0000 0.27560  0.13040  0.14870  Biso   1.000  H
  H22      1.0000 0.72440  0.63040  0.35130  Biso   1.000  H
  H23      1.0000 0.72440  0.86960  0.85130  Biso   1.000  H
  H24      1.0000 0.27560  0.36960  0.64870  Biso   1.000  H
  C65      1.0000 0.96280  0.65660  0.09390  Biso   1.000  C
  C66      1.0000 0.03720  0.15660  0.40610  Biso   1.000  C
  C67      1.0000 0.03720  0.34340  0.90610  Biso   1.000  C
  C68      1.0000 0.96280  0.84340  0.59390  Biso   1.000  C
  H25      1.0000 0.92140  0.60180  0.08430  Biso   1.000  H
  H26      1.0000 0.07860  0.10180  0.41570  Biso   1.000  H
  H27      1.0000 0.07860  0.39820  0.91570  Biso   1.000  H
  H28      1.0000 0.92140  0.89820  0.58430  Biso   1.000  H
  C69      1.0000 0.07670  0.81690  0.11910  Biso   1.000  C
  C70      1.0000 0.92330  0.31690  0.38090  Biso   1.000  C
  C71      1.0000 0.92330  0.18310  0.88090  Biso   1.000  C
  C72      1.0000 0.07670  0.68310  0.61910  Biso   1.000  C
  C73      1.0000 0.35300  0.64680  0.21800  Biso   1.000  C
  C74      1.0000 0.64700  0.14680  0.28200  Biso   1.000  C
  C75      1.0000 0.64700  0.35320  0.78200  Biso   1.000  C
  C76      1.0000 0.35300  0.85320  0.71800  Biso   1.000  C
  C77      1.0000 0.97270  0.82310  0.75430  Biso   1.000  C
  C78      1.0000 0.02730  0.32310  0.74570  Biso   1.000  C
  C79      1.0000 0.02730  0.17690  0.24570  Biso   1.000  C
  C80      1.0000 0.97270  0.67690  0.25430  Biso   1.000  C
  C81      1.0000 0.12590  0.68200  0.97970  Biso   1.000  C
  C82      1.0000 0.87410  0.18200  0.52030  Biso   1.000  C
  C83      1.0000 0.87410  0.31800  0.02030  Biso   1.000  C
  C84      1.0000 0.12590  0.81800  0.47970  Biso   1.000  C
  C85      1.0000 0.35690  0.55800  0.06000  Biso   1.000  C
  C86      1.0000 0.64310  0.05800  0.44000  Biso   1.000  C
  C87      1.0000 0.64310  0.44200  0.94000  Biso   1.000  C
  C88      1.0000 0.35690  0.94200  0.56000  Biso   1.000  C
  C89      1.0000 0.07760  0.82220  0.78410  Biso   1.000  C
  C90      1.0000 0.92240  0.32220  0.71590  Biso   1.000  C
  C91      1.0000 0.92240  0.17780  0.21590  Biso   1.000  C
  C92      1.0000 0.07760  0.67780  0.28410  Biso   1.000  C
  N41      1.0000 0.58440  0.72410  0.29500  Biso   1.000  N
  N42      1.0000 0.41560  0.22410  0.20500  Biso   1.000  N
  N43      1.0000 0.41560  0.27590  0.70500  Biso   1.000  N
  N44      1.0000 0.58440  0.77590  0.79500  Biso   1.000  N
  C93      1.0000 0.28630  0.63930  0.03690  Biso   1.000  C
  C94      1.0000 0.71370  0.13930  0.46310  Biso   1.000  C
  C95      1.0000 0.71370  0.36070  0.96310  Biso   1.000  C
  C96      1.0000 0.28630  0.86070  0.53690  Biso   1.000  C
  C97      1.0000 0.41040  0.76130  0.07850  Biso   1.000  C
  C98      1.0000 0.58960  0.26130  0.42150  Biso   1.000  C
  C99      1.0000 0.58960  0.23870  0.92150  Biso   1.000  C
  C100     1.0000 0.41040  0.73870  0.57850  Biso   1.000  C
  C101     1.0000 0.22700  0.56170  0.82370  Biso   1.000  C
  C102     1.0000 0.77300  0.06170  0.67630  Biso   1.000  C
  C103     1.0000 0.77300  0.43830  0.17630  Biso   1.000  C
  C104     1.0000 0.22700  0.93830  0.32370  Biso   1.000  C
  H29      1.0000 0.16400  0.55760  0.79890  Biso   1.000  H
  H30      1.0000 0.83600  0.05760  0.70110  Biso   1.000  H
  H31      1.0000 0.83600  0.44240  0.20110  Biso   1.000  H
  H32      1.0000 0.16400  0.94240  0.29890  Biso   1.000  H
  C105     1.0000 0.28610  0.99180  0.16880  Biso   1.000  C
  C106     1.0000 0.71390  0.49180  0.33120  Biso   1.000  C
  C107     1.0000 0.71390  0.00820  0.83120  Biso   1.000  C
  C108     1.0000 0.28610  0.50820  0.66880  Biso   1.000  C
  H33      1.0000 0.35230  0.99540  0.19080  Biso   1.000  H
  H34      1.0000 0.64770  0.49540  0.30920  Biso   1.000  H
  H35      1.0000 0.64770  0.00460  0.80920  Biso   1.000  H
  H36      1.0000 0.35230  0.50460  0.69080  Biso   1.000  H
  C109     1.0000 0.50640  0.72980  0.26580  Biso   1.000  C
  C110     1.0000 0.49360  0.22980  0.23420  Biso   1.000  C
  C111     1.0000 0.49360  0.27020  0.73420  Biso   1.000  C
  C112     1.0000 0.50640  0.77020  0.76580  Biso   1.000  C
  C113     1.0000 0.13010  0.90900  0.79840  Biso   1.000  C
  C114     1.0000 0.86990  0.40900  0.70160  Biso   1.000  C
  C115     1.0000 0.86990  0.09100  0.20160  Biso   1.000  C
  C116     1.0000 0.13010  0.59100  0.29840  Biso   1.000  C
  C117     1.0000 0.41840  0.90930  0.89920  Biso   1.000  C
  C118     1.0000 0.58160  0.40930  0.60080  Biso   1.000  C
  C119     1.0000 0.58160  0.09070  0.10080  Biso   1.000  C
  C120     1.0000 0.41840  0.59070  0.39920  Biso   1.000  C
  H37      1.0000 0.39340  0.96990  0.88660  Biso   1.000  H
  H38      1.0000 0.60660  0.46990  0.61340  Biso   1.000  H
  H39      1.0000 0.60660  0.03010  0.11340  Biso   1.000  H
  H40      1.0000 0.39340  0.53010  0.38660  Biso   1.000  H
  C121     1.0000 0.11640  0.73010  0.13900  Biso   1.000  C
  C122     1.0000 0.88360  0.23010  0.36100  Biso   1.000  C
  C123     1.0000 0.88360  0.26990  0.86100  Biso   1.000  C
  C124     1.0000 0.11640  0.76990  0.63900  Biso   1.000  C
  C125     1.0000 0.02670  0.64990  0.94680  Biso   1.000  C
  C126     1.0000 0.97330  0.14990  0.55320  Biso   1.000  C
  C127     1.0000 0.97330  0.35010  0.05320  Biso   1.000  C
  C128     1.0000 0.02670  0.85010  0.44680  Biso   1.000  C
  C129     1.0000 0.19350  0.61410  0.00530  Biso   1.000  C
  C130     1.0000 0.80650  0.11410  0.49470  Biso   1.000  C
  C131     1.0000 0.80650  0.38590  0.99470  Biso   1.000  C
  C132     1.0000 0.19350  0.88590  0.50530  Biso   1.000  C
  H41      1.0000 0.17580  0.54880  0.00100  Biso   1.000  H
  H42      1.0000 0.82420  0.04880  0.49900  Biso   1.000  H
  H43      1.0000 0.82420  0.45120  0.99900  Biso   1.000  H
  H44      1.0000 0.17580  0.95120  0.50100  Biso   1.000  H
  N45      1.0000 0.44230  0.48660  0.25030  Biso   1.000  N
  N46      1.0000 0.55770  0.98660  0.24970  Biso   1.000  N
  N47      1.0000 0.55770  0.51340  0.74970  Biso   1.000  N
  N48      1.0000 0.44230  0.01340  0.75030  Biso   1.000  N
  C133     1.0000 0.23320  0.90490  0.16100  Biso   1.000  C
  C134     1.0000 0.76680  0.40490  0.33900  Biso   1.000  C
  C135     1.0000 0.76680  0.09510  0.83900  Biso   1.000  C
  C136     1.0000 0.23320  0.59510  0.66100  Biso   1.000  C
  C137     1.0000 0.40780  0.73140  0.23170  Biso   1.000  C
  C138     1.0000 0.59220  0.23140  0.26830  Biso   1.000  C
  C139     1.0000 0.59220  0.26860  0.76830  Biso   1.000  C
  C140     1.0000 0.40780  0.76860  0.73170  Biso   1.000  C
  C141     1.0000 0.24500  0.80460  0.01860  Biso   1.000  C
  C142     1.0000 0.75500  0.30460  0.48140  Biso   1.000  C
  C143     1.0000 0.75500  0.19540  0.98140  Biso   1.000  C
  C144     1.0000 0.24500  0.69540  0.51860  Biso   1.000  C
  H45      1.0000 0.26280  0.86980  0.02310  Biso   1.000  H
  H46      1.0000 0.73720  0.36980  0.47690  Biso   1.000  H
  H47      1.0000 0.73720  0.13020  0.97690  Biso   1.000  H
  H48      1.0000 0.26280  0.63020  0.52310  Biso   1.000  H
  C145     1.0000 0.07910  0.99830  0.78510  Biso   1.000  C
  C146     1.0000 0.92090  0.49830  0.71490  Biso   1.000  C
  C147     1.0000 0.92090  0.00170  0.21490  Biso   1.000  C
  C148     1.0000 0.07910  0.50170  0.28510  Biso   1.000  C
  C149     1.0000 0.08770  0.85450  0.95410  Biso   1.000  C
  C150     1.0000 0.91230  0.35450  0.54590  Biso   1.000  C
  C151     1.0000 0.91230  0.14550  0.04590  Biso   1.000  C
  C152     1.0000 0.08770  0.64550  0.45410  Biso   1.000  C
  C153     1.0000 0.40080  0.55590  0.23530  Biso   1.000  C
  C154     1.0000 0.59920  0.05590  0.26470  Biso   1.000  C
  C155     1.0000 0.59920  0.44410  0.76470  Biso   1.000  C
  C156     1.0000 0.40080  0.94410  0.73530  Biso   1.000  C
  C157     1.0000 0.27490  0.81520  0.18360  Biso   1.000  C
  C158     1.0000 0.72510  0.31520  0.31640  Biso   1.000  C
  C159     1.0000 0.72510  0.18480  0.81640  Biso   1.000  C
  C160     1.0000 0.27490  0.68480  0.68360  Biso   1.000  C
  C161     1.0000 0.54330  0.81220  0.95340  Biso   1.000  C
  C162     1.0000 0.45670  0.31220  0.54660  Biso   1.000  C
  C163     1.0000 0.45670  0.18780  0.04660  Biso   1.000  C
  C164     1.0000 0.54330  0.68780  0.45340  Biso   1.000  C
  H49      1.0000 0.60500  0.80810  0.97910  Biso   1.000  H
  H50      1.0000 0.39500  0.30810  0.52090  Biso   1.000  H
  H51      1.0000 0.39500  0.19190  0.02090  Biso   1.000  H
  H52      1.0000 0.60500  0.69190  0.47910  Biso   1.000  H
  O1       1.0000 0.43370  0.53890  0.03240  Biso   1.000  O
  O2       1.0000 0.56630  0.03890  0.46760  Biso   1.000  O
  O3       1.0000 0.56630  0.46110  0.96760  Biso   1.000  O
  O4       1.0000 0.43370  0.96110  0.53240  Biso   1.000  O
  O5       1.0000 0.45810  0.70440  0.11100  Biso   1.000  O
  O6       1.0000 0.54190  0.20440  0.38900  Biso   1.000  O
  O7       1.0000 0.54190  0.29560  0.88900  Biso   1.000  O
  O8       1.0000 0.45810  0.79560  0.61100  Biso   1.000  O
  O9       1.0000 0.08010  0.85140  0.90240  Biso   1.000  O
  O10      1.0000 0.91990  0.35140  0.59760  Biso   1.000  O
  O11      1.0000 0.91990  0.14860  0.09760  Biso   1.000  O
  O12      1.0000 0.08010  0.64860  0.40240  Biso   1.000  O
  O13      1.0000 0.94720  0.70610  0.94940  Biso   1.000  O
  O14      1.0000 0.05280  0.20610  0.55060  Biso   1.000  O
  O15      1.0000 0.05280  0.29390  0.05060  Biso   1.000  O
  O16      1.0000 0.94720  0.79390  0.44940  Biso   1.000  O
  H53      1.0000 0.89430  0.68380  0.93010  Biso   1.000  H
  H54      1.0000 0.10570  0.18380  0.56990  Biso   1.000  H
  H55      1.0000 0.10570  0.31620  0.06990  Biso   1.000  H
  H56      1.0000 0.89430  0.81620  0.43010  Biso   1.000  H
  O17      1.0000 0.05310  0.92300  0.98240  Biso   1.000  O
  O18      1.0000 0.94690  0.42300  0.51760  Biso   1.000  O
  O19      1.0000 0.94690  0.07700  0.01760  Biso   1.000  O
  O20      1.0000 0.05310  0.57700  0.48240  Biso   1.000  O
  O21      1.0000 0.02270  0.57490  0.92130  Biso   1.000  O
  O22      1.0000 0.97730  0.07490  0.57870  Biso   1.000  O
  O23      1.0000 0.97730  0.42510  0.07870  Biso   1.000  O
  O24      1.0000 0.02270  0.92510  0.42130  Biso   1.000  O
  O25      1.0000 0.44080  0.84820  0.07340  Biso   1.000  O
  O26      1.0000 0.55920  0.34820  0.42660  Biso   1.000  O
  O27      1.0000 0.55920  0.15180  0.92660  Biso   1.000  O
  O28      1.0000 0.44080  0.65180  0.57340  Biso   1.000  O
  H57      1.0000 0.49680  0.85730  0.09430  Biso   1.000  H
  H58      1.0000 0.50320  0.35730  0.40570  Biso   1.000  H
  H59      1.0000 0.50320  0.14270  0.90570  Biso   1.000  H
  H60      1.0000 0.49680  0.64270  0.59430  Biso   1.000  H
  O29      1.0000 0.32870  0.51050  0.09940  Biso   1.000  O
  O30      1.0000 0.67130  0.01050  0.40060  Biso   1.000  O
  O31      1.0000 0.67130  0.48950  0.90060  Biso   1.000  O
  O32      1.0000 0.32870  0.98950  0.59940  Biso   1.000  O
  C165     1.0000 0.37580  0.48830  0.87710  Biso   1.000  C
  C166     1.0000 0.62420  0.98830  0.62290  Biso   1.000  C
  C167     1.0000 0.62420  0.51170  0.12290  Biso   1.000  C
  C168     1.0000 0.37580  0.01170  0.37710  Biso   1.000  C
  H61      1.0000 0.41470  0.43240  0.88740  Biso   1.000  H
  H62      1.0000 0.58530  0.93240  0.61260  Biso   1.000  H
  H63      1.0000 0.58530  0.56760  0.11260  Biso   1.000  H
  H64      1.0000 0.41470  0.06760  0.38740  Biso   1.000  H
  O33      1.0000 0.17850  0.43890  0.13860  Biso   1.000  O
  O34      1.0000 0.82150  0.93890  0.36140  Biso   1.000  O
  O35      1.0000 0.82150  0.56110  0.86140  Biso   1.000  O
  O36      1.0000 0.17850  0.06110  0.63860  Biso   1.000  O
  H65      1.0000 0.11460  0.44640  0.12710  Biso   1.000  H
  H66      1.0000 0.88540  0.94640  0.37290  Biso   1.000  H
  H67      1.0000 0.88540  0.55360  0.87290  Biso   1.000  H
  H68      1.0000 0.11460  0.05360  0.62710  Biso   1.000  H
  C169     1.0000 0.18870  0.36630  0.16990  Biso   1.000  C
  C170     1.0000 0.81130  0.86630  0.33010  Biso   1.000  C
  C171     1.0000 0.81130  0.63370  0.83010  Biso   1.000  C
  C172     1.0000 0.18870  0.13370  0.66990  Biso   1.000  C
  H69      1.0000 0.23270  0.33100  0.19880  Biso   1.000  H
  H70      1.0000 0.76730  0.83100  0.30120  Biso   1.000  H
  H71      1.0000 0.76730  0.66900  0.80120  Biso   1.000  H
  H72      1.0000 0.23270  0.16900  0.69880  Biso   1.000  H
  H73      1.0000 0.11430  0.35170  0.17280  Biso   1.000  H
  H74      1.0000 0.88570  0.85170  0.32720  Biso   1.000  H
  H75      1.0000 0.88570  0.64830  0.82720  Biso   1.000  H
  H76      1.0000 0.11430  0.14830  0.67280  Biso   1.000  H
  H77      1.0000 0.20060  0.43450  0.17540  Biso   1.000  H
  H78      1.0000 0.79940  0.93450  0.32460  Biso   1.000  H
  H79      1.0000 0.79940  0.56550  0.82460  Biso   1.000  H
  H80      1.0000 0.20060  0.06550  0.67540  Biso   1.000  H
  O37      1.0000 0.21510  0.34030  0.11700  Biso   1.000  O
  O38      1.0000 0.78490  0.84030  0.38300  Biso   1.000  O
  O39      1.0000 0.78490  0.65970  0.88300  Biso   1.000  O
  O40      1.0000 0.21510  0.15970  0.61700  Biso   1.000  O
  H81      1.0000 0.26690  0.37260  0.10890  Biso   1.000  H
  H82      1.0000 0.73310  0.87260  0.39110  Biso   1.000  H
  H83      1.0000 0.73310  0.62740  0.89110  Biso   1.000  H
  H84      1.0000 0.26690  0.12740  0.60890  Biso   1.000  H
  C173     1.0000 0.68710  0.81160  0.16210  Biso   1.000  C
  C174     1.0000 0.31290  0.31160  0.33790  Biso   1.000  C
  C175     1.0000 0.31290  0.18840  0.83790  Biso   1.000  C
  C176     1.0000 0.68710  0.68840  0.66210  Biso   1.000  C
  H85      1.0000 0.75700  0.83980  0.17130  Biso   1.000  H
  H86      1.0000 0.24300  0.33980  0.32870  Biso   1.000  H
  H87      1.0000 0.24300  0.16020  0.82870  Biso   1.000  H
  H88      1.0000 0.75700  0.66020  0.67130  Biso   1.000  H
  H89      1.0000 0.69470  0.74880  0.14520  Biso   1.000  H
  H90      1.0000 0.30530  0.24880  0.35480  Biso   1.000  H
  H91      1.0000 0.30530  0.25120  0.85480  Biso   1.000  H
  H92      1.0000 0.69470  0.75120  0.64520  Biso   1.000  H
  H93      1.0000 0.65180  0.80510  0.19650  Biso   1.000  H
  H94      1.0000 0.34820  0.30510  0.30350  Biso   1.000  H
  H95      1.0000 0.34820  0.19490  0.80350  Biso   1.000  H
  H96      1.0000 0.65180  0.69490  0.69650  Biso   1.000  H
  H97      1.0000 0.26370  0.35100  0.17790  Biso   1.000  H
  H98      1.0000 0.73630  0.85100  0.32210  Biso   1.000  H
  H99      1.0000 0.73630  0.64900  0.82210  Biso   1.000  H
  H100     1.0000 0.26370  0.14900  0.67790  Biso   1.000  H
  H101     1.0000 0.15190  0.31250  0.15070  Biso   1.000  H
  H102     1.0000 0.84810  0.81250  0.34930  Biso   1.000  H
  H103     1.0000 0.84810  0.68750  0.84930  Biso   1.000  H
  H104     1.0000 0.15190  0.18750  0.65070  Biso   1.000  H
  H105     1.0000 0.15840  0.37910  0.20530  Biso   1.000  H
  H106     1.0000 0.84160  0.87910  0.29470  Biso   1.000  H
  H107     1.0000 0.84160  0.62090  0.79470  Biso   1.000  H
  H108     1.0000 0.15840  0.12090  0.70530  Biso   1.000  H
  O41      1.0000 0.63030  0.86680  0.12600  Biso   1.000  O
  O42      1.0000 0.36970  0.36680  0.37400  Biso   1.000  O
  O43      1.0000 0.36970  0.13320  0.87400  Biso   1.000  O
  O44      1.0000 0.63030  0.63320  0.62600  Biso   1.000  O
  H109     1.0000 0.65950  0.87070  0.09610  Biso   1.000  H
  H110     1.0000 0.34050  0.37070  0.40390  Biso   1.000  H
  H111     1.0000 0.34050  0.12930  0.90390  Biso   1.000  H
  H112     1.0000 0.65950  0.62930  0.59610  Biso   1.000  H
