data_image0
_cell_length_a       27.749
_cell_length_b       8.5517
_cell_length_c       12.9344
_cell_angle_alpha    90
_cell_angle_beta     114.571
_cell_angle_gamma    90

_symmetry_space_group_name_H-M    "P 1"
_symmetry_int_tables_number       1

loop_
  _symmetry_equiv_pos_as_xyz
  'x, y, z'

loop_
  _atom_site_label
  _atom_site_occupancy
  _atom_site_fract_x
  _atom_site_fract_y
  _atom_site_fract_z
  _atom_site_thermal_displace_type
  _atom_site_B_iso_or_equiv
  _atom_site_type_symbol
  C1       1.0000 0.38793  0.27270  0.10340  Biso   1.000  C
  C2       1.0000 0.88793  0.77270  0.10340  Biso   1.000  C
  C3       1.0000 0.61207  0.27270  0.39660  Biso   1.000  C
  C4       1.0000 0.11207  0.77270  0.39660  Biso   1.000  C
  C5       1.0000 0.61207  0.72730  0.89660  Biso   1.000  C
  C6       1.0000 0.11207  0.22730  0.89660  Biso   1.000  C
  C7       1.0000 0.38793  0.72730  0.60340  Biso   1.000  C
  C8       1.0000 0.88793  0.22730  0.60340  Biso   1.000  C
  C9       1.0000 0.33910  0.16800  0.05730  Biso   1.000  C
  C10      1.0000 0.83910  0.66800  0.05730  Biso   1.000  C
  C11      1.0000 0.66090  0.16800  0.44270  Biso   1.000  C
  C12      1.0000 0.16090  0.66800  0.44270  Biso   1.000  C
  C13      1.0000 0.66090  0.83200  0.94270  Biso   1.000  C
  C14      1.0000 0.16090  0.33200  0.94270  Biso   1.000  C
  C15      1.0000 0.33910  0.83200  0.55730  Biso   1.000  C
  C16      1.0000 0.83910  0.33200  0.55730  Biso   1.000  C
  C17      1.0000 0.31631  0.16120  0.94070  Biso   1.000  C
  C18      1.0000 0.81631  0.66120  0.94070  Biso   1.000  C
  C19      1.0000 0.68369  0.16120  0.55930  Biso   1.000  C
  C20      1.0000 0.18369  0.66120  0.55930  Biso   1.000  C
  C21      1.0000 0.68369  0.83880  0.05930  Biso   1.000  C
  C22      1.0000 0.18369  0.33880  0.05930  Biso   1.000  C
  C23      1.0000 0.31631  0.83880  0.44070  Biso   1.000  C
  C24      1.0000 0.81631  0.33880  0.44070  Biso   1.000  C
  C25      1.0000 0.27185  0.07230  0.88080  Biso   1.000  C
  C26      1.0000 0.77185  0.57230  0.88080  Biso   1.000  C
  C27      1.0000 0.72815  0.07230  0.61920  Biso   1.000  C
  C28      1.0000 0.22815  0.57230  0.61920  Biso   1.000  C
  C29      1.0000 0.72815  0.92770  0.11920  Biso   1.000  C
  C30      1.0000 0.22815  0.42770  0.11920  Biso   1.000  C
  C31      1.0000 0.27185  0.92770  0.38080  Biso   1.000  C
  C32      1.0000 0.77185  0.42770  0.38080  Biso   1.000  C
  H1       1.0000 0.25680  0.06850  0.80180  Biso   1.000  H
  H2       1.0000 0.75680  0.56850  0.80180  Biso   1.000  H
  H3       1.0000 0.74320  0.06850  0.69820  Biso   1.000  H
  H4       1.0000 0.24320  0.56850  0.69820  Biso   1.000  H
  H5       1.0000 0.74320  0.93150  0.19820  Biso   1.000  H
  H6       1.0000 0.24320  0.43150  0.19820  Biso   1.000  H
  H7       1.0000 0.25680  0.93150  0.30180  Biso   1.000  H
  H8       1.0000 0.75680  0.43150  0.30180  Biso   1.000  H
  C33      1.0000 0.25086  0.98910  0.94410  Biso   1.000  C
  C34      1.0000 0.75086  0.48910  0.94410  Biso   1.000  C
  C35      1.0000 0.74914  0.98910  0.55590  Biso   1.000  C
  C36      1.0000 0.24914  0.48910  0.55590  Biso   1.000  C
  C37      1.0000 0.74914  0.01090  0.05590  Biso   1.000  C
  C38      1.0000 0.24914  0.51090  0.05590  Biso   1.000  C
  C39      1.0000 0.25086  0.01090  0.44410  Biso   1.000  C
  C40      1.0000 0.75086  0.51090  0.44410  Biso   1.000  C
  H9       1.0000 0.22080  0.92830  0.90660  Biso   1.000  H
  H10      1.0000 0.72080  0.42830  0.90660  Biso   1.000  H
  H11      1.0000 0.77920  0.92830  0.59340  Biso   1.000  H
  H12      1.0000 0.27920  0.42830  0.59340  Biso   1.000  H
  H13      1.0000 0.77920  0.07170  0.09340  Biso   1.000  H
  H14      1.0000 0.27920  0.57170  0.09340  Biso   1.000  H
  H15      1.0000 0.22080  0.07170  0.40660  Biso   1.000  H
  H16      1.0000 0.72080  0.57170  0.40660  Biso   1.000  H
  C41      1.0000 0.27298  0.99380  0.05930  Biso   1.000  C
  C42      1.0000 0.77298  0.49380  0.05930  Biso   1.000  C
  C43      1.0000 0.72702  0.99380  0.44070  Biso   1.000  C
  C44      1.0000 0.22702  0.49380  0.44070  Biso   1.000  C
  C45      1.0000 0.72702  0.00620  0.94070  Biso   1.000  C
  C46      1.0000 0.22702  0.50620  0.94070  Biso   1.000  C
  C47      1.0000 0.27298  0.00620  0.55930  Biso   1.000  C
  C48      1.0000 0.77298  0.50620  0.55930  Biso   1.000  C
  H17      1.0000 0.25780  0.93620  0.09910  Biso   1.000  H
  H18      1.0000 0.75780  0.43620  0.09910  Biso   1.000  H
  H19      1.0000 0.74220  0.93620  0.40090  Biso   1.000  H
  H20      1.0000 0.24220  0.43620  0.40090  Biso   1.000  H
  H21      1.0000 0.74220  0.06380  0.90090  Biso   1.000  H
  H22      1.0000 0.24220  0.56380  0.90090  Biso   1.000  H
  H23      1.0000 0.25780  0.06380  0.59910  Biso   1.000  H
  H24      1.0000 0.75780  0.56380  0.59910  Biso   1.000  H
  C49      1.0000 0.31794  0.08310  0.11940  Biso   1.000  C
  C50      1.0000 0.81794  0.58310  0.11940  Biso   1.000  C
  C51      1.0000 0.68206  0.08310  0.38060  Biso   1.000  C
  C52      1.0000 0.18206  0.58310  0.38060  Biso   1.000  C
  C53      1.0000 0.68206  0.91690  0.88060  Biso   1.000  C
  C54      1.0000 0.18206  0.41690  0.88060  Biso   1.000  C
  C55      1.0000 0.31794  0.91690  0.61940  Biso   1.000  C
  C56      1.0000 0.81794  0.41690  0.61940  Biso   1.000  C
  H25      1.0000 0.33320  0.08560  0.19840  Biso   1.000  H
  H26      1.0000 0.83320  0.58560  0.19840  Biso   1.000  H
  H27      1.0000 0.66680  0.08560  0.30160  Biso   1.000  H
  H28      1.0000 0.16680  0.58560  0.30160  Biso   1.000  H
  H29      1.0000 0.66680  0.91440  0.80160  Biso   1.000  H
  H30      1.0000 0.16680  0.41440  0.80160  Biso   1.000  H
  H31      1.0000 0.33320  0.91440  0.69840  Biso   1.000  H
  H32      1.0000 0.83320  0.41440  0.69840  Biso   1.000  H
  C57      1.0000 0.48910  0.79720  0.99990  Biso   1.000  C
  C58      1.0000 0.98910  0.29720  0.99990  Biso   1.000  C
  C59      1.0000 0.51090  0.79720  0.50010  Biso   1.000  C
  C60      1.0000 0.01090  0.29720  0.50010  Biso   1.000  C
  C61      1.0000 0.51090  0.20280  0.00010  Biso   1.000  C
  C62      1.0000 0.01090  0.70280  0.00010  Biso   1.000  C
  C63      1.0000 0.48910  0.20280  0.49990  Biso   1.000  C
  C64      1.0000 0.98910  0.70280  0.49990  Biso   1.000  C
  H33      1.0000 0.46870  0.83060  0.92210  Biso   1.000  H
  H34      1.0000 0.96870  0.33060  0.92210  Biso   1.000  H
  H35      1.0000 0.53130  0.83060  0.57790  Biso   1.000  H
  H36      1.0000 0.03130  0.33060  0.57790  Biso   1.000  H
  H37      1.0000 0.53130  0.16940  0.07790  Biso   1.000  H
  H38      1.0000 0.03130  0.66940  0.07790  Biso   1.000  H
  H39      1.0000 0.46870  0.16940  0.42210  Biso   1.000  H
  H40      1.0000 0.96870  0.66940  0.42210  Biso   1.000  H
  H41      1.0000 0.52150  0.85800  0.03190  Biso   1.000  H
  H42      1.0000 0.02150  0.35800  0.03190  Biso   1.000  H
  H43      1.0000 0.47850  0.85800  0.46810  Biso   1.000  H
  H44      1.0000 0.97850  0.35800  0.46810  Biso   1.000  H
  H45      1.0000 0.47850  0.14200  0.96810  Biso   1.000  H
  H46      1.0000 0.97850  0.64200  0.96810  Biso   1.000  H
  H47      1.0000 0.52150  0.14200  0.53190  Biso   1.000  H
  H48      1.0000 0.02150  0.64200  0.53190  Biso   1.000  H
  C65      1.0000 0.45720  0.81740  0.06990  Biso   1.000  C
  C66      1.0000 0.95720  0.31740  0.06990  Biso   1.000  C
  C67      1.0000 0.54280  0.81740  0.43010  Biso   1.000  C
  C68      1.0000 0.04280  0.31740  0.43010  Biso   1.000  C
  C69      1.0000 0.54280  0.18260  0.93010  Biso   1.000  C
  C70      1.0000 0.04280  0.68260  0.93010  Biso   1.000  C
  C71      1.0000 0.45720  0.18260  0.56990  Biso   1.000  C
  C72      1.0000 0.95720  0.68260  0.56990  Biso   1.000  C
  H49      1.0000 0.48030  0.80670  0.15010  Biso   1.000  H
  H50      1.0000 0.98030  0.30670  0.15010  Biso   1.000  H
  H51      1.0000 0.51970  0.80670  0.34990  Biso   1.000  H
  H52      1.0000 0.01970  0.30670  0.34990  Biso   1.000  H
  H53      1.0000 0.51970  0.19330  0.84990  Biso   1.000  H
  H54      1.0000 0.01970  0.69330  0.84990  Biso   1.000  H
  H55      1.0000 0.48030  0.19330  0.65010  Biso   1.000  H
  H56      1.0000 0.98030  0.69330  0.65010  Biso   1.000  H
  H57      1.0000 0.44170  0.92120  0.05770  Biso   1.000  H
  H58      1.0000 0.94170  0.42120  0.05770  Biso   1.000  H
  H59      1.0000 0.55830  0.92120  0.44230  Biso   1.000  H
  H60      1.0000 0.05830  0.42120  0.44230  Biso   1.000  H
  H61      1.0000 0.55830  0.07880  0.94230  Biso   1.000  H
  H62      1.0000 0.05830  0.57880  0.94230  Biso   1.000  H
  H63      1.0000 0.44170  0.07880  0.55770  Biso   1.000  H
  H64      1.0000 0.94170  0.57880  0.55770  Biso   1.000  H
  C73      1.0000 0.37208  0.73460  0.92580  Biso   1.000  C
  C74      1.0000 0.87208  0.23460  0.92580  Biso   1.000  C
  C75      1.0000 0.62792  0.73460  0.57420  Biso   1.000  C
  C76      1.0000 0.12792  0.23460  0.57420  Biso   1.000  C
  C77      1.0000 0.62792  0.26540  0.07420  Biso   1.000  C
  C78      1.0000 0.12792  0.76540  0.07420  Biso   1.000  C
  C79      1.0000 0.37208  0.26540  0.42580  Biso   1.000  C
  C80      1.0000 0.87208  0.76540  0.42580  Biso   1.000  C
  H65      1.0000 0.34520  0.65550  0.90650  Biso   1.000  H
  H66      1.0000 0.84520  0.15550  0.90650  Biso   1.000  H
  H67      1.0000 0.65480  0.65550  0.59350  Biso   1.000  H
  H68      1.0000 0.15480  0.15550  0.59350  Biso   1.000  H
  H69      1.0000 0.65480  0.34450  0.09350  Biso   1.000  H
  H70      1.0000 0.15480  0.84450  0.09350  Biso   1.000  H
  H71      1.0000 0.34520  0.34450  0.40650  Biso   1.000  H
  H72      1.0000 0.84520  0.84450  0.40650  Biso   1.000  H
  H73      1.0000 0.38600  0.73700  0.86910  Biso   1.000  H
  H74      1.0000 0.88600  0.23700  0.86910  Biso   1.000  H
  H75      1.0000 0.61400  0.73700  0.63090  Biso   1.000  H
  H76      1.0000 0.11400  0.23700  0.63090  Biso   1.000  H
  H77      1.0000 0.61400  0.26300  0.13090  Biso   1.000  H
  H78      1.0000 0.11400  0.76300  0.13090  Biso   1.000  H
  H79      1.0000 0.38600  0.26300  0.36910  Biso   1.000  H
  H80      1.0000 0.88600  0.76300  0.36910  Biso   1.000  H
  H81      1.0000 0.35700  0.83460  0.92900  Biso   1.000  H
  H82      1.0000 0.85700  0.33460  0.92900  Biso   1.000  H
  H83      1.0000 0.64300  0.83460  0.57100  Biso   1.000  H
  H84      1.0000 0.14300  0.33460  0.57100  Biso   1.000  H
  H85      1.0000 0.64300  0.16540  0.07100  Biso   1.000  H
  H86      1.0000 0.14300  0.66540  0.07100  Biso   1.000  H
  H87      1.0000 0.35700  0.16540  0.42900  Biso   1.000  H
  H88      1.0000 0.85700  0.66540  0.42900  Biso   1.000  H
  C81      1.0000 0.39387  0.69600  0.12470  Biso   1.000  C
  C82      1.0000 0.89387  0.19600  0.12470  Biso   1.000  C
  C83      1.0000 0.60613  0.69600  0.37530  Biso   1.000  C
  C84      1.0000 0.10613  0.19600  0.37530  Biso   1.000  C
  C85      1.0000 0.60613  0.30400  0.87530  Biso   1.000  C
  C86      1.0000 0.10613  0.80400  0.87530  Biso   1.000  C
  C87      1.0000 0.39387  0.30400  0.62470  Biso   1.000  C
  C88      1.0000 0.89387  0.80400  0.62470  Biso   1.000  C
  H89      1.0000 0.36610  0.61960  0.10460  Biso   1.000  H
  H90      1.0000 0.86610  0.11960  0.10460  Biso   1.000  H
  H91      1.0000 0.63390  0.61960  0.39540  Biso   1.000  H
  H92      1.0000 0.13390  0.11960  0.39540  Biso   1.000  H
  H93      1.0000 0.63390  0.38040  0.89540  Biso   1.000  H
  H94      1.0000 0.13390  0.88040  0.89540  Biso   1.000  H
  H95      1.0000 0.36610  0.38040  0.60460  Biso   1.000  H
  H96      1.0000 0.86610  0.88040  0.60460  Biso   1.000  H
  H97      1.0000 0.38000  0.79730  0.12960  Biso   1.000  H
  H98      1.0000 0.88000  0.29730  0.12960  Biso   1.000  H
  H99      1.0000 0.62000  0.79730  0.37040  Biso   1.000  H
  H100     1.0000 0.12000  0.29730  0.37040  Biso   1.000  H
  H101     1.0000 0.62000  0.20270  0.87040  Biso   1.000  H
  H102     1.0000 0.12000  0.70270  0.87040  Biso   1.000  H
  H103     1.0000 0.38000  0.20270  0.62960  Biso   1.000  H
  H104     1.0000 0.88000  0.70270  0.62960  Biso   1.000  H
  H105     1.0000 0.42180  0.66930  0.19680  Biso   1.000  H
  H106     1.0000 0.92180  0.16930  0.19680  Biso   1.000  H
  H107     1.0000 0.57820  0.66930  0.30320  Biso   1.000  H
  H108     1.0000 0.07820  0.16930  0.30320  Biso   1.000  H
  H109     1.0000 0.57820  0.33070  0.80320  Biso   1.000  H
  H110     1.0000 0.07820  0.83070  0.80320  Biso   1.000  H
  H111     1.0000 0.42180  0.33070  0.69680  Biso   1.000  H
  H112     1.0000 0.92180  0.83070  0.69680  Biso   1.000  H
  Cu1      1.0000 0.45146  0.49727  0.02514  Biso   1.000  Cu
  Cu2      1.0000 0.95146  0.99727  0.02514  Biso   1.000  Cu
  Cu3      1.0000 0.54854  0.49727  0.47486  Biso   1.000  Cu
  Cu4      1.0000 0.04854  0.99727  0.47486  Biso   1.000  Cu
  Cu5      1.0000 0.54854  0.50273  0.97486  Biso   1.000  Cu
  Cu6      1.0000 0.04854  0.00273  0.97486  Biso   1.000  Cu
  Cu7      1.0000 0.45146  0.50273  0.52514  Biso   1.000  Cu
  Cu8      1.0000 0.95146  0.00273  0.52514  Biso   1.000  Cu
  N1       1.0000 0.39565  0.33970  0.01377  Biso   1.000  N
  N2       1.0000 0.89565  0.83970  0.01377  Biso   1.000  N
  N3       1.0000 0.60435  0.33970  0.48623  Biso   1.000  N
  N4       1.0000 0.10435  0.83970  0.48623  Biso   1.000  N
  N5       1.0000 0.60435  0.66030  0.98623  Biso   1.000  N
  N6       1.0000 0.10435  0.16030  0.98623  Biso   1.000  N
  N7       1.0000 0.39565  0.66030  0.51377  Biso   1.000  N
  N8       1.0000 0.89565  0.16030  0.51377  Biso   1.000  N
  N9       1.0000 0.41495  0.69880  0.03690  Biso   1.000  N
  N10      1.0000 0.91495  0.19880  0.03690  Biso   1.000  N
  N11      1.0000 0.58505  0.69880  0.46310  Biso   1.000  N
  N12      1.0000 0.08505  0.19880  0.46310  Biso   1.000  N
  N13      1.0000 0.58505  0.30120  0.96310  Biso   1.000  N
  N14      1.0000 0.08505  0.80120  0.96310  Biso   1.000  N
  N15      1.0000 0.41495  0.30120  0.53690  Biso   1.000  N
  N16      1.0000 0.91495  0.80120  0.53690  Biso   1.000  N
  O1       1.0000 0.41189  0.30060  0.20085  Biso   1.000  O
  O2       1.0000 0.91189  0.80060  0.20085  Biso   1.000  O
  O3       1.0000 0.58811  0.30060  0.29915  Biso   1.000  O
  O4       1.0000 0.08811  0.80060  0.29915  Biso   1.000  O
  O5       1.0000 0.58811  0.69940  0.79915  Biso   1.000  O
  O6       1.0000 0.08811  0.19940  0.79915  Biso   1.000  O
  O7       1.0000 0.41189  0.69940  0.70085  Biso   1.000  O
  O8       1.0000 0.91189  0.19940  0.70085  Biso   1.000  O
  O9       1.0000 0.38078  0.16950  0.84150  Biso   1.000  O
  O10      1.0000 0.88078  0.66950  0.84150  Biso   1.000  O
  O11      1.0000 0.61922  0.16950  0.65850  Biso   1.000  O
  O12      1.0000 0.11922  0.66950  0.65850  Biso   1.000  O
  O13      1.0000 0.61922  0.83050  0.15850  Biso   1.000  O
  O14      1.0000 0.11922  0.33050  0.15850  Biso   1.000  O
  O15      1.0000 0.38078  0.83050  0.34150  Biso   1.000  O
  O16      1.0000 0.88078  0.33050  0.34150  Biso   1.000  O
  O17      1.0000 0.32546  0.39430  0.81910  Biso   1.000  O
  O18      1.0000 0.82546  0.89430  0.81910  Biso   1.000  O
  O19      1.0000 0.67454  0.39430  0.68090  Biso   1.000  O
  O20      1.0000 0.17454  0.89430  0.68090  Biso   1.000  O
  O21      1.0000 0.67454  0.60570  0.18090  Biso   1.000  O
  O22      1.0000 0.17454  0.10570  0.18090  Biso   1.000  O
  O23      1.0000 0.32546  0.60570  0.31910  Biso   1.000  O
  O24      1.0000 0.82546  0.10570  0.31910  Biso   1.000  O
  O25      1.0000 0.50055  0.63660  0.00410  Biso   1.000  O
  O26      1.0000 0.00055  0.13660  0.00410  Biso   1.000  O
  O27      1.0000 0.49945  0.63660  0.49590  Biso   1.000  O
  O28      1.0000 0.99945  0.13660  0.49590  Biso   1.000  O
  O29      1.0000 0.49945  0.36340  0.99590  Biso   1.000  O
  O30      1.0000 0.99945  0.86340  0.99590  Biso   1.000  O
  O31      1.0000 0.50055  0.36340  0.50410  Biso   1.000  O
  O32      1.0000 0.00055  0.86340  0.50410  Biso   1.000  O
  O33      1.0000 0.50000  0.47930  0.25000  Biso   1.000  O
  O34      1.0000 0.00000  0.97930  0.25000  Biso   1.000  O
  O35      1.0000 0.50000  0.52070  0.75000  Biso   1.000  O
  O36      1.0000 0.00000  0.02070  0.75000  Biso   1.000  O
  S1       1.0000 0.35456  0.27210  0.89000  Biso   1.000  S
  S2       1.0000 0.85456  0.77210  0.89000  Biso   1.000  S
  S3       1.0000 0.64544  0.27210  0.61000  Biso   1.000  S
  S4       1.0000 0.14544  0.77210  0.61000  Biso   1.000  S
  S5       1.0000 0.64544  0.72790  0.11000  Biso   1.000  S
  S6       1.0000 0.14544  0.22790  0.11000  Biso   1.000  S
  S7       1.0000 0.35456  0.72790  0.39000  Biso   1.000  S
  S8       1.0000 0.85456  0.22790  0.39000  Biso   1.000  S
  H113     1.0000 0.47840  0.42900  0.25200  Biso   1.000  H
  H114     1.0000 0.97840  0.92900  0.25200  Biso   1.000  H
  H115     1.0000 0.52160  0.42900  0.24800  Biso   1.000  H
  H116     1.0000 0.02160  0.92900  0.24800  Biso   1.000  H
  H117     1.0000 0.52160  0.57100  0.74800  Biso   1.000  H
  H118     1.0000 0.02160  0.07100  0.74800  Biso   1.000  H
  H119     1.0000 0.47840  0.57100  0.75200  Biso   1.000  H
  H120     1.0000 0.97840  0.07100  0.75200  Biso   1.000  H
