data_image0
_cell_length_a       12.37
_cell_length_b       6.358
_cell_length_c       16.029
_cell_angle_alpha    90
_cell_angle_beta     90
_cell_angle_gamma    90

_symmetry_space_group_name_H-M    "P 1"
_symmetry_int_tables_number       1

loop_
  _symmetry_equiv_pos_as_xyz
  'x, y, z'

loop_
  _atom_site_label
  _atom_site_occupancy
  _atom_site_fract_x
  _atom_site_fract_y
  _atom_site_fract_z
  _atom_site_thermal_displace_type
  _atom_site_B_iso_or_equiv
  _atom_site_type_symbol
  Cu1      1.0000 0.82420  0.95890  0.77220  Biso   1.000  Cu
  Cu2      1.0000 0.32420  0.54110  0.22780  Biso   1.000  Cu
  Cu3      1.0000 0.17580  0.45890  0.72780  Biso   1.000  Cu
  Cu4      1.0000 0.67580  0.04110  0.27220  Biso   1.000  Cu
  O1       1.0000 0.93250  0.73590  0.76800  Biso   1.000  O
  O2       1.0000 0.43250  0.76410  0.23200  Biso   1.000  O
  O3       1.0000 0.06750  0.23590  0.73200  Biso   1.000  O
  O4       1.0000 0.56750  0.26410  0.26800  Biso   1.000  O
  O5       1.0000 0.10040  0.66400  0.81490  Biso   1.000  O
  O6       1.0000 0.60040  0.83600  0.18510  Biso   1.000  O
  O7       1.0000 0.89960  0.16400  0.68510  Biso   1.000  O
  O8       1.0000 0.39960  0.33600  0.31490  Biso   1.000  O
  O9       1.0000 0.72540  0.82860  0.69270  Biso   1.000  O
  O10      1.0000 0.22540  0.67140  0.30730  Biso   1.000  O
  O11      1.0000 0.27460  0.32860  0.80730  Biso   1.000  O
  O12      1.0000 0.77460  0.17140  0.19270  Biso   1.000  O
  O13      1.0000 0.56090  0.87840  0.63800  Biso   1.000  O
  O14      1.0000 0.06090  0.62160  0.36200  Biso   1.000  O
  O15      1.0000 0.43910  0.37840  0.86200  Biso   1.000  O
  O16      1.0000 0.93910  0.12160  0.13800  Biso   1.000  O
  N1       1.0000 0.88850  0.02630  0.88670  Biso   1.000  N
  N2       1.0000 0.38850  0.47370  0.11330  Biso   1.000  N
  N3       1.0000 0.11150  0.52630  0.61330  Biso   1.000  N
  N4       1.0000 0.61150  0.97370  0.38670  Biso   1.000  N
  N5       1.0000 0.70040  0.14750  0.80190  Biso   1.000  N
  N6       1.0000 0.20040  0.35250  0.19810  Biso   1.000  N
  N7       1.0000 0.29960  0.64750  0.69810  Biso   1.000  N
  N8       1.0000 0.79960  0.85250  0.30190  Biso   1.000  N
  N9       1.0000 0.70670  0.03270  0.94960  Biso   1.000  N
  N10      1.0000 0.20670  0.46730  0.05040  Biso   1.000  N
  N11      1.0000 0.29330  0.53270  0.55040  Biso   1.000  N
  N12      1.0000 0.79330  0.96730  0.44960  Biso   1.000  N
  N13      1.0000 0.79040  0.35190  0.91030  Biso   1.000  N
  N14      1.0000 0.29040  0.14810  0.08970  Biso   1.000  N
  N15      1.0000 0.20960  0.85190  0.58970  Biso   1.000  N
  N16      1.0000 0.70960  0.64810  0.41030  Biso   1.000  N
  C1       1.0000 0.01140  0.76030  0.81980  Biso   1.000  C
  C2       1.0000 0.51140  0.73970  0.18020  Biso   1.000  C
  C3       1.0000 0.98860  0.26030  0.68020  Biso   1.000  C
  C4       1.0000 0.48860  0.23970  0.31980  Biso   1.000  C
  C5       1.0000 0.00080  0.91920  0.88530  Biso   1.000  C
  C6       1.0000 0.50080  0.58080  0.11470  Biso   1.000  C
  C7       1.0000 0.99920  0.41920  0.61470  Biso   1.000  C
  C8       1.0000 0.49920  0.08080  0.38530  Biso   1.000  C
  C9       1.0000 0.03440  0.82640  0.96930  Biso   1.000  C
  C10      1.0000 0.53440  0.67360  0.03070  Biso   1.000  C
  C11      1.0000 0.96560  0.32640  0.53070  Biso   1.000  C
  C12      1.0000 0.46560  0.17360  0.46930  Biso   1.000  C
  C13      1.0000 0.62530  0.14500  0.72490  Biso   1.000  C
  C14      1.0000 0.12530  0.35500  0.27510  Biso   1.000  C
  C15      1.0000 0.37470  0.64500  0.77510  Biso   1.000  C
  C16      1.0000 0.87470  0.85500  0.22490  Biso   1.000  C
  C17      1.0000 0.64810  0.32100  0.66660  Biso   1.000  C
  C18      1.0000 0.14810  0.17900  0.33340  Biso   1.000  C
  C19      1.0000 0.35190  0.82100  0.83340  Biso   1.000  C
  C20      1.0000 0.85190  0.67900  0.16660  Biso   1.000  C
  C21      1.0000 0.63750  0.92700  0.68460  Biso   1.000  C
  C22      1.0000 0.13750  0.57300  0.31540  Biso   1.000  C
  C23      1.0000 0.36250  0.42700  0.81540  Biso   1.000  C
  C24      1.0000 0.86250  0.07300  0.18460  Biso   1.000  C
  C25      1.0000 0.80870  0.92160  0.94360  Biso   1.000  C
  C26      1.0000 0.30870  0.57840  0.05640  Biso   1.000  C
  C27      1.0000 0.19130  0.42160  0.55640  Biso   1.000  C
  C28      1.0000 0.69130  0.07840  0.44360  Biso   1.000  C
  C29      1.0000 0.64220  0.02420  0.87220  Biso   1.000  C
  C30      1.0000 0.14220  0.47580  0.12780  Biso   1.000  C
  C31      1.0000 0.35780  0.52420  0.62780  Biso   1.000  C
  C32      1.0000 0.85780  0.97580  0.37220  Biso   1.000  C
  C33      1.0000 0.72940  0.35720  0.83500  Biso   1.000  C
  C34      1.0000 0.22940  0.14280  0.16500  Biso   1.000  C
  C35      1.0000 0.27060  0.85720  0.66500  Biso   1.000  C
  C36      1.0000 0.77060  0.64280  0.33500  Biso   1.000  C
  C37      1.0000 0.89240  0.25090  0.90470  Biso   1.000  C
  C38      1.0000 0.39240  0.24910  0.09530  Biso   1.000  C
  C39      1.0000 0.10760  0.75090  0.59530  Biso   1.000  C
  C40      1.0000 0.60760  0.74910  0.40470  Biso   1.000  C
  C41      1.0000 0.72840  0.24140  0.97260  Biso   1.000  C
  C42      1.0000 0.22840  0.25860  0.02740  Biso   1.000  C
  C43      1.0000 0.27160  0.74140  0.52740  Biso   1.000  C
  C44      1.0000 0.77160  0.75860  0.47260  Biso   1.000  C
  H1       1.0000 0.05010  0.03350  0.87270  Biso   1.000  H
  H2       1.0000 0.55010  0.46650  0.12730  Biso   1.000  H
  H3       1.0000 0.94990  0.53350  0.62730  Biso   1.000  H
  H4       1.0000 0.44990  0.96650  0.37270  Biso   1.000  H
  H5       1.0000 0.02720  0.93250  0.01240  Biso   1.000  H
  H6       1.0000 0.52720  0.56750  0.98760  Biso   1.000  H
  H7       1.0000 0.97280  0.43250  0.48760  Biso   1.000  H
  H8       1.0000 0.47280  0.06750  0.51240  Biso   1.000  H
  H9       1.0000 0.10900  0.78010  0.96630  Biso   1.000  H
  H10      1.0000 0.60900  0.71990  0.03370  Biso   1.000  H
  H11      1.0000 0.89100  0.28010  0.53370  Biso   1.000  H
  H12      1.0000 0.39100  0.21990  0.46630  Biso   1.000  H
  H13      1.0000 0.98830  0.70750  0.98240  Biso   1.000  H
  H14      1.0000 0.48830  0.79250  0.01760  Biso   1.000  H
  H15      1.0000 0.01170  0.20750  0.51760  Biso   1.000  H
  H16      1.0000 0.51170  0.29250  0.48240  Biso   1.000  H
  H17      1.0000 0.55070  0.16740  0.74140  Biso   1.000  H
  H18      1.0000 0.05070  0.33260  0.25860  Biso   1.000  H
  H19      1.0000 0.44930  0.66740  0.75860  Biso   1.000  H
  H20      1.0000 0.94930  0.83260  0.24140  Biso   1.000  H
  H21      1.0000 0.59910  0.31310  0.61940  Biso   1.000  H
  H22      1.0000 0.09910  0.18690  0.38060  Biso   1.000  H
  H23      1.0000 0.40090  0.81310  0.88060  Biso   1.000  H
  H24      1.0000 0.90090  0.68690  0.11940  Biso   1.000  H
  H25      1.0000 0.72210  0.31060  0.64700  Biso   1.000  H
  H26      1.0000 0.22210  0.18940  0.35300  Biso   1.000  H
  H27      1.0000 0.27790  0.81060  0.85300  Biso   1.000  H
  H28      1.0000 0.77790  0.68940  0.14700  Biso   1.000  H
  H29      1.0000 0.63810  0.45400  0.69520  Biso   1.000  H
  H30      1.0000 0.13810  0.04600  0.30480  Biso   1.000  H
  H31      1.0000 0.36190  0.95400  0.80480  Biso   1.000  H
  H32      1.0000 0.86190  0.54600  0.19520  Biso   1.000  H
  H33      1.0000 0.84020  0.91290  0.99890  Biso   1.000  H
  H34      1.0000 0.34020  0.58710  0.00110  Biso   1.000  H
  H35      1.0000 0.15980  0.41290  0.50110  Biso   1.000  H
  H36      1.0000 0.65980  0.08710  0.49890  Biso   1.000  H
  H37      1.0000 0.79470  0.78090  0.92280  Biso   1.000  H
  H38      1.0000 0.29470  0.71910  0.07720  Biso   1.000  H
  H39      1.0000 0.20530  0.28090  0.57720  Biso   1.000  H
  H40      1.0000 0.70530  0.21910  0.42280  Biso   1.000  H
  H41      1.0000 0.63320  0.87880  0.85530  Biso   1.000  H
  H42      1.0000 0.13320  0.62120  0.14470  Biso   1.000  H
  H43      1.0000 0.36680  0.37880  0.64470  Biso   1.000  H
  H44      1.0000 0.86680  0.12120  0.35530  Biso   1.000  H
  H45      1.0000 0.57180  0.08660  0.88230  Biso   1.000  H
  H46      1.0000 0.07180  0.41340  0.11770  Biso   1.000  H
  H47      1.0000 0.42820  0.58660  0.61770  Biso   1.000  H
  H48      1.0000 0.92820  0.91340  0.38230  Biso   1.000  H
  H49      1.0000 0.66310  0.43440  0.84560  Biso   1.000  H
  H50      1.0000 0.16310  0.06560  0.15440  Biso   1.000  H
  H51      1.0000 0.33690  0.93440  0.65440  Biso   1.000  H
  H52      1.0000 0.83690  0.56560  0.34560  Biso   1.000  H
  H53      1.0000 0.77160  0.43040  0.79310  Biso   1.000  H
  H54      1.0000 0.27160  0.06960  0.20690  Biso   1.000  H
  H55      1.0000 0.22840  0.93040  0.70690  Biso   1.000  H
  H56      1.0000 0.72840  0.56960  0.29310  Biso   1.000  H
  H57      1.0000 0.93340  0.31890  0.86070  Biso   1.000  H
  H58      1.0000 0.43340  0.18110  0.13930  Biso   1.000  H
  H59      1.0000 0.06660  0.81890  0.63930  Biso   1.000  H
  H60      1.0000 0.56660  0.68110  0.36070  Biso   1.000  H
  H61      1.0000 0.92940  0.26980  0.95760  Biso   1.000  H
  H62      1.0000 0.42940  0.23020  0.04240  Biso   1.000  H
  H63      1.0000 0.07060  0.76980  0.54240  Biso   1.000  H
  H64      1.0000 0.57060  0.73020  0.45760  Biso   1.000  H
  H65      1.0000 0.66030  0.31440  0.98080  Biso   1.000  H
  H66      1.0000 0.16030  0.18560  0.01920  Biso   1.000  H
  H67      1.0000 0.33970  0.81440  0.51920  Biso   1.000  H
  H68      1.0000 0.83970  0.68560  0.48080  Biso   1.000  H
  H69      1.0000 0.76880  0.24110  0.02450  Biso   1.000  H
  H70      1.0000 0.26880  0.25890  0.97550  Biso   1.000  H
  H71      1.0000 0.23120  0.74110  0.47550  Biso   1.000  H
  H72      1.0000 0.73120  0.75890  0.52450  Biso   1.000  H
  Cu5      1.0000 0.73120  0.96020  0.78970  Biso   1.000  Cu
  Cu6      1.0000 0.23120  0.53980  0.21030  Biso   1.000  Cu
  Cu7      1.0000 0.26880  0.46020  0.71030  Biso   1.000  Cu
  Cu8      1.0000 0.76880  0.03980  0.28970  Biso   1.000  Cu
  Cu9      1.0000 0.85210  0.83430  0.71650  Biso   1.000  Cu
  Cu10     1.0000 0.35210  0.66570  0.28350  Biso   1.000  Cu
  Cu11     1.0000 0.14790  0.33430  0.78350  Biso   1.000  Cu
  Cu12     1.0000 0.64790  0.16570  0.21650  Biso   1.000  Cu
  Cu13     1.0000 0.90010  0.95580  0.75770  Biso   1.000  Cu
  Cu14     1.0000 0.40010  0.54420  0.24230  Biso   1.000  Cu
  Cu15     1.0000 0.09990  0.45580  0.74230  Biso   1.000  Cu
  Cu16     1.0000 0.59990  0.04420  0.25770  Biso   1.000  Cu
  Cu17     1.0000 0.82550  0.10490  0.80870  Biso   1.000  Cu
  Cu18     1.0000 0.32550  0.39510  0.19130  Biso   1.000  Cu
  Cu19     1.0000 0.17450  0.60490  0.69130  Biso   1.000  Cu
  Cu20     1.0000 0.67450  0.89510  0.30870  Biso   1.000  Cu
  Cu21     1.0000 0.81380  0.11510  0.74250  Biso   1.000  Cu
  Cu22     1.0000 0.31380  0.38490  0.25750  Biso   1.000  Cu
  Cu23     1.0000 0.18620  0.61510  0.75750  Biso   1.000  Cu
  Cu24     1.0000 0.68620  0.88490  0.24250  Biso   1.000  Cu
  Cu25     1.0000 0.82350  0.78970  0.78780  Biso   1.000  Cu
  Cu26     1.0000 0.32350  0.71030  0.21220  Biso   1.000  Cu
  Cu27     1.0000 0.17650  0.28970  0.71220  Biso   1.000  Cu
  Cu28     1.0000 0.67650  0.21030  0.28780  Biso   1.000  Cu
