data_image0
_cell_length_a       10.104
_cell_length_b       6.8627
_cell_length_c       13.8514
_cell_angle_alpha    90
_cell_angle_beta     94.673
_cell_angle_gamma    90

_symmetry_space_group_name_H-M    "P 1"
_symmetry_int_tables_number       1

loop_
  _symmetry_equiv_pos_as_xyz
  'x, y, z'

loop_
  _atom_site_label
  _atom_site_occupancy
  _atom_site_fract_x
  _atom_site_fract_y
  _atom_site_fract_z
  _atom_site_thermal_displace_type
  _atom_site_B_iso_or_equiv
  _atom_site_type_symbol
  Cu1      1.0000 0.07628  0.11912  0.81801  Biso   1.000  Cu
  Cu2      1.0000 0.92372  0.61912  0.68199  Biso   1.000  Cu
  Cu3      1.0000 0.92372  0.88088  0.18199  Biso   1.000  Cu
  Cu4      1.0000 0.07628  0.38088  0.31801  Biso   1.000  Cu
  O1       1.0000 0.31590  0.62310  0.96257  Biso   1.000  O
  O2       1.0000 0.68410  0.12310  0.53743  Biso   1.000  O
  O3       1.0000 0.68410  0.37690  0.03743  Biso   1.000  O
  O4       1.0000 0.31590  0.87690  0.46257  Biso   1.000  O
  H1       1.0000 0.27720  0.63150  0.01380  Biso   1.000  H
  H2       1.0000 0.72280  0.13150  0.48620  Biso   1.000  H
  H3       1.0000 0.72280  0.36850  0.98620  Biso   1.000  H
  H4       1.0000 0.27720  0.86850  0.51380  Biso   1.000  H
  O5       1.0000 0.93650  0.30830  0.77001  Biso   1.000  O
  O6       1.0000 0.06350  0.80830  0.72999  Biso   1.000  O
  O7       1.0000 0.06350  0.69170  0.22999  Biso   1.000  O
  O8       1.0000 0.93650  0.19170  0.27001  Biso   1.000  O
  O9       1.0000 0.90710  0.08600  0.87940  Biso   1.000  O
  O10      1.0000 0.09290  0.58600  0.62060  Biso   1.000  O
  O11      1.0000 0.09290  0.91400  0.12060  Biso   1.000  O
  O12      1.0000 0.90710  0.41400  0.37940  Biso   1.000  O
  O13      1.0000 0.75450  0.32500  0.85373  Biso   1.000  O
  O14      1.0000 0.24550  0.82500  0.64627  Biso   1.000  O
  O15      1.0000 0.24550  0.67500  0.14627  Biso   1.000  O
  O16      1.0000 0.75450  0.17500  0.35373  Biso   1.000  O
  N1       1.0000 0.19500  0.99810  0.92146  Biso   1.000  N
  N2       1.0000 0.80500  0.49810  0.57854  Biso   1.000  N
  N3       1.0000 0.80500  0.00190  0.07854  Biso   1.000  N
  N4       1.0000 0.19500  0.50190  0.42146  Biso   1.000  N
  H5       1.0000 0.15510  0.01040  0.97850  Biso   1.000  H
  H6       1.0000 0.84490  0.51040  0.52150  Biso   1.000  H
  H7       1.0000 0.84490  0.98960  0.02150  Biso   1.000  H
  H8       1.0000 0.15510  0.48960  0.47850  Biso   1.000  H
  H9       1.0000 0.19930  0.86700  0.90820  Biso   1.000  H
  H10      1.0000 0.80070  0.36700  0.59180  Biso   1.000  H
  H11      1.0000 0.80070  0.13300  0.09180  Biso   1.000  H
  H12      1.0000 0.19930  0.63300  0.40820  Biso   1.000  H
  N5       1.0000 0.21500  0.20140  0.73388  Biso   1.000  N
  N6       1.0000 0.78500  0.70140  0.76612  Biso   1.000  N
  N7       1.0000 0.78500  0.79860  0.26612  Biso   1.000  N
  N8       1.0000 0.21500  0.29860  0.23388  Biso   1.000  N
  H13      1.0000 0.21990  0.10710  0.68710  Biso   1.000  H
  H14      1.0000 0.78010  0.60710  0.81290  Biso   1.000  H
  H15      1.0000 0.78010  0.89290  0.31290  Biso   1.000  H
  H16      1.0000 0.21990  0.39290  0.18710  Biso   1.000  H
  H17      1.0000 0.18520  0.31330  0.70260  Biso   1.000  H
  H18      1.0000 0.81480  0.81330  0.79740  Biso   1.000  H
  H19      1.0000 0.81480  0.68670  0.29740  Biso   1.000  H
  H20      1.0000 0.18520  0.18670  0.20260  Biso   1.000  H
  C1       1.0000 0.86050  0.24380  0.83540  Biso   1.000  C
  C2       1.0000 0.13950  0.74380  0.66460  Biso   1.000  C
  C3       1.0000 0.13950  0.75620  0.16460  Biso   1.000  C
  C4       1.0000 0.86050  0.25620  0.33540  Biso   1.000  C
  C5       1.0000 0.33440  0.07150  0.93890  Biso   1.000  C
  C6       1.0000 0.66560  0.57150  0.56110  Biso   1.000  C
  C7       1.0000 0.66560  0.92850  0.06110  Biso   1.000  C
  C8       1.0000 0.33440  0.42850  0.43890  Biso   1.000  C
  H21      1.0000 0.38450  0.97860  0.98390  Biso   1.000  H
  H22      1.0000 0.61550  0.47860  0.51610  Biso   1.000  H
  H23      1.0000 0.61550  0.02140  0.01610  Biso   1.000  H
  H24      1.0000 0.38450  0.52140  0.48390  Biso   1.000  H
  C9       1.0000 0.40130  0.07400  0.84380  Biso   1.000  C
  C10      1.0000 0.59870  0.57400  0.65620  Biso   1.000  C
  C11      1.0000 0.59870  0.92600  0.15620  Biso   1.000  C
  C12      1.0000 0.40130  0.42600  0.34380  Biso   1.000  C
  H25      1.0000 0.38390  0.94830  0.81000  Biso   1.000  H
  H26      1.0000 0.61610  0.44830  0.69000  Biso   1.000  H
  H27      1.0000 0.61610  0.05170  0.19000  Biso   1.000  H
  H28      1.0000 0.38390  0.55170  0.31000  Biso   1.000  H
  H29      1.0000 0.49850  0.08570  0.85860  Biso   1.000  H
  H30      1.0000 0.50150  0.58570  0.64140  Biso   1.000  H
  H31      1.0000 0.50150  0.91430  0.14140  Biso   1.000  H
  H32      1.0000 0.49850  0.41430  0.35860  Biso   1.000  H
  C13      1.0000 0.35370  0.24000  0.77590  Biso   1.000  C
  C14      1.0000 0.64630  0.74000  0.72410  Biso   1.000  C
  C15      1.0000 0.64630  0.76000  0.22410  Biso   1.000  C
  C16      1.0000 0.35370  0.26000  0.27590  Biso   1.000  C
  H33      1.0000 0.41280  0.24460  0.72140  Biso   1.000  H
  H34      1.0000 0.58720  0.74460  0.77860  Biso   1.000  H
  H35      1.0000 0.58720  0.75540  0.27860  Biso   1.000  H
  H36      1.0000 0.41280  0.25540  0.22140  Biso   1.000  H
  C17      1.0000 0.36370  0.43540  0.82810  Biso   1.000  C
  C18      1.0000 0.63630  0.93540  0.67190  Biso   1.000  C
  C19      1.0000 0.63630  0.56460  0.17190  Biso   1.000  C
  C20      1.0000 0.36370  0.06460  0.32810  Biso   1.000  C
  H37      1.0000 0.45840  0.46590  0.84550  Biso   1.000  H
  H38      1.0000 0.54160  0.96590  0.65450  Biso   1.000  H
  H39      1.0000 0.54160  0.53410  0.15450  Biso   1.000  H
  H40      1.0000 0.45840  0.03410  0.34550  Biso   1.000  H
  H41      1.0000 0.32690  0.53850  0.78370  Biso   1.000  H
  H42      1.0000 0.67310  0.03850  0.71630  Biso   1.000  H
  H43      1.0000 0.67310  0.46150  0.21630  Biso   1.000  H
  H44      1.0000 0.32690  0.96150  0.28370  Biso   1.000  H
  C21      1.0000 0.28990  0.43720  0.91940  Biso   1.000  C
  C22      1.0000 0.71010  0.93720  0.58060  Biso   1.000  C
  C23      1.0000 0.71010  0.56280  0.08060  Biso   1.000  C
  C24      1.0000 0.28990  0.06280  0.41940  Biso   1.000  C
  H45      1.0000 0.19250  0.42270  0.90180  Biso   1.000  H
  H46      1.0000 0.80750  0.92270  0.59820  Biso   1.000  H
  H47      1.0000 0.80750  0.57730  0.09820  Biso   1.000  H
  H48      1.0000 0.19250  0.07730  0.40180  Biso   1.000  H
  C25      1.0000 0.33820  0.27190  0.98720  Biso   1.000  C
  C26      1.0000 0.66180  0.77190  0.51280  Biso   1.000  C
  C27      1.0000 0.66180  0.72810  0.01280  Biso   1.000  C
  C28      1.0000 0.33820  0.22810  0.48720  Biso   1.000  C
  H49      1.0000 0.28240  0.26840  0.04270  Biso   1.000  H
  H50      1.0000 0.71760  0.76840  0.45730  Biso   1.000  H
  H51      1.0000 0.71760  0.73160  0.95730  Biso   1.000  H
  H52      1.0000 0.28240  0.23160  0.54270  Biso   1.000  H
  H53      1.0000 0.43050  0.30000  0.01310  Biso   1.000  H
  H54      1.0000 0.56950  0.80000  0.48690  Biso   1.000  H
  H55      1.0000 0.56950  0.70000  0.98690  Biso   1.000  H
  H56      1.0000 0.43050  0.20000  0.51310  Biso   1.000  H
