data_image0
_cell_length_a       10.963
_cell_length_b       10.963
_cell_length_c       16.034
_cell_angle_alpha    90
_cell_angle_beta     90
_cell_angle_gamma    120

_symmetry_space_group_name_H-M    "P 1"
_symmetry_int_tables_number       1

loop_
  _symmetry_equiv_pos_as_xyz
  'x, y, z'

loop_
  _atom_site_label
  _atom_site_occupancy
  _atom_site_fract_x
  _atom_site_fract_y
  _atom_site_fract_z
  _atom_site_thermal_displace_type
  _atom_site_B_iso_or_equiv
  _atom_site_type_symbol
  C1       1.0000 0.60480  0.83340  0.05730  Biso   1.000  C
  C2       1.0000 0.16660  0.77140  0.39063  Biso   1.000  C
  C3       1.0000 0.22860  0.39520  0.72397  Biso   1.000  C
  C4       1.0000 0.83340  0.60480  0.94270  Biso   1.000  C
  C5       1.0000 0.77140  0.16660  0.60937  Biso   1.000  C
  C6       1.0000 0.39520  0.22860  0.27603  Biso   1.000  C
  C7       1.0000 0.60820  0.73360  0.00500  Biso   1.000  C
  C8       1.0000 0.26640  0.87460  0.33833  Biso   1.000  C
  C9       1.0000 0.12540  0.39180  0.67167  Biso   1.000  C
  C10      1.0000 0.73360  0.60820  0.99500  Biso   1.000  C
  C11      1.0000 0.87460  0.26640  0.66167  Biso   1.000  C
  C12      1.0000 0.39180  0.12540  0.32833  Biso   1.000  C
  C13      1.0000 0.49370  0.64470  0.95360  Biso   1.000  C
  C14      1.0000 0.35530  0.84900  0.28693  Biso   1.000  C
  C15      1.0000 0.15100  0.50630  0.62027  Biso   1.000  C
  C16      1.0000 0.64470  0.49370  0.04640  Biso   1.000  C
  C17      1.0000 0.84900  0.35530  0.71307  Biso   1.000  C
  C18      1.0000 0.50630  0.15100  0.37973  Biso   1.000  C
  H1       1.0000 0.49690  0.57420  0.92310  Biso   1.000  H
  H2       1.0000 0.42580  0.92270  0.25643  Biso   1.000  H
  H3       1.0000 0.07730  0.50310  0.58977  Biso   1.000  H
  H4       1.0000 0.57420  0.49690  0.07690  Biso   1.000  H
  H5       1.0000 0.92270  0.42580  0.74357  Biso   1.000  H
  H6       1.0000 0.50310  0.07730  0.41023  Biso   1.000  H
  C19      1.0000 0.37920  0.66010  0.94790  Biso   1.000  C
  C20      1.0000 0.33990  0.71910  0.28123  Biso   1.000  C
  C21      1.0000 0.28090  0.62080  0.61457  Biso   1.000  C
  C22      1.0000 0.66010  0.37920  0.05210  Biso   1.000  C
  C23      1.0000 0.71910  0.33990  0.71877  Biso   1.000  C
  C24      1.0000 0.62080  0.28090  0.38543  Biso   1.000  C
  H7       1.0000 0.30270  0.59900  0.91520  Biso   1.000  H
  H8       1.0000 0.40100  0.70370  0.24853  Biso   1.000  H
  H9       1.0000 0.29630  0.69730  0.58187  Biso   1.000  H
  H10      1.0000 0.59900  0.30270  0.08480  Biso   1.000  H
  H11      1.0000 0.70370  0.40100  0.75147  Biso   1.000  H
  H12      1.0000 0.69730  0.29630  0.41813  Biso   1.000  H
  C25      1.0000 0.37770  0.77150  0.99270  Biso   1.000  C
  C26      1.0000 0.22850  0.60620  0.32603  Biso   1.000  C
  C27      1.0000 0.39380  0.62230  0.65937  Biso   1.000  C
  C28      1.0000 0.77150  0.37770  0.00730  Biso   1.000  C
  C29      1.0000 0.60620  0.22850  0.67397  Biso   1.000  C
  C30      1.0000 0.62230  0.39380  0.34063  Biso   1.000  C
  H13      1.0000 0.30420  0.78970  0.98550  Biso   1.000  H
  H14      1.0000 0.21030  0.51450  0.31883  Biso   1.000  H
  H15      1.0000 0.48550  0.69580  0.65217  Biso   1.000  H
  H16      1.0000 0.78970  0.30420  0.01450  Biso   1.000  H
  H17      1.0000 0.51450  0.21030  0.68117  Biso   1.000  H
  H18      1.0000 0.69580  0.48550  0.34783  Biso   1.000  H
  C31      1.0000 0.48600  0.85180  0.04660  Biso   1.000  C
  C32      1.0000 0.14820  0.63420  0.37993  Biso   1.000  C
  C33      1.0000 0.36580  0.51400  0.71327  Biso   1.000  C
  C34      1.0000 0.85180  0.48600  0.95340  Biso   1.000  C
  C35      1.0000 0.63420  0.14820  0.62007  Biso   1.000  C
  C36      1.0000 0.51400  0.36580  0.28673  Biso   1.000  C
  C37      1.0000 0.71520  0.90210  0.12110  Biso   1.000  C
  C38      1.0000 0.09790  0.81310  0.45443  Biso   1.000  C
  C39      1.0000 0.18690  0.28480  0.78777  Biso   1.000  C
  C40      1.0000 0.90210  0.71520  0.87890  Biso   1.000  C
  C41      1.0000 0.81310  0.09790  0.54557  Biso   1.000  C
  C42      1.0000 0.28480  0.18690  0.21223  Biso   1.000  C
  C43      1.0000 0.48140  0.97040  0.09010  Biso   1.000  C
  C44      1.0000 0.02960  0.51100  0.42343  Biso   1.000  C
  C45      1.0000 0.48900  0.51860  0.75677  Biso   1.000  C
  C46      1.0000 0.97040  0.48140  0.90990  Biso   1.000  C
  C47      1.0000 0.51100  0.02960  0.57657  Biso   1.000  C
  C48      1.0000 0.51860  0.48900  0.24323  Biso   1.000  C
  C49      1.0000 0.04050  0.86560  0.10010  Biso   1.000  C
  C50      1.0000 0.13440  0.17490  0.43343  Biso   1.000  C
  C51      1.0000 0.82510  0.95950  0.76677  Biso   1.000  C
  C52      1.0000 0.86560  0.04050  0.89990  Biso   1.000  C
  C53      1.0000 0.17490  0.13440  0.56657  Biso   1.000  C
  C54      1.0000 0.95950  0.82510  0.23323  Biso   1.000  C
  H19      1.0000 0.06950  0.92300  0.05310  Biso   1.000  H
  H20      1.0000 0.07700  0.14650  0.38643  Biso   1.000  H
  H21      1.0000 0.85350  0.93050  0.71977  Biso   1.000  H
  H22      1.0000 0.92300  0.06950  0.94690  Biso   1.000  H
  H23      1.0000 0.14650  0.07700  0.61357  Biso   1.000  H
  H24      1.0000 0.93050  0.85350  0.28023  Biso   1.000  H
  C55      1.0000 0.04190  0.74070  0.09670  Biso   1.000  C
  C56      1.0000 0.25930  0.30120  0.43003  Biso   1.000  C
  C57      1.0000 0.69880  0.95810  0.76337  Biso   1.000  C
  C58      1.0000 0.74070  0.04190  0.90330  Biso   1.000  C
  C59      1.0000 0.30120  0.25930  0.56997  Biso   1.000  C
  C60      1.0000 0.95810  0.69880  0.23663  Biso   1.000  C
  H25      1.0000 0.07040  0.71500  0.04840  Biso   1.000  H
  H26      1.0000 0.28500  0.35540  0.38173  Biso   1.000  H
  H27      1.0000 0.64460  0.92960  0.71507  Biso   1.000  H
  H28      1.0000 0.71500  0.07040  0.95160  Biso   1.000  H
  H29      1.0000 0.35540  0.28500  0.61827  Biso   1.000  H
  H30      1.0000 0.92960  0.64460  0.28493  Biso   1.000  H
  C61      1.0000 0.00000  0.65310  0.16670  Biso   1.000  C
  C62      1.0000 0.34690  0.34690  0.50003  Biso   1.000  C
  C63      1.0000 0.65310  0.00000  0.83337  Biso   1.000  C
  C64      1.0000 0.10640  0.38390  0.13330  Biso   1.000  C
  C65      1.0000 0.61610  0.72250  0.46663  Biso   1.000  C
  C66      1.0000 0.27750  0.89360  0.79997  Biso   1.000  C
  C67      1.0000 0.38390  0.10640  0.86670  Biso   1.000  C
  C68      1.0000 0.72250  0.61610  0.53337  Biso   1.000  C
  C69      1.0000 0.89360  0.27750  0.20003  Biso   1.000  C
  H31      1.0000 0.18280  0.37980  0.11130  Biso   1.000  H
  H32      1.0000 0.62020  0.80300  0.44463  Biso   1.000  H
  H33      1.0000 0.19700  0.81720  0.77797  Biso   1.000  H
  H34      1.0000 0.37980  0.18280  0.88870  Biso   1.000  H
  H35      1.0000 0.80300  0.62020  0.55537  Biso   1.000  H
  H36      1.0000 0.81720  0.19700  0.22203  Biso   1.000  H
  C70      1.0000 0.10650  0.50700  0.13030  Biso   1.000  C
  C71      1.0000 0.49300  0.59950  0.46363  Biso   1.000  C
  C72      1.0000 0.40050  0.89350  0.79697  Biso   1.000  C
  C73      1.0000 0.50700  0.10650  0.86970  Biso   1.000  C
  C74      1.0000 0.59950  0.49300  0.53637  Biso   1.000  C
  C75      1.0000 0.89350  0.40050  0.20303  Biso   1.000  C
  H37      1.0000 0.17950  0.58410  0.10340  Biso   1.000  H
  H38      1.0000 0.41590  0.59540  0.43673  Biso   1.000  H
  H39      1.0000 0.40460  0.82050  0.77007  Biso   1.000  H
  H40      1.0000 0.58410  0.17950  0.89660  Biso   1.000  H
  H41      1.0000 0.59540  0.41590  0.56327  Biso   1.000  H
  H42      1.0000 0.82050  0.40460  0.22993  Biso   1.000  H
  C76      1.0000 0.00000  0.51950  0.16670  Biso   1.000  C
  C77      1.0000 0.48050  0.48050  0.50003  Biso   1.000  C
  C78      1.0000 0.51950  0.00000  0.83337  Biso   1.000  C
  Cu1      1.0000 0.00000  0.08645  0.16670  Biso   1.000  Cu
  Cu2      1.0000 0.91355  0.91355  0.50003  Biso   1.000  Cu
  Cu3      1.0000 0.08645  0.00000  0.83337  Biso   1.000  Cu
  N1       1.0000 0.00000  0.90890  0.16670  Biso   1.000  N
  N2       1.0000 0.09110  0.09110  0.50003  Biso   1.000  N
  N3       1.0000 0.90890  0.00000  0.83337  Biso   1.000  N
  N4       1.0000 0.00000  0.26760  0.16670  Biso   1.000  N
  N5       1.0000 0.73240  0.73240  0.50003  Biso   1.000  N
  N6       1.0000 0.26760  0.00000  0.83337  Biso   1.000  N
  O1       1.0000 0.82990  0.00350  0.09920  Biso   1.000  O
  O2       1.0000 0.99650  0.82640  0.43253  Biso   1.000  O
  O3       1.0000 0.17360  0.17010  0.76587  Biso   1.000  O
  O4       1.0000 0.00350  0.82990  0.90080  Biso   1.000  O
  O5       1.0000 0.82640  0.99650  0.56747  Biso   1.000  O
  O6       1.0000 0.17010  0.17360  0.23413  Biso   1.000  O
  O7       1.0000 0.68540  0.85340  0.19110  Biso   1.000  O
  O8       1.0000 0.14660  0.83200  0.52443  Biso   1.000  O
  O9       1.0000 0.16800  0.31460  0.85777  Biso   1.000  O
  O10      1.0000 0.85340  0.68540  0.80890  Biso   1.000  O
  O11      1.0000 0.83200  0.14660  0.47557  Biso   1.000  O
  O12      1.0000 0.31460  0.16800  0.14223  Biso   1.000  O
  O13      1.0000 0.58280  0.05450  0.13240  Biso   1.000  O
  O14      1.0000 0.94550  0.52830  0.46573  Biso   1.000  O
  O15      1.0000 0.47170  0.41720  0.79907  Biso   1.000  O
  O16      1.0000 0.05450  0.58280  0.86760  Biso   1.000  O
  O17      1.0000 0.52830  0.94550  0.53427  Biso   1.000  O
  O18      1.0000 0.41720  0.47170  0.20093  Biso   1.000  O
  O19      1.0000 0.37170  0.97530  0.07970  Biso   1.000  O
  O20      1.0000 0.02470  0.39640  0.41303  Biso   1.000  O
  O21      1.0000 0.60360  0.62830  0.74637  Biso   1.000  O
  O22      1.0000 0.97530  0.37170  0.92030  Biso   1.000  O
  O23      1.0000 0.39640  0.02470  0.58697  Biso   1.000  O
  O24      1.0000 0.62830  0.60360  0.25363  Biso   1.000  O
  H43      1.0000 0.35360  0.03640  0.09950  Biso   1.000  H
  H44      1.0000 0.96360  0.31720  0.43283  Biso   1.000  H
  H45      1.0000 0.68280  0.64640  0.76617  Biso   1.000  H
  H46      1.0000 0.03640  0.35360  0.90050  Biso   1.000  H
  H47      1.0000 0.31720  0.96360  0.56717  Biso   1.000  H
  H48      1.0000 0.64640  0.68280  0.23383  Biso   1.000  H
  O25      1.0000 0.73410  0.73410  0.00000  Biso   1.000  O
  O26      1.0000 0.26590  0.00000  0.33333  Biso   1.000  O
  O27      1.0000 0.00000  0.26590  0.66667  Biso   1.000  O
