data_image0
_cell_length_a       8.8243
_cell_length_b       16.14
_cell_length_c       11.8872
_cell_angle_alpha    90
_cell_angle_beta     102.201
_cell_angle_gamma    90

_symmetry_space_group_name_H-M    "P 1"
_symmetry_int_tables_number       1

loop_
  _symmetry_equiv_pos_as_xyz
  'x, y, z'

loop_
  _atom_site_label
  _atom_site_occupancy
  _atom_site_fract_x
  _atom_site_fract_y
  _atom_site_fract_z
  _atom_site_thermal_displace_type
  _atom_site_B_iso_or_equiv
  _atom_site_type_symbol
  Cu1      1.0000 0.15440  0.30085  0.77124  Biso   1.000  Cu
  Cu2      1.0000 0.34560  0.80085  0.72876  Biso   1.000  Cu
  Cu3      1.0000 0.84560  0.69915  0.22876  Biso   1.000  Cu
  Cu4      1.0000 0.65440  0.19915  0.27124  Biso   1.000  Cu
  N1       1.0000 0.47690  0.31038  0.73240  Biso   1.000  N
  N2       1.0000 0.02310  0.81038  0.76760  Biso   1.000  N
  N3       1.0000 0.52310  0.68962  0.26760  Biso   1.000  N
  N4       1.0000 0.97690  0.18962  0.23240  Biso   1.000  N
  H1       1.0000 0.48980  0.25810  0.74450  Biso   1.000  H
  H2       1.0000 0.01020  0.75810  0.75550  Biso   1.000  H
  H3       1.0000 0.51020  0.74190  0.25550  Biso   1.000  H
  H4       1.0000 0.98980  0.24190  0.24450  Biso   1.000  H
  O1       1.0000 0.15226  0.39272  0.87914  Biso   1.000  O
  O2       1.0000 0.34774  0.89272  0.62086  Biso   1.000  O
  O3       1.0000 0.84774  0.60728  0.12086  Biso   1.000  O
  O4       1.0000 0.65226  0.10728  0.37914  Biso   1.000  O
  O5       1.0000 0.35000  0.70894  0.83751  Biso   1.000  O
  O6       1.0000 0.15000  0.20894  0.66249  Biso   1.000  O
  O7       1.0000 0.65000  0.29106  0.16249  Biso   1.000  O
  O8       1.0000 0.85000  0.79106  0.33751  Biso   1.000  O
  C1       1.0000 0.23600  0.39021  0.98010  Biso   1.000  C
  C2       1.0000 0.26400  0.89021  0.51990  Biso   1.000  C
  C3       1.0000 0.76400  0.60979  0.01990  Biso   1.000  C
  C4       1.0000 0.73600  0.10979  0.48010  Biso   1.000  C
  O9       1.0000 0.30920  0.32794  0.02244  Biso   1.000  O
  O10      1.0000 0.19080  0.82794  0.47756  Biso   1.000  O
  O11      1.0000 0.69080  0.67206  0.97756  Biso   1.000  O
  O12      1.0000 0.80920  0.17206  0.52244  Biso   1.000  O
  N5       1.0000 0.34590  0.35152  0.73615  Biso   1.000  N
  N6       1.0000 0.15410  0.85152  0.76385  Biso   1.000  N
  N7       1.0000 0.65410  0.64848  0.26385  Biso   1.000  N
  N8       1.0000 0.84590  0.14848  0.23615  Biso   1.000  N
  N9       1.0000 0.99160  0.23823  0.83321  Biso   1.000  N
  N10      1.0000 0.50840  0.73823  0.66679  Biso   1.000  N
  N11      1.0000 0.00840  0.76177  0.16679  Biso   1.000  N
  N12      1.0000 0.49160  0.26177  0.33321  Biso   1.000  N
  N13      1.0000 0.98150  0.37231  0.64078  Biso   1.000  N
  N14      1.0000 0.51850  0.87231  0.85922  Biso   1.000  N
  N15      1.0000 0.01850  0.62769  0.35922  Biso   1.000  N
  N16      1.0000 0.48150  0.12769  0.14078  Biso   1.000  N
  N17      1.0000 0.88310  0.19130  0.76419  Biso   1.000  N
  N18      1.0000 0.61690  0.69130  0.73581  Biso   1.000  N
  N19      1.0000 0.11690  0.80870  0.23581  Biso   1.000  N
  N20      1.0000 0.38310  0.30870  0.26419  Biso   1.000  N
  H5       1.0000 0.88430  0.17900  0.69400  Biso   1.000  H
  H6       1.0000 0.61570  0.67900  0.80600  Biso   1.000  H
  H7       1.0000 0.11570  0.82100  0.30600  Biso   1.000  H
  H8       1.0000 0.38430  0.32100  0.19400  Biso   1.000  H
  C5       1.0000 0.23970  0.46717  0.05350  Biso   1.000  C
  C6       1.0000 0.26030  0.96717  0.44650  Biso   1.000  C
  C7       1.0000 0.76030  0.53283  0.94650  Biso   1.000  C
  C8       1.0000 0.73970  0.03283  0.55350  Biso   1.000  C
  H9       1.0000 0.34510  0.47500  0.09650  Biso   1.000  H
  H10      1.0000 0.15490  0.97500  0.40350  Biso   1.000  H
  H11      1.0000 0.65490  0.52500  0.90350  Biso   1.000  H
  H12      1.0000 0.84510  0.02500  0.59650  Biso   1.000  H
  H13      1.0000 0.17530  0.45730  0.10890  Biso   1.000  H
  H14      1.0000 0.32470  0.95730  0.39110  Biso   1.000  H
  H15      1.0000 0.82470  0.54270  0.89110  Biso   1.000  H
  H16      1.0000 0.67530  0.04270  0.60890  Biso   1.000  H
  C9       1.0000 0.18660  0.54734  0.99032  Biso   1.000  C
  C10      1.0000 0.31340  0.04734  0.50968  Biso   1.000  C
  C11      1.0000 0.81340  0.45266  0.00968  Biso   1.000  C
  C12      1.0000 0.68660  0.95266  0.49032  Biso   1.000  C
  H17      1.0000 0.09580  0.53610  0.93040  Biso   1.000  H
  H18      1.0000 0.40420  0.03610  0.56960  Biso   1.000  H
  H19      1.0000 0.90420  0.46390  0.06960  Biso   1.000  H
  H20      1.0000 0.59580  0.96390  0.43040  Biso   1.000  H
  H21      1.0000 0.15650  0.58620  0.04390  Biso   1.000  H
  H22      1.0000 0.34350  0.08620  0.45610  Biso   1.000  H
  H23      1.0000 0.84350  0.41380  0.95610  Biso   1.000  H
  H24      1.0000 0.65650  0.91380  0.54390  Biso   1.000  H
  O13      1.0000 0.11600  0.65083  0.79133  Biso   1.000  O
  O14      1.0000 0.38400  0.15083  0.70867  Biso   1.000  O
  O15      1.0000 0.88400  0.34917  0.20867  Biso   1.000  O
  O16      1.0000 0.61600  0.84917  0.29133  Biso   1.000  O
  C13      1.0000 0.77410  0.16661  0.81910  Biso   1.000  C
  C14      1.0000 0.72590  0.66661  0.68090  Biso   1.000  C
  C15      1.0000 0.22590  0.83339  0.18090  Biso   1.000  C
  C16      1.0000 0.27410  0.33339  0.31910  Biso   1.000  C
  H25      1.0000 0.68820  0.13420  0.78840  Biso   1.000  H
  H26      1.0000 0.81180  0.63420  0.71160  Biso   1.000  H
  H27      1.0000 0.31180  0.86580  0.21160  Biso   1.000  H
  H28      1.0000 0.18820  0.36580  0.28840  Biso   1.000  H
  C17      1.0000 0.31020  0.58694  0.93650  Biso   1.000  C
  C18      1.0000 0.18980  0.08694  0.56350  Biso   1.000  C
  C19      1.0000 0.68980  0.41306  0.06350  Biso   1.000  C
  C20      1.0000 0.81020  0.91306  0.43650  Biso   1.000  C
  H29      1.0000 0.35970  0.54390  0.90000  Biso   1.000  H
  H30      1.0000 0.14030  0.04390  0.60000  Biso   1.000  H
  H31      1.0000 0.64030  0.45610  0.10000  Biso   1.000  H
  H32      1.0000 0.85970  0.95610  0.40000  Biso   1.000  H
  H33      1.0000 0.38870  0.61100  0.99730  Biso   1.000  H
  H34      1.0000 0.11130  0.11100  0.50270  Biso   1.000  H
  H35      1.0000 0.61130  0.38900  0.00270  Biso   1.000  H
  H36      1.0000 0.88870  0.88900  0.49730  Biso   1.000  H
  C21      1.0000 0.93810  0.45062  0.64121  Biso   1.000  C
  C22      1.0000 0.56190  0.95062  0.85879  Biso   1.000  C
  C23      1.0000 0.06190  0.54938  0.35879  Biso   1.000  C
  C24      1.0000 0.43810  0.04938  0.14121  Biso   1.000  C
  H37      1.0000 0.97640  0.48800  0.69990  Biso   1.000  H
  H38      1.0000 0.52360  0.98800  0.80010  Biso   1.000  H
  H39      1.0000 0.02360  0.51200  0.30010  Biso   1.000  H
  H40      1.0000 0.47640  0.01200  0.19990  Biso   1.000  H
  C25      1.0000 0.25100  0.65371  0.84795  Biso   1.000  C
  C26      1.0000 0.24900  0.15371  0.65205  Biso   1.000  C
  C27      1.0000 0.74900  0.34629  0.15205  Biso   1.000  C
  C28      1.0000 0.75100  0.84629  0.34795  Biso   1.000  C
  N21      1.0000 0.89900  0.34147  0.54098  Biso   1.000  N
  N22      1.0000 0.60100  0.84147  0.95902  Biso   1.000  N
  N23      1.0000 0.10100  0.65853  0.45902  Biso   1.000  N
  N24      1.0000 0.39900  0.15853  0.04098  Biso   1.000  N
  H41      1.0000 0.90580  0.29130  0.51830  Biso   1.000  H
  H42      1.0000 0.59420  0.79130  0.98170  Biso   1.000  H
  H43      1.0000 0.09420  0.70870  0.48170  Biso   1.000  H
  H44      1.0000 0.40580  0.20870  0.01830  Biso   1.000  H
  C29      1.0000 0.80540  0.39853  0.48180  Biso   1.000  C
  C30      1.0000 0.69460  0.89853  0.01820  Biso   1.000  C
  C31      1.0000 0.19460  0.60147  0.51820  Biso   1.000  C
  C32      1.0000 0.30540  0.10147  0.98180  Biso   1.000  C
  H45      1.0000 0.73720  0.39070  0.41150  Biso   1.000  H
  H46      1.0000 0.76280  0.89070  0.08850  Biso   1.000  H
  H47      1.0000 0.26280  0.60930  0.58850  Biso   1.000  H
  H48      1.0000 0.23720  0.10930  0.91150  Biso   1.000  H
  C33      1.0000 0.52150  0.43872  0.69370  Biso   1.000  C
  C34      1.0000 0.97850  0.93872  0.80630  Biso   1.000  C
  C35      1.0000 0.47850  0.56128  0.30630  Biso   1.000  C
  C36      1.0000 0.02150  0.06128  0.19370  Biso   1.000  C
  H49      1.0000 0.56800  0.48710  0.67530  Biso   1.000  H
  H50      1.0000 0.93200  0.98710  0.82470  Biso   1.000  H
  H51      1.0000 0.43200  0.51290  0.32470  Biso   1.000  H
  H52      1.0000 0.06800  0.01290  0.17530  Biso   1.000  H
  C37      1.0000 0.94680  0.24197  0.93339  Biso   1.000  C
  C38      1.0000 0.55320  0.74197  0.56661  Biso   1.000  C
  C39      1.0000 0.05320  0.75803  0.06661  Biso   1.000  C
  C40      1.0000 0.44680  0.25803  0.43339  Biso   1.000  C
  H53      1.0000 0.99960  0.27060  0.99780  Biso   1.000  H
  H54      1.0000 0.50040  0.77060  0.50220  Biso   1.000  H
  H55      1.0000 0.00040  0.72940  0.00220  Biso   1.000  H
  H56      1.0000 0.49960  0.22940  0.49780  Biso   1.000  H
  C41      1.0000 0.37360  0.42965  0.71310  Biso   1.000  C
  C42      1.0000 0.12640  0.92965  0.78690  Biso   1.000  C
  C43      1.0000 0.62640  0.57035  0.28690  Biso   1.000  C
  C44      1.0000 0.87360  0.07035  0.21310  Biso   1.000  C
  H57      1.0000 0.30280  0.47270  0.71040  Biso   1.000  H
  H58      1.0000 0.19720  0.97270  0.78960  Biso   1.000  H
  H59      1.0000 0.69720  0.52730  0.28960  Biso   1.000  H
  H60      1.0000 0.80280  0.02730  0.21040  Biso   1.000  H
  C45      1.0000 0.81120  0.19766  0.92900  Biso   1.000  C
  C46      1.0000 0.68880  0.69766  0.57100  Biso   1.000  C
  C47      1.0000 0.18880  0.80234  0.07100  Biso   1.000  C
  C48      1.0000 0.31120  0.30234  0.42900  Biso   1.000  C
  H61      1.0000 0.75730  0.19050  0.98760  Biso   1.000  H
  H62      1.0000 0.74270  0.69050  0.51240  Biso   1.000  H
  H63      1.0000 0.24270  0.80950  0.01240  Biso   1.000  H
  H64      1.0000 0.25730  0.30950  0.48760  Biso   1.000  H
  C49      1.0000 0.82800  0.47002  0.54300  Biso   1.000  C
  C50      1.0000 0.67200  0.97002  0.95700  Biso   1.000  C
  C51      1.0000 0.17200  0.52998  0.45700  Biso   1.000  C
  C52      1.0000 0.32800  0.02998  0.04300  Biso   1.000  C
  H65      1.0000 0.78020  0.52090  0.52340  Biso   1.000  H
  H66      1.0000 0.71980  0.02090  0.97660  Biso   1.000  H
  H67      1.0000 0.21980  0.47910  0.47660  Biso   1.000  H
  H68      1.0000 0.28020  0.97910  0.02340  Biso   1.000  H
  C53      1.0000 0.58470  0.36121  0.70740  Biso   1.000  C
  C54      1.0000 0.91530  0.86121  0.79260  Biso   1.000  C
  C55      1.0000 0.41530  0.63879  0.29260  Biso   1.000  C
  C56      1.0000 0.08470  0.13879  0.20740  Biso   1.000  C
  H69      1.0000 0.68430  0.34650  0.70050  Biso   1.000  H
  H70      1.0000 0.81570  0.84650  0.79950  Biso   1.000  H
  H71      1.0000 0.31570  0.65350  0.29950  Biso   1.000  H
  H72      1.0000 0.18430  0.15350  0.20050  Biso   1.000  H
