data_image0
_cell_length_a       9.336
_cell_length_b       25.97
_cell_length_c       8.25
_cell_angle_alpha    90
_cell_angle_beta     106.045
_cell_angle_gamma    90

_symmetry_space_group_name_H-M    "P 1"
_symmetry_int_tables_number       1

loop_
  _symmetry_equiv_pos_as_xyz
  'x, y, z'

loop_
  _atom_site_label
  _atom_site_occupancy
  _atom_site_fract_x
  _atom_site_fract_y
  _atom_site_fract_z
  _atom_site_thermal_displace_type
  _atom_site_B_iso_or_equiv
  _atom_site_type_symbol
  Cu1      1.0000 0.94038  0.27298  0.43434  Biso   1.000  Cu
  Cu2      1.0000 0.94038  0.72702  0.93434  Biso   1.000  Cu
  Cu3      1.0000 0.44038  0.77298  0.43434  Biso   1.000  Cu
  Cu4      1.0000 0.44038  0.22702  0.93434  Biso   1.000  Cu
  O1       1.0000 0.04820  0.27210  0.26410  Biso   1.000  O
  O2       1.0000 0.04820  0.72790  0.76410  Biso   1.000  O
  O3       1.0000 0.54820  0.77210  0.26410  Biso   1.000  O
  O4       1.0000 0.54820  0.22790  0.76410  Biso   1.000  O
  O5       1.0000 0.16890  0.31250  0.10520  Biso   1.000  O
  O6       1.0000 0.16890  0.68750  0.60520  Biso   1.000  O
  O7       1.0000 0.66890  0.81250  0.10520  Biso   1.000  O
  O8       1.0000 0.66890  0.18750  0.60520  Biso   1.000  O
  O9       1.0000 0.92000  0.35690  0.32580  Biso   1.000  O
  O10      1.0000 0.92000  0.64310  0.82580  Biso   1.000  O
  O11      1.0000 0.42000  0.85690  0.32580  Biso   1.000  O
  O12      1.0000 0.42000  0.14310  0.82580  Biso   1.000  O
  O13      1.0000 0.25240  0.24670  0.76130  Biso   1.000  O
  O14      1.0000 0.25240  0.75330  0.26130  Biso   1.000  O
  O15      1.0000 0.75240  0.74670  0.76130  Biso   1.000  O
  O16      1.0000 0.75240  0.25330  0.26130  Biso   1.000  O
  O17      1.0000 0.10920  0.30590  0.59850  Biso   1.000  O
  O18      1.0000 0.10920  0.69410  0.09850  Biso   1.000  O
  O19      1.0000 0.60920  0.80590  0.59850  Biso   1.000  O
  O20      1.0000 0.60920  0.19410  0.09850  Biso   1.000  O
  O21      1.0000 0.43960  0.31584  0.93270  Biso   1.000  O
  O22      1.0000 0.43960  0.68416  0.43270  Biso   1.000  O
  O23      1.0000 0.93960  0.81584  0.93270  Biso   1.000  O
  O24      1.0000 0.93960  0.18416  0.43270  Biso   1.000  O
  O25      1.0000 0.82130  0.27240  0.59820  Biso   1.000  O
  O26      1.0000 0.82130  0.72760  0.09820  Biso   1.000  O
  O27      1.0000 0.32130  0.77240  0.59820  Biso   1.000  O
  O28      1.0000 0.32130  0.22760  0.09820  Biso   1.000  O
  H1       1.0000 0.71950  0.26290  0.55650  Biso   1.000  H
  H2       1.0000 0.71950  0.73710  0.05650  Biso   1.000  H
  H3       1.0000 0.21950  0.76290  0.55650  Biso   1.000  H
  H4       1.0000 0.21950  0.23710  0.05650  Biso   1.000  H
  C1       1.0000 0.08840  0.31200  0.20350  Biso   1.000  C
  C2       1.0000 0.08840  0.68800  0.70350  Biso   1.000  C
  C3       1.0000 0.58840  0.81200  0.20350  Biso   1.000  C
  C4       1.0000 0.58840  0.18800  0.70350  Biso   1.000  C
  C5       1.0000 0.03710  0.36460  0.25250  Biso   1.000  C
  C6       1.0000 0.03710  0.63540  0.75250  Biso   1.000  C
  C7       1.0000 0.53710  0.86460  0.25250  Biso   1.000  C
  C8       1.0000 0.53710  0.13540  0.75250  Biso   1.000  C
  H5       1.0000 0.12220  0.38060  0.33920  Biso   1.000  H
  H6       1.0000 0.12220  0.61940  0.83920  Biso   1.000  H
  H7       1.0000 0.62220  0.88060  0.33920  Biso   1.000  H
  H8       1.0000 0.62220  0.11940  0.83920  Biso   1.000  H
  C9       1.0000 0.99330  0.40080  0.10140  Biso   1.000  C
  C10      1.0000 0.99330  0.59920  0.60140  Biso   1.000  C
  C11      1.0000 0.49330  0.90080  0.10140  Biso   1.000  C
  C12      1.0000 0.49330  0.09920  0.60140  Biso   1.000  C
  C13      1.0000 0.09060  0.43440  0.06530  Biso   1.000  C
  C14      1.0000 0.09060  0.56560  0.56530  Biso   1.000  C
  C15      1.0000 0.59060  0.93440  0.06530  Biso   1.000  C
  C16      1.0000 0.59060  0.06560  0.56530  Biso   1.000  C
  H9       1.0000 0.18910  0.43640  0.13780  Biso   1.000  H
  H10      1.0000 0.18910  0.56360  0.63780  Biso   1.000  H
  H11      1.0000 0.68910  0.93640  0.13780  Biso   1.000  H
  H12      1.0000 0.68910  0.06360  0.63780  Biso   1.000  H
  C17      1.0000 0.04860  0.46660  0.92210  Biso   1.000  C
  C18      1.0000 0.04860  0.53340  0.42210  Biso   1.000  C
  C19      1.0000 0.54860  0.96660  0.92210  Biso   1.000  C
  C20      1.0000 0.54860  0.03340  0.42210  Biso   1.000  C
  H13      1.0000 0.11930  0.48900  0.89560  Biso   1.000  H
  H14      1.0000 0.11930  0.51100  0.39560  Biso   1.000  H
  H15      1.0000 0.61930  0.98900  0.89560  Biso   1.000  H
  H16      1.0000 0.61930  0.01100  0.39560  Biso   1.000  H
  C21      1.0000 0.90460  0.46510  0.82170  Biso   1.000  C
  C22      1.0000 0.90460  0.53490  0.32170  Biso   1.000  C
  C23      1.0000 0.40460  0.96510  0.82170  Biso   1.000  C
  C24      1.0000 0.40460  0.03490  0.32170  Biso   1.000  C
  H17      1.0000 0.87560  0.48670  0.72510  Biso   1.000  H
  H18      1.0000 0.87560  0.51330  0.22510  Biso   1.000  H
  H19      1.0000 0.37560  0.98670  0.72510  Biso   1.000  H
  H20      1.0000 0.37560  0.01330  0.22510  Biso   1.000  H
  C25      1.0000 0.80330  0.43320  0.85880  Biso   1.000  C
  C26      1.0000 0.80330  0.56680  0.35880  Biso   1.000  C
  C27      1.0000 0.30330  0.93320  0.85880  Biso   1.000  C
  C28      1.0000 0.30330  0.06680  0.35880  Biso   1.000  C
  H21      1.0000 0.70300  0.43300  0.79060  Biso   1.000  H
  H22      1.0000 0.70300  0.56700  0.29060  Biso   1.000  H
  H23      1.0000 0.20300  0.93300  0.79060  Biso   1.000  H
  H24      1.0000 0.20300  0.06700  0.29060  Biso   1.000  H
  C29      1.0000 0.84770  0.40010  0.99940  Biso   1.000  C
  C30      1.0000 0.84770  0.59990  0.49940  Biso   1.000  C
  C31      1.0000 0.34770  0.90010  0.99940  Biso   1.000  C
  C32      1.0000 0.34770  0.09990  0.49940  Biso   1.000  C
  H25      1.0000 0.77740  0.37720  0.02450  Biso   1.000  H
  H26      1.0000 0.77740  0.62280  0.52450  Biso   1.000  H
  H27      1.0000 0.27740  0.87720  0.02450  Biso   1.000  H
  H28      1.0000 0.27740  0.12280  0.52450  Biso   1.000  H
  C33      1.0000 0.90400  0.39860  0.43410  Biso   1.000  C
  C34      1.0000 0.90400  0.60140  0.93410  Biso   1.000  C
  C35      1.0000 0.40400  0.89860  0.43410  Biso   1.000  C
  C36      1.0000 0.40400  0.10140  0.93410  Biso   1.000  C
  H29      1.0000 0.82110  0.39130  0.48200  Biso   1.000  H
  H30      1.0000 0.82110  0.60870  0.98200  Biso   1.000  H
  H31      1.0000 0.32110  0.89130  0.48200  Biso   1.000  H
  H32      1.0000 0.32110  0.10870  0.98200  Biso   1.000  H
  H33      1.0000 0.99620  0.40240  0.52540  Biso   1.000  H
  H34      1.0000 0.99620  0.59760  0.02540  Biso   1.000  H
  H35      1.0000 0.49620  0.90240  0.52540  Biso   1.000  H
  H36      1.0000 0.49620  0.09760  0.02540  Biso   1.000  H
  H37      1.0000 0.88380  0.43060  0.36850  Biso   1.000  H
  H38      1.0000 0.88380  0.56940  0.86850  Biso   1.000  H
  H39      1.0000 0.38380  0.93060  0.36850  Biso   1.000  H
  H40      1.0000 0.38380  0.06940  0.86850  Biso   1.000  H
  C37      1.0000 0.22120  0.29080  0.71500  Biso   1.000  C
  C38      1.0000 0.22120  0.70920  0.21500  Biso   1.000  C
  C39      1.0000 0.72120  0.79080  0.71500  Biso   1.000  C
  C40      1.0000 0.72120  0.20920  0.21500  Biso   1.000  C
  C41      1.0000 0.31390  0.33750  0.80330  Biso   1.000  C
  C42      1.0000 0.31390  0.66250  0.30330  Biso   1.000  C
  C43      1.0000 0.81390  0.83750  0.80330  Biso   1.000  C
  C44      1.0000 0.81390  0.16250  0.30330  Biso   1.000  C
  H41      1.0000 0.25190  0.35920  0.85810  Biso   1.000  H
  H42      1.0000 0.25190  0.64080  0.35810  Biso   1.000  H
  H43      1.0000 0.75190  0.85920  0.85810  Biso   1.000  H
  H44      1.0000 0.75190  0.14080  0.35810  Biso   1.000  H
  C45      1.0000 0.37170  0.36970  0.68700  Biso   1.000  C
  C46      1.0000 0.37170  0.63030  0.18700  Biso   1.000  C
  C47      1.0000 0.87170  0.86970  0.68700  Biso   1.000  C
  C48      1.0000 0.87170  0.13030  0.18700  Biso   1.000  C
  C49      1.0000 0.34300  0.42180  0.67020  Biso   1.000  C
  C50      1.0000 0.34300  0.57820  0.17020  Biso   1.000  C
  C51      1.0000 0.84300  0.92180  0.67020  Biso   1.000  C
  C52      1.0000 0.84300  0.07820  0.17020  Biso   1.000  C
  H45      1.0000 0.28340  0.43750  0.73280  Biso   1.000  H
  H46      1.0000 0.28340  0.56250  0.23280  Biso   1.000  H
  H47      1.0000 0.78340  0.93750  0.73280  Biso   1.000  H
  H48      1.0000 0.78340  0.06250  0.23280  Biso   1.000  H
  C53      1.0000 0.40140  0.45210  0.56060  Biso   1.000  C
  C54      1.0000 0.40140  0.54790  0.06060  Biso   1.000  C
  C55      1.0000 0.90140  0.95210  0.56060  Biso   1.000  C
  C56      1.0000 0.90140  0.04790  0.06060  Biso   1.000  C
  H49      1.0000 0.38050  0.48790  0.55040  Biso   1.000  H
  H50      1.0000 0.38050  0.51210  0.05040  Biso   1.000  H
  H51      1.0000 0.88050  0.98790  0.55040  Biso   1.000  H
  H52      1.0000 0.88050  0.01210  0.05040  Biso   1.000  H
  C57      1.0000 0.48510  0.43090  0.47210  Biso   1.000  C
  C58      1.0000 0.48510  0.56910  0.97210  Biso   1.000  C
  C59      1.0000 0.98510  0.93090  0.47210  Biso   1.000  C
  C60      1.0000 0.98510  0.06910  0.97210  Biso   1.000  C
  H53      1.0000 0.52290  0.45150  0.39820  Biso   1.000  H
  H54      1.0000 0.52290  0.54850  0.89820  Biso   1.000  H
  H55      1.0000 0.02290  0.95150  0.39820  Biso   1.000  H
  H56      1.0000 0.02290  0.04850  0.89820  Biso   1.000  H
  C61      1.0000 0.51720  0.37880  0.48750  Biso   1.000  C
  C62      1.0000 0.51720  0.62120  0.98750  Biso   1.000  C
  C63      1.0000 0.01720  0.87880  0.48750  Biso   1.000  C
  C64      1.0000 0.01720  0.12120  0.98750  Biso   1.000  C
  H57      1.0000 0.57860  0.36350  0.42610  Biso   1.000  H
  H58      1.0000 0.57860  0.63650  0.92610  Biso   1.000  H
  H59      1.0000 0.07860  0.86350  0.42610  Biso   1.000  H
  H60      1.0000 0.07860  0.13650  0.92610  Biso   1.000  H
  C65      1.0000 0.45800  0.34890  0.59450  Biso   1.000  C
  C66      1.0000 0.45800  0.65110  0.09450  Biso   1.000  C
  C67      1.0000 0.95800  0.84890  0.59450  Biso   1.000  C
  C68      1.0000 0.95800  0.15110  0.09450  Biso   1.000  C
  H61      1.0000 0.47840  0.31300  0.60300  Biso   1.000  H
  H62      1.0000 0.47840  0.68700  0.10300  Biso   1.000  H
  H63      1.0000 0.97840  0.81300  0.60300  Biso   1.000  H
  H64      1.0000 0.97840  0.18700  0.10300  Biso   1.000  H
  C69      1.0000 0.49370  0.35020  0.07090  Biso   1.000  C
  C70      1.0000 0.49370  0.64980  0.57090  Biso   1.000  C
  C71      1.0000 0.99370  0.85020  0.07090  Biso   1.000  C
  C72      1.0000 0.99370  0.14980  0.57090  Biso   1.000  C
  H65      1.0000 0.52020  0.38320  0.02920  Biso   1.000  H
  H66      1.0000 0.52020  0.61680  0.52920  Biso   1.000  H
  H67      1.0000 0.02020  0.88320  0.02920  Biso   1.000  H
  H68      1.0000 0.02020  0.11680  0.52920  Biso   1.000  H
  H69      1.0000 0.58190  0.33520  0.15030  Biso   1.000  H
  H70      1.0000 0.58190  0.66480  0.65030  Biso   1.000  H
  H71      1.0000 0.08190  0.83520  0.15030  Biso   1.000  H
  H72      1.0000 0.08190  0.16480  0.65030  Biso   1.000  H
  H73      1.0000 0.41600  0.35580  0.12830  Biso   1.000  H
  H74      1.0000 0.41600  0.64420  0.62830  Biso   1.000  H
  H75      1.0000 0.91600  0.85580  0.12830  Biso   1.000  H
  H76      1.0000 0.91600  0.14420  0.62830  Biso   1.000  H
  C73      1.0000 0.87300  0.28480  0.77290  Biso   1.000  C
  C74      1.0000 0.87300  0.71520  0.27290  Biso   1.000  C
  C75      1.0000 0.37300  0.78480  0.77290  Biso   1.000  C
  C76      1.0000 0.37300  0.21520  0.27290  Biso   1.000  C
  H77      1.0000 0.85260  0.32110  0.78950  Biso   1.000  H
  H78      1.0000 0.85260  0.67890  0.28950  Biso   1.000  H
  H79      1.0000 0.35260  0.82110  0.78950  Biso   1.000  H
  H80      1.0000 0.35260  0.17890  0.28950  Biso   1.000  H
  H81      1.0000 0.82150  0.26320  0.83650  Biso   1.000  H
  H82      1.0000 0.82150  0.73680  0.33650  Biso   1.000  H
  H83      1.0000 0.32150  0.76320  0.83650  Biso   1.000  H
  H84      1.0000 0.32150  0.23680  0.33650  Biso   1.000  H
  H85      1.0000 0.98060  0.27850  0.81300  Biso   1.000  H
  H86      1.0000 0.98060  0.72150  0.31300  Biso   1.000  H
  H87      1.0000 0.48060  0.77850  0.81300  Biso   1.000  H
  H88      1.0000 0.48060  0.22150  0.31300  Biso   1.000  H
