data_image0
_cell_length_a       5.2544
_cell_length_b       14.3115
_cell_length_c       17.6796
_cell_angle_alpha    90
_cell_angle_beta     90.26
_cell_angle_gamma    90

_symmetry_space_group_name_H-M    "P 1"
_symmetry_int_tables_number       1

loop_
  _symmetry_equiv_pos_as_xyz
  'x, y, z'

loop_
  _atom_site_label
  _atom_site_occupancy
  _atom_site_fract_x
  _atom_site_fract_y
  _atom_site_fract_z
  _atom_site_thermal_displace_type
  _atom_site_B_iso_or_equiv
  _atom_site_type_symbol
  Mo1      1.0000 0.27205  0.42472  0.07590  Biso   1.000  Mo
  Mo2      1.0000 0.22795  0.92472  0.42410  Biso   1.000  Mo
  Mo3      1.0000 0.72795  0.57528  0.92410  Biso   1.000  Mo
  Mo4      1.0000 0.77205  0.07528  0.57590  Biso   1.000  Mo
  Cu1      1.0000 0.25208  0.42135  0.87923  Biso   1.000  Cu
  Cu2      1.0000 0.24792  0.92135  0.62077  Biso   1.000  Cu
  Cu3      1.0000 0.74792  0.57865  0.12077  Biso   1.000  Cu
  Cu4      1.0000 0.75208  0.07865  0.37923  Biso   1.000  Cu
  N1       1.0000 0.63190  0.24200  0.74390  Biso   1.000  N
  N2       1.0000 0.86810  0.74200  0.75610  Biso   1.000  N
  N3       1.0000 0.36810  0.75800  0.25610  Biso   1.000  N
  N4       1.0000 0.13190  0.25800  0.24390  Biso   1.000  N
  H1       1.0000 0.64110  0.21980  0.69880  Biso   1.000  H
  H2       1.0000 0.85890  0.71980  0.80120  Biso   1.000  H
  H3       1.0000 0.35890  0.78020  0.30120  Biso   1.000  H
  H4       1.0000 0.14110  0.28020  0.19880  Biso   1.000  H
  N5       1.0000 0.49890  0.32790  0.84190  Biso   1.000  N
  N6       1.0000 0.00110  0.82790  0.65810  Biso   1.000  N
  N7       1.0000 0.50110  0.67210  0.15810  Biso   1.000  N
  N8       1.0000 0.99890  0.17210  0.34190  Biso   1.000  N
  N9       1.0000 0.13460  0.41450  0.76770  Biso   1.000  N
  N10      1.0000 0.36540  0.91450  0.73230  Biso   1.000  N
  N11      1.0000 0.86540  0.58550  0.23230  Biso   1.000  N
  N12      1.0000 0.63460  0.08550  0.26770  Biso   1.000  N
  C1       1.0000 0.78390  0.21810  0.80460  Biso   1.000  C
  C2       1.0000 0.71610  0.71810  0.69540  Biso   1.000  C
  C3       1.0000 0.21610  0.78190  0.19540  Biso   1.000  C
  C4       1.0000 0.28390  0.28190  0.30460  Biso   1.000  C
  C5       1.0000 0.98890  0.15770  0.81200  Biso   1.000  C
  C6       1.0000 0.51110  0.65770  0.68800  Biso   1.000  C
  C7       1.0000 0.01110  0.84230  0.18800  Biso   1.000  C
  C8       1.0000 0.48890  0.34230  0.31200  Biso   1.000  C
  H5       1.0000 0.04740  0.12370  0.77080  Biso   1.000  H
  H6       1.0000 0.45260  0.62370  0.72920  Biso   1.000  H
  H7       1.0000 0.95260  0.87630  0.22920  Biso   1.000  H
  H8       1.0000 0.54740  0.37630  0.27080  Biso   1.000  H
  C9       1.0000 0.10310  0.14940  0.88130  Biso   1.000  C
  C10      1.0000 0.39690  0.64940  0.61870  Biso   1.000  C
  C11      1.0000 0.89690  0.85060  0.11870  Biso   1.000  C
  C12      1.0000 0.60310  0.35060  0.38130  Biso   1.000  C
  H9       1.0000 0.23780  0.10800  0.88780  Biso   1.000  H
  H10      1.0000 0.26220  0.60800  0.61220  Biso   1.000  H
  H11      1.0000 0.76220  0.89200  0.11220  Biso   1.000  H
  H12      1.0000 0.73780  0.39200  0.38780  Biso   1.000  H
  C13      1.0000 0.01810  0.20320  0.94330  Biso   1.000  C
  C14      1.0000 0.48190  0.70320  0.55670  Biso   1.000  C
  C15      1.0000 0.98190  0.79680  0.05670  Biso   1.000  C
  C16      1.0000 0.51810  0.29680  0.44330  Biso   1.000  C
  H13      1.0000 0.09950  0.19750  0.98980  Biso   1.000  H
  H14      1.0000 0.40050  0.69750  0.51020  Biso   1.000  H
  H15      1.0000 0.90050  0.80250  0.01020  Biso   1.000  H
  H16      1.0000 0.59950  0.30250  0.48980  Biso   1.000  H
  C17      1.0000 0.81160  0.26540  0.93550  Biso   1.000  C
  C18      1.0000 0.68840  0.76540  0.56450  Biso   1.000  C
  C19      1.0000 0.18840  0.73460  0.06450  Biso   1.000  C
  C20      1.0000 0.31160  0.23460  0.43550  Biso   1.000  C
  H17      1.0000 0.75380  0.30040  0.97630  Biso   1.000  H
  H18      1.0000 0.74620  0.80040  0.52370  Biso   1.000  H
  H19      1.0000 0.24620  0.69960  0.02370  Biso   1.000  H
  H20      1.0000 0.25380  0.19960  0.47630  Biso   1.000  H
  C21      1.0000 0.70010  0.27230  0.86610  Biso   1.000  C
  C22      1.0000 0.79990  0.77230  0.63390  Biso   1.000  C
  C23      1.0000 0.29990  0.72770  0.13390  Biso   1.000  C
  C24      1.0000 0.20010  0.22770  0.36610  Biso   1.000  C
  C25      1.0000 0.46590  0.30680  0.76870  Biso   1.000  C
  C26      1.0000 0.03410  0.80680  0.73130  Biso   1.000  C
  C27      1.0000 0.53410  0.69320  0.23130  Biso   1.000  C
  C28      1.0000 0.96590  0.19320  0.26870  Biso   1.000  C
  C29      1.0000 0.26630  0.35270  0.72550  Biso   1.000  C
  C30      1.0000 0.23370  0.85270  0.77450  Biso   1.000  C
  C31      1.0000 0.73370  0.64730  0.27450  Biso   1.000  C
  C32      1.0000 0.76630  0.14730  0.22550  Biso   1.000  C
  C33      1.0000 0.94460  0.46200  0.73310  Biso   1.000  C
  C34      1.0000 0.55540  0.96200  0.76690  Biso   1.000  C
  C35      1.0000 0.05540  0.53800  0.26690  Biso   1.000  C
  C36      1.0000 0.44460  0.03800  0.23310  Biso   1.000  C
  H21      1.0000 0.84970  0.50400  0.76160  Biso   1.000  H
  H22      1.0000 0.65030  0.00400  0.73840  Biso   1.000  H
  H23      1.0000 0.15030  0.49600  0.23840  Biso   1.000  H
  H24      1.0000 0.34970  0.99600  0.26160  Biso   1.000  H
  C37      1.0000 0.88510  0.45120  0.65780  Biso   1.000  C
  C38      1.0000 0.61490  0.95120  0.84220  Biso   1.000  C
  C39      1.0000 0.11490  0.54880  0.34220  Biso   1.000  C
  C40      1.0000 0.38510  0.04880  0.15780  Biso   1.000  C
  H25      1.0000 0.75470  0.48580  0.63570  Biso   1.000  H
  H26      1.0000 0.74530  0.98580  0.86430  Biso   1.000  H
  H27      1.0000 0.24530  0.51420  0.36430  Biso   1.000  H
  H28      1.0000 0.25470  0.01420  0.13570  Biso   1.000  H
  C41      1.0000 0.02450  0.38720  0.61530  Biso   1.000  C
  C42      1.0000 0.47550  0.88720  0.88470  Biso   1.000  C
  C43      1.0000 0.97550  0.61280  0.38470  Biso   1.000  C
  C44      1.0000 0.52450  0.11280  0.11530  Biso   1.000  C
  H29      1.0000 0.98910  0.37860  0.56420  Biso   1.000  H
  H30      1.0000 0.51090  0.87860  0.93580  Biso   1.000  H
  H31      1.0000 0.01090  0.62140  0.43580  Biso   1.000  H
  H32      1.0000 0.48910  0.12140  0.06420  Biso   1.000  H
  C45      1.0000 0.21440  0.33720  0.65000  Biso   1.000  C
  C46      1.0000 0.28560  0.83720  0.85000  Biso   1.000  C
  C47      1.0000 0.78560  0.66280  0.35000  Biso   1.000  C
  C48      1.0000 0.71440  0.16280  0.15000  Biso   1.000  C
  H33      1.0000 0.30720  0.29330  0.62290  Biso   1.000  H
  H34      1.0000 0.19280  0.79330  0.87710  Biso   1.000  H
  H35      1.0000 0.69280  0.70670  0.37710  Biso   1.000  H
  H36      1.0000 0.80720  0.20670  0.12290  Biso   1.000  H
  O1       1.0000 0.37980  0.41040  0.98129  Biso   1.000  O
  O2       1.0000 0.12020  0.91040  0.51871  Biso   1.000  O
  O3       1.0000 0.62020  0.58960  0.01871  Biso   1.000  O
  O4       1.0000 0.87980  0.08960  0.48129  Biso   1.000  O
  O5       1.0000 0.12960  0.32010  0.10360  Biso   1.000  O
  O6       1.0000 0.37040  0.82010  0.39640  Biso   1.000  O
  O7       1.0000 0.87040  0.67990  0.89640  Biso   1.000  O
  O8       1.0000 0.62960  0.17990  0.60360  Biso   1.000  O
  O9       1.0000 0.05310  0.51720  0.08840  Biso   1.000  O
  O10      1.0000 0.44690  0.01720  0.41160  Biso   1.000  O
  O11      1.0000 0.94690  0.48280  0.91160  Biso   1.000  O
  O12      1.0000 0.55310  0.98280  0.58840  Biso   1.000  O
  O13      1.0000 0.52600  0.44400  0.13835  Biso   1.000  O
  O14      1.0000 0.97400  0.94400  0.36165  Biso   1.000  O
  O15      1.0000 0.47400  0.55600  0.86165  Biso   1.000  O
  O16      1.0000 0.02600  0.05600  0.63835  Biso   1.000  O
