data_image0
_cell_length_a       12.5202
_cell_length_b       6.7238
_cell_length_c       18.836
_cell_angle_alpha    90
_cell_angle_beta     108.694
_cell_angle_gamma    90

_symmetry_space_group_name_H-M    "P 1"
_symmetry_int_tables_number       1

loop_
  _symmetry_equiv_pos_as_xyz
  'x, y, z'

loop_
  _atom_site_label
  _atom_site_occupancy
  _atom_site_fract_x
  _atom_site_fract_y
  _atom_site_fract_z
  _atom_site_thermal_displace_type
  _atom_site_B_iso_or_equiv
  _atom_site_type_symbol
  Cu1      1.0000 0.57300  0.28818  0.22386  Biso   1.000  Cu
  Cu2      1.0000 0.92700  0.78818  0.27614  Biso   1.000  Cu
  Cu3      1.0000 0.42700  0.71182  0.77614  Biso   1.000  Cu
  Cu4      1.0000 0.07300  0.21182  0.72386  Biso   1.000  Cu
  O1       1.0000 0.66040  0.11840  0.15743  Biso   1.000  O
  O2       1.0000 0.83960  0.61840  0.34257  Biso   1.000  O
  O3       1.0000 0.33960  0.88160  0.84257  Biso   1.000  O
  O4       1.0000 0.16040  0.38160  0.65743  Biso   1.000  O
  O5       1.0000 0.78390  0.92490  0.23822  Biso   1.000  O
  O6       1.0000 0.71610  0.42490  0.26178  Biso   1.000  O
  O7       1.0000 0.21610  0.07510  0.76178  Biso   1.000  O
  O8       1.0000 0.28390  0.57510  0.73822  Biso   1.000  O
  O9       1.0000 0.90760  0.66540  0.17809  Biso   1.000  O
  O10      1.0000 0.59240  0.16540  0.32191  Biso   1.000  O
  O11      1.0000 0.09240  0.33460  0.82191  Biso   1.000  O
  O12      1.0000 0.40760  0.83460  0.67809  Biso   1.000  O
  O13      1.0000 0.88390  0.68640  0.05671  Biso   1.000  O
  O14      1.0000 0.61610  0.18640  0.44329  Biso   1.000  O
  O15      1.0000 0.11610  0.31360  0.94329  Biso   1.000  O
  O16      1.0000 0.38390  0.81360  0.55671  Biso   1.000  O
  N1       1.0000 0.51220  0.48700  0.13820  Biso   1.000  N
  N2       1.0000 0.98780  0.98700  0.36180  Biso   1.000  N
  N3       1.0000 0.48780  0.51300  0.86180  Biso   1.000  N
  N4       1.0000 0.01220  0.01300  0.63820  Biso   1.000  N
  N5       1.0000 0.42430  0.16280  0.17356  Biso   1.000  N
  N6       1.0000 0.07570  0.66280  0.32644  Biso   1.000  N
  N7       1.0000 0.57570  0.83720  0.82644  Biso   1.000  N
  N8       1.0000 0.92430  0.33720  0.67356  Biso   1.000  N
  N9       1.0000 0.26710  0.16410  0.07570  Biso   1.000  N
  N10      1.0000 0.23290  0.66410  0.42430  Biso   1.000  N
  N11      1.0000 0.73290  0.83590  0.92430  Biso   1.000  N
  N12      1.0000 0.76710  0.33590  0.57570  Biso   1.000  N
  H1       1.0000 0.21610  0.20350  0.03400  Biso   1.000  H
  H2       1.0000 0.28390  0.70350  0.46600  Biso   1.000  H
  H3       1.0000 0.78390  0.79650  0.96600  Biso   1.000  H
  H4       1.0000 0.71610  0.29650  0.53400  Biso   1.000  H
  C1       1.0000 0.56300  0.65010  0.12440  Biso   1.000  C
  C2       1.0000 0.93700  0.15010  0.37560  Biso   1.000  C
  C3       1.0000 0.43700  0.34990  0.87560  Biso   1.000  C
  C4       1.0000 0.06300  0.84990  0.62440  Biso   1.000  C
  H5       1.0000 0.63500  0.68500  0.15800  Biso   1.000  H
  H6       1.0000 0.86500  0.18500  0.34200  Biso   1.000  H
  H7       1.0000 0.36500  0.31500  0.84200  Biso   1.000  H
  H8       1.0000 0.13500  0.81500  0.65800  Biso   1.000  H
  C5       1.0000 0.51440  0.77010  0.06280  Biso   1.000  C
  C6       1.0000 0.98560  0.27010  0.43720  Biso   1.000  C
  C7       1.0000 0.48560  0.22990  0.93720  Biso   1.000  C
  C8       1.0000 0.01440  0.72990  0.56280  Biso   1.000  C
  H9       1.0000 0.55220  0.88560  0.05430  Biso   1.000  H
  H10      1.0000 0.94780  0.38560  0.44570  Biso   1.000  H
  H11      1.0000 0.44780  0.11440  0.94570  Biso   1.000  H
  H12      1.0000 0.05220  0.61440  0.55430  Biso   1.000  H
  C9       1.0000 0.40940  0.71870  0.01370  Biso   1.000  C
  C10      1.0000 0.09060  0.21870  0.48630  Biso   1.000  C
  C11      1.0000 0.59060  0.28130  0.98630  Biso   1.000  C
  C12      1.0000 0.90940  0.78130  0.51370  Biso   1.000  C
  H13      1.0000 0.37490  0.79820  0.97080  Biso   1.000  H
  H14      1.0000 0.12510  0.29820  0.52920  Biso   1.000  H
  H15      1.0000 0.62510  0.20180  0.02920  Biso   1.000  H
  H16      1.0000 0.87490  0.70180  0.47080  Biso   1.000  H
  C13      1.0000 0.35540  0.55290  0.02740  Biso   1.000  C
  C14      1.0000 0.14460  0.05290  0.47260  Biso   1.000  C
  C15      1.0000 0.64460  0.44710  0.97260  Biso   1.000  C
  C16      1.0000 0.85540  0.94710  0.52740  Biso   1.000  C
  H17      1.0000 0.28300  0.51660  0.99470  Biso   1.000  H
  H18      1.0000 0.21700  0.01660  0.50530  Biso   1.000  H
  H19      1.0000 0.71700  0.48340  0.00530  Biso   1.000  H
  H20      1.0000 0.78300  0.98340  0.49470  Biso   1.000  H
  C17      1.0000 0.40870  0.44000  0.08989  Biso   1.000  C
  C18      1.0000 0.09130  0.94000  0.41011  Biso   1.000  C
  C19      1.0000 0.59130  0.56000  0.91011  Biso   1.000  C
  C20      1.0000 0.90870  0.06000  0.58989  Biso   1.000  C
  C21      1.0000 0.36500  0.25750  0.11210  Biso   1.000  C
  C22      1.0000 0.13500  0.75750  0.38790  Biso   1.000  C
  C23      1.0000 0.63500  0.74250  0.88790  Biso   1.000  C
  C24      1.0000 0.86500  0.24250  0.61210  Biso   1.000  C
  C25      1.0000 0.36270  0.99490  0.17874  Biso   1.000  C
  C26      1.0000 0.13730  0.49490  0.32126  Biso   1.000  C
  C27      1.0000 0.63730  0.00510  0.82126  Biso   1.000  C
  C28      1.0000 0.86270  0.50510  0.67874  Biso   1.000  C
  C29      1.0000 0.38580  0.84190  0.23080  Biso   1.000  C
  C30      1.0000 0.11420  0.34190  0.26920  Biso   1.000  C
  C31      1.0000 0.61420  0.15810  0.76920  Biso   1.000  C
  C32      1.0000 0.88580  0.65810  0.73080  Biso   1.000  C
  H21      1.0000 0.45340  0.83950  0.27220  Biso   1.000  H
  H22      1.0000 0.04660  0.33950  0.22780  Biso   1.000  H
  H23      1.0000 0.54660  0.16050  0.72780  Biso   1.000  H
  H24      1.0000 0.95340  0.66050  0.77220  Biso   1.000  H
  C33      1.0000 0.30540  0.69190  0.21970  Biso   1.000  C
  C34      1.0000 0.19460  0.19190  0.28030  Biso   1.000  C
  C35      1.0000 0.69460  0.30810  0.78030  Biso   1.000  C
  C36      1.0000 0.80540  0.80810  0.71970  Biso   1.000  C
  H25      1.0000 0.31780  0.58550  0.25460  Biso   1.000  H
  H26      1.0000 0.18220  0.08550  0.24540  Biso   1.000  H
  H27      1.0000 0.68220  0.41450  0.74540  Biso   1.000  H
  H28      1.0000 0.81780  0.91450  0.75460  Biso   1.000  H
  C37      1.0000 0.20670  0.69530  0.15800  Biso   1.000  C
  C38      1.0000 0.29330  0.19530  0.34200  Biso   1.000  C
  C39      1.0000 0.79330  0.30470  0.84200  Biso   1.000  C
  C40      1.0000 0.70670  0.80470  0.65800  Biso   1.000  C
  H29      1.0000 0.15380  0.59030  0.15210  Biso   1.000  H
  H30      1.0000 0.34620  0.09030  0.34790  Biso   1.000  H
  H31      1.0000 0.84620  0.40970  0.84790  Biso   1.000  H
  H32      1.0000 0.65380  0.90970  0.65210  Biso   1.000  H
  C41      1.0000 0.18360  0.84420  0.10570  Biso   1.000  C
  C42      1.0000 0.31640  0.34420  0.39430  Biso   1.000  C
  C43      1.0000 0.81640  0.15580  0.89430  Biso   1.000  C
  C44      1.0000 0.68360  0.65580  0.60570  Biso   1.000  C
  H33      1.0000 0.11650  0.84390  0.06390  Biso   1.000  H
  H34      1.0000 0.38350  0.34390  0.43610  Biso   1.000  H
  H35      1.0000 0.88350  0.15610  0.93610  Biso   1.000  H
  H36      1.0000 0.61650  0.65610  0.56390  Biso   1.000  H
  C45      1.0000 0.26230  0.99510  0.11640  Biso   1.000  C
  C46      1.0000 0.23770  0.49510  0.38360  Biso   1.000  C
  C47      1.0000 0.73770  0.00490  0.88360  Biso   1.000  C
  C48      1.0000 0.76230  0.50490  0.61640  Biso   1.000  C
  C49      1.0000 0.75640  0.04650  0.18386  Biso   1.000  C
  C50      1.0000 0.74360  0.54650  0.31614  Biso   1.000  C
  C51      1.0000 0.24360  0.95350  0.81614  Biso   1.000  C
  C52      1.0000 0.25640  0.45350  0.68386  Biso   1.000  C
  C53      1.0000 0.84240  0.10900  0.14830  Biso   1.000  C
  C54      1.0000 0.65760  0.60900  0.35170  Biso   1.000  C
  C55      1.0000 0.15760  0.89100  0.85170  Biso   1.000  C
  C56      1.0000 0.34240  0.39100  0.64830  Biso   1.000  C
  H37      1.0000 0.85410  0.24780  0.14490  Biso   1.000  H
  H38      1.0000 0.64590  0.74780  0.35510  Biso   1.000  H
  H39      1.0000 0.14590  0.75220  0.85510  Biso   1.000  H
  H40      1.0000 0.35410  0.25220  0.64490  Biso   1.000  H
  C57      1.0000 0.90380  0.98830  0.12110  Biso   1.000  C
  C58      1.0000 0.59620  0.48830  0.37890  Biso   1.000  C
  C59      1.0000 0.09620  0.01170  0.87890  Biso   1.000  C
  C60      1.0000 0.40380  0.51170  0.62110  Biso   1.000  C
  H41      1.0000 0.95650  0.04880  0.10110  Biso   1.000  H
  H42      1.0000 0.54350  0.54880  0.39890  Biso   1.000  H
  H43      1.0000 0.04350  0.95120  0.89890  Biso   1.000  H
  H44      1.0000 0.45650  0.45120  0.60110  Biso   1.000  H
  C61      1.0000 0.89780  0.76580  0.11910  Biso   1.000  C
  C62      1.0000 0.60220  0.26580  0.38090  Biso   1.000  C
  C63      1.0000 0.10220  0.23420  0.88090  Biso   1.000  C
  C64      1.0000 0.39780  0.73420  0.61910  Biso   1.000  C
  O17      1.0000 0.99270  0.65560  0.94780  Biso   1.000  O
  O18      1.0000 0.50730  0.15560  0.55220  Biso   1.000  O
  O19      1.0000 0.00730  0.34440  0.05220  Biso   1.000  O
  O20      1.0000 0.49270  0.84440  0.44780  Biso   1.000  O
  H45      1.0000 0.92400  0.64420  0.95470  Biso   1.000  H
  H46      1.0000 0.57600  0.14420  0.54530  Biso   1.000  H
  H47      1.0000 0.07600  0.35580  0.04530  Biso   1.000  H
  H48      1.0000 0.42400  0.85580  0.45470  Biso   1.000  H
  H49      1.0000 0.98540  0.56070  0.91150  Biso   1.000  H
  H50      1.0000 0.51460  0.06070  0.58850  Biso   1.000  H
  H51      1.0000 0.01460  0.43930  0.08850  Biso   1.000  H
  H52      1.0000 0.48540  0.93930  0.41150  Biso   1.000  H
