data_image0
_cell_length_a       9.7496
_cell_length_b       7.9504
_cell_length_c       10.8368
_cell_angle_alpha    90
_cell_angle_beta     102.418
_cell_angle_gamma    90

_symmetry_space_group_name_H-M    "P 1"
_symmetry_int_tables_number       1

loop_
  _symmetry_equiv_pos_as_xyz
  'x, y, z'

loop_
  _atom_site_label
  _atom_site_occupancy
  _atom_site_fract_x
  _atom_site_fract_y
  _atom_site_fract_z
  _atom_site_thermal_displace_type
  _atom_site_B_iso_or_equiv
  _atom_site_type_symbol
  Cu1      1.0000 0.50000  0.50000  0.50000  Biso   1.000  Cu
  Cu2      1.0000 0.00000  0.00000  0.00000  Biso   1.000  Cu
  N1       1.0000 0.66680  0.56580  0.43750  Biso   1.000  N
  N2       1.0000 0.83320  0.06580  0.06250  Biso   1.000  N
  N3       1.0000 0.33320  0.43420  0.56250  Biso   1.000  N
  N4       1.0000 0.16680  0.93420  0.93750  Biso   1.000  N
  O1       1.0000 0.49930  0.73530  0.58242  Biso   1.000  O
  O2       1.0000 0.00070  0.23530  0.91758  Biso   1.000  O
  O3       1.0000 0.50070  0.26470  0.41758  Biso   1.000  O
  O4       1.0000 0.99930  0.76470  0.08242  Biso   1.000  O
  O5       1.0000 0.36910  0.57360  0.29940  Biso   1.000  O
  O6       1.0000 0.13090  0.07360  0.20060  Biso   1.000  O
  O7       1.0000 0.63090  0.42640  0.70060  Biso   1.000  O
  O8       1.0000 0.86910  0.92640  0.79940  Biso   1.000  O
  C1       1.0000 0.77690  0.64490  0.50330  Biso   1.000  C
  C2       1.0000 0.72310  0.14490  0.99670  Biso   1.000  C
  C3       1.0000 0.22310  0.35510  0.49670  Biso   1.000  C
  C4       1.0000 0.27690  0.85510  0.00330  Biso   1.000  C
  C5       1.0000 0.69610  0.53690  0.32190  Biso   1.000  C
  C6       1.0000 0.80390  0.03690  0.17810  Biso   1.000  C
  C7       1.0000 0.30390  0.46310  0.67810  Biso   1.000  C
  C8       1.0000 0.19610  0.96310  0.82190  Biso   1.000  C
  C9       1.0000 0.49900  0.87860  0.53480  Biso   1.000  C
  C10      1.0000 0.00100  0.37860  0.96520  Biso   1.000  C
  C11      1.0000 0.50100  0.12140  0.46520  Biso   1.000  C
  C12      1.0000 0.99900  0.62140  0.03480  Biso   1.000  C
  H1       1.0000 0.28700  0.53000  0.26600  Biso   1.000  H
  H2       1.0000 0.21300  0.03000  0.23400  Biso   1.000  H
  H3       1.0000 0.71300  0.47000  0.73400  Biso   1.000  H
  H4       1.0000 0.78700  0.97000  0.76600  Biso   1.000  H
  H5       1.0000 0.35600  0.68500  0.30300  Biso   1.000  H
  H6       1.0000 0.14400  0.18500  0.19700  Biso   1.000  H
  H7       1.0000 0.64400  0.31500  0.69700  Biso   1.000  H
  H8       1.0000 0.85600  0.81500  0.80300  Biso   1.000  H
  H9       1.0000 0.78470  0.68040  0.58630  Biso   1.000  H
  H10      1.0000 0.71530  0.18040  0.91370  Biso   1.000  H
  H11      1.0000 0.21530  0.31960  0.41370  Biso   1.000  H
  H12      1.0000 0.28470  0.81960  0.08630  Biso   1.000  H
  N5       1.0000 0.87550  0.66810  0.43790  Biso   1.000  N
  N6       1.0000 0.62450  0.16810  0.06210  Biso   1.000  N
  N7       1.0000 0.12450  0.33190  0.56210  Biso   1.000  N
  N8       1.0000 0.37550  0.83190  0.93790  Biso   1.000  N
  C13      1.0000 0.82540  0.60000  0.32160  Biso   1.000  C
  C14      1.0000 0.67460  0.10000  0.17840  Biso   1.000  C
  C15      1.0000 0.17460  0.40000  0.67840  Biso   1.000  C
  C16      1.0000 0.32540  0.90000  0.82160  Biso   1.000  C
  H13      1.0000 0.63740  0.48310  0.25450  Biso   1.000  H
  H14      1.0000 0.86260  0.98310  0.24550  Biso   1.000  H
  H15      1.0000 0.36260  0.51690  0.74550  Biso   1.000  H
  H16      1.0000 0.13740  0.01690  0.75450  Biso   1.000  H
  C17      1.0000 0.54930  0.04130  0.58950  Biso   1.000  C
  C18      1.0000 0.95070  0.54130  0.91050  Biso   1.000  C
  C19      1.0000 0.45070  0.95870  0.41050  Biso   1.000  C
  C20      1.0000 0.04930  0.45870  0.08950  Biso   1.000  C
  C21      1.0000 0.00730  0.74850  0.49030  Biso   1.000  C
  C22      1.0000 0.49270  0.24850  0.00970  Biso   1.000  C
  C23      1.0000 0.99270  0.25150  0.50970  Biso   1.000  C
  C24      1.0000 0.50730  0.75150  0.99030  Biso   1.000  C
  H17      1.0000 0.87110  0.59720  0.25460  Biso   1.000  H
  H18      1.0000 0.62890  0.09720  0.24540  Biso   1.000  H
  H19      1.0000 0.12890  0.40280  0.74540  Biso   1.000  H
  H20      1.0000 0.37110  0.90280  0.75460  Biso   1.000  H
  O9       1.0000 0.60840  0.08830  0.69690  Biso   1.000  O
  O10      1.0000 0.89160  0.58830  0.80310  Biso   1.000  O
  O11      1.0000 0.39160  0.91170  0.30310  Biso   1.000  O
  O12      1.0000 0.10840  0.41170  0.19690  Biso   1.000  O
  H21      1.0000 0.02520  0.77960  0.57500  Biso   1.000  H
  H22      1.0000 0.47480  0.27960  0.92500  Biso   1.000  H
  H23      1.0000 0.97480  0.22040  0.42500  Biso   1.000  H
  H24      1.0000 0.52520  0.72040  0.07500  Biso   1.000  H
  C25      1.0000 0.10120  0.77960  0.42750  Biso   1.000  C
  C26      1.0000 0.39880  0.27960  0.07250  Biso   1.000  C
  C27      1.0000 0.89880  0.22040  0.57250  Biso   1.000  C
  C28      1.0000 0.60120  0.72040  0.92750  Biso   1.000  C
  H25      1.0000 0.08630  0.74990  0.34270  Biso   1.000  H
  H26      1.0000 0.41370  0.24990  0.15730  Biso   1.000  H
  H27      1.0000 0.91370  0.25010  0.65730  Biso   1.000  H
  H28      1.0000 0.58630  0.75010  0.84270  Biso   1.000  H
  H29      1.0000 0.18450  0.83200  0.46660  Biso   1.000  H
  H30      1.0000 0.31550  0.33200  0.03340  Biso   1.000  H
  H31      1.0000 0.81550  0.16800  0.53340  Biso   1.000  H
  H32      1.0000 0.68450  0.66800  0.96660  Biso   1.000  H
