data_image0
_cell_length_a       22.4857
_cell_length_b       22.4857
_cell_length_c       11.0509
_cell_angle_alpha    90
_cell_angle_beta     90
_cell_angle_gamma    120

_symmetry_space_group_name_H-M    "P 1"
_symmetry_int_tables_number       1

loop_
  _symmetry_equiv_pos_as_xyz
  'x, y, z'

loop_
  _atom_site_label
  _atom_site_occupancy
  _atom_site_fract_x
  _atom_site_fract_y
  _atom_site_fract_z
  _atom_site_thermal_displace_type
  _atom_site_B_iso_or_equiv
  _atom_site_type_symbol
  Cu1      1.0000 0.13846  0.30482  0.83376  Biso   1.000  Cu
  Cu2      1.0000 0.69518  0.83364  0.83376  Biso   1.000  Cu
  Cu3      1.0000 0.16636  0.86154  0.83376  Biso   1.000  Cu
  Cu4      1.0000 0.80513  0.63815  0.16709  Biso   1.000  Cu
  Cu5      1.0000 0.36185  0.16697  0.16709  Biso   1.000  Cu
  Cu6      1.0000 0.83303  0.19487  0.16709  Biso   1.000  Cu
  Cu7      1.0000 0.47179  0.97149  0.50043  Biso   1.000  Cu
  Cu8      1.0000 0.02851  0.50031  0.50043  Biso   1.000  Cu
  Cu9      1.0000 0.49969  0.52821  0.50043  Biso   1.000  Cu
  Cu10     1.0000 0.86154  0.69518  0.16624  Biso   1.000  Cu
  Cu11     1.0000 0.30482  0.16636  0.16624  Biso   1.000  Cu
  Cu12     1.0000 0.83364  0.13846  0.16624  Biso   1.000  Cu
  Cu13     1.0000 0.52821  0.02851  0.49957  Biso   1.000  Cu
  Cu14     1.0000 0.97149  0.49969  0.49957  Biso   1.000  Cu
  Cu15     1.0000 0.50031  0.47179  0.49957  Biso   1.000  Cu
  Cu16     1.0000 0.19487  0.36185  0.83291  Biso   1.000  Cu
  Cu17     1.0000 0.63815  0.83303  0.83291  Biso   1.000  Cu
  Cu18     1.0000 0.16697  0.80513  0.83291  Biso   1.000  Cu
  O1       1.0000 0.13100  0.29570  0.65690  Biso   1.000  O
  O2       1.0000 0.70430  0.83530  0.65690  Biso   1.000  O
  O3       1.0000 0.16470  0.86900  0.65690  Biso   1.000  O
  O4       1.0000 0.79767  0.62903  0.99023  Biso   1.000  O
  O5       1.0000 0.37097  0.16863  0.99023  Biso   1.000  O
  O6       1.0000 0.83137  0.20233  0.99023  Biso   1.000  O
  O7       1.0000 0.46433  0.96237  0.32357  Biso   1.000  O
  O8       1.0000 0.03763  0.50197  0.32357  Biso   1.000  O
  O9       1.0000 0.49803  0.53567  0.32357  Biso   1.000  O
  O10      1.0000 0.86900  0.70430  0.34310  Biso   1.000  O
  O11      1.0000 0.29570  0.16470  0.34310  Biso   1.000  O
  O12      1.0000 0.83530  0.13100  0.34310  Biso   1.000  O
  O13      1.0000 0.53567  0.03763  0.67643  Biso   1.000  O
  O14      1.0000 0.96237  0.49803  0.67643  Biso   1.000  O
  O15      1.0000 0.50197  0.46433  0.67643  Biso   1.000  O
  O16      1.0000 0.20233  0.37097  0.00977  Biso   1.000  O
  O17      1.0000 0.62903  0.83137  0.00977  Biso   1.000  O
  O18      1.0000 0.16863  0.79767  0.00977  Biso   1.000  O
  O19      1.0000 0.22220  0.39990  0.63990  Biso   1.000  O
  O20      1.0000 0.60010  0.82230  0.63990  Biso   1.000  O
  O21      1.0000 0.17770  0.77780  0.63990  Biso   1.000  O
  O22      1.0000 0.88887  0.73323  0.97323  Biso   1.000  O
  O23      1.0000 0.26677  0.15563  0.97323  Biso   1.000  O
  O24      1.0000 0.84437  0.11113  0.97323  Biso   1.000  O
  O25      1.0000 0.55553  0.06657  0.30657  Biso   1.000  O
  O26      1.0000 0.93343  0.48897  0.30657  Biso   1.000  O
  O27      1.0000 0.51103  0.44447  0.30657  Biso   1.000  O
  O28      1.0000 0.77780  0.60010  0.36010  Biso   1.000  O
  O29      1.0000 0.39990  0.17770  0.36010  Biso   1.000  O
  O30      1.0000 0.82230  0.22220  0.36010  Biso   1.000  O
  O31      1.0000 0.44447  0.93343  0.69343  Biso   1.000  O
  O32      1.0000 0.06657  0.51103  0.69343  Biso   1.000  O
  O33      1.0000 0.48897  0.55553  0.69343  Biso   1.000  O
  O34      1.0000 0.11113  0.26677  0.02677  Biso   1.000  O
  O35      1.0000 0.73323  0.84437  0.02677  Biso   1.000  O
  O36      1.0000 0.15563  0.88887  0.02677  Biso   1.000  O
  O37      1.0000 0.21920  0.40950  0.03130  Biso   1.000  O
  O38      1.0000 0.59050  0.80970  0.03130  Biso   1.000  O
  O39      1.0000 0.19030  0.78080  0.03130  Biso   1.000  O
  O40      1.0000 0.88587  0.74283  0.36463  Biso   1.000  O
  O41      1.0000 0.25717  0.14303  0.36463  Biso   1.000  O
  O42      1.0000 0.85697  0.11413  0.36463  Biso   1.000  O
  O43      1.0000 0.55253  0.07617  0.69797  Biso   1.000  O
  O44      1.0000 0.92383  0.47637  0.69797  Biso   1.000  O
  O45      1.0000 0.52363  0.44747  0.69797  Biso   1.000  O
  O46      1.0000 0.78080  0.59050  0.96870  Biso   1.000  O
  O47      1.0000 0.40950  0.19030  0.96870  Biso   1.000  O
  O48      1.0000 0.80970  0.21920  0.96870  Biso   1.000  O
  O49      1.0000 0.44747  0.92383  0.30203  Biso   1.000  O
  O50      1.0000 0.07617  0.52363  0.30203  Biso   1.000  O
  O51      1.0000 0.47637  0.55253  0.30203  Biso   1.000  O
  O52      1.0000 0.11413  0.25717  0.63537  Biso   1.000  O
  O53      1.0000 0.74283  0.85697  0.63537  Biso   1.000  O
  O54      1.0000 0.14303  0.88587  0.63537  Biso   1.000  O
  O55      1.0000 0.13730  0.30250  0.01190  Biso   1.000  O
  O56      1.0000 0.69750  0.83480  0.01190  Biso   1.000  O
  O57      1.0000 0.16520  0.86270  0.01190  Biso   1.000  O
  O58      1.0000 0.80397  0.63583  0.34523  Biso   1.000  O
  O59      1.0000 0.36417  0.16813  0.34523  Biso   1.000  O
  O60      1.0000 0.83187  0.19603  0.34523  Biso   1.000  O
  O61      1.0000 0.47063  0.96917  0.67857  Biso   1.000  O
  O62      1.0000 0.03083  0.50147  0.67857  Biso   1.000  O
  O63      1.0000 0.49853  0.52937  0.67857  Biso   1.000  O
  O64      1.0000 0.86270  0.69750  0.98810  Biso   1.000  O
  O65      1.0000 0.30250  0.16520  0.98810  Biso   1.000  O
  O66      1.0000 0.83480  0.13730  0.98810  Biso   1.000  O
  O67      1.0000 0.52937  0.03083  0.32143  Biso   1.000  O
  O68      1.0000 0.96917  0.49853  0.32143  Biso   1.000  O
  O69      1.0000 0.50147  0.47063  0.32143  Biso   1.000  O
  O70      1.0000 0.19603  0.36417  0.65477  Biso   1.000  O
  O71      1.0000 0.63583  0.83187  0.65477  Biso   1.000  O
  O72      1.0000 0.16813  0.80397  0.65477  Biso   1.000  O
  O73      1.0000 0.05030  0.19540  0.83700  Biso   1.000  O
  O74      1.0000 0.80460  0.85490  0.83700  Biso   1.000  O
  O75      1.0000 0.14510  0.94970  0.83700  Biso   1.000  O
  O76      1.0000 0.71697  0.52873  0.17033  Biso   1.000  O
  O77      1.0000 0.47127  0.18823  0.17033  Biso   1.000  O
  O78      1.0000 0.81177  0.28303  0.17033  Biso   1.000  O
  O79      1.0000 0.38363  0.86207  0.50367  Biso   1.000  O
  O80      1.0000 0.13793  0.52157  0.50367  Biso   1.000  O
  O81      1.0000 0.47843  0.61637  0.50367  Biso   1.000  O
  O82      1.0000 0.94970  0.80460  0.16300  Biso   1.000  O
  O83      1.0000 0.19540  0.14510  0.16300  Biso   1.000  O
  O84      1.0000 0.85490  0.05030  0.16300  Biso   1.000  O
  O85      1.0000 0.61637  0.13793  0.49633  Biso   1.000  O
  O86      1.0000 0.86207  0.47843  0.49633  Biso   1.000  O
  O87      1.0000 0.52157  0.38363  0.49633  Biso   1.000  O
  O88      1.0000 0.28303  0.47127  0.82967  Biso   1.000  O
  O89      1.0000 0.52873  0.81177  0.82967  Biso   1.000  O
  O90      1.0000 0.18823  0.71697  0.82967  Biso   1.000  O
  N1       1.0000 0.04190  0.29570  0.21560  Biso   1.000  N
  N2       1.0000 0.70430  0.74620  0.21560  Biso   1.000  N
  N3       1.0000 0.25380  0.95810  0.21560  Biso   1.000  N
  N4       1.0000 0.70857  0.62903  0.54893  Biso   1.000  N
  N5       1.0000 0.37097  0.07953  0.54893  Biso   1.000  N
  N6       1.0000 0.92047  0.29143  0.54893  Biso   1.000  N
  N7       1.0000 0.37523  0.96237  0.88227  Biso   1.000  N
  N8       1.0000 0.03763  0.41287  0.88227  Biso   1.000  N
  N9       1.0000 0.58713  0.62477  0.88227  Biso   1.000  N
  N10      1.0000 0.95810  0.70430  0.78440  Biso   1.000  N
  N11      1.0000 0.29570  0.25380  0.78440  Biso   1.000  N
  N12      1.0000 0.74620  0.04190  0.78440  Biso   1.000  N
  N13      1.0000 0.62477  0.03763  0.11773  Biso   1.000  N
  N14      1.0000 0.96237  0.58713  0.11773  Biso   1.000  N
  N15      1.0000 0.41287  0.37523  0.11773  Biso   1.000  N
  N16      1.0000 0.29143  0.37097  0.45107  Biso   1.000  N
  N17      1.0000 0.62903  0.92047  0.45107  Biso   1.000  N
  N18      1.0000 0.07953  0.70857  0.45107  Biso   1.000  N
  N19      1.0000 0.03800  0.33850  0.13140  Biso   1.000  N
  N20      1.0000 0.66150  0.69950  0.13140  Biso   1.000  N
  N21      1.0000 0.30050  0.96200  0.13140  Biso   1.000  N
  N22      1.0000 0.70467  0.67183  0.46473  Biso   1.000  N
  N23      1.0000 0.32817  0.03283  0.46473  Biso   1.000  N
  N24      1.0000 0.96717  0.29533  0.46473  Biso   1.000  N
  N25      1.0000 0.37133  0.00517  0.79807  Biso   1.000  N
  N26      1.0000 0.99483  0.36617  0.79807  Biso   1.000  N
  N27      1.0000 0.63383  0.62867  0.79807  Biso   1.000  N
  N28      1.0000 0.96200  0.66150  0.86860  Biso   1.000  N
  N29      1.0000 0.33850  0.30050  0.86860  Biso   1.000  N
  N30      1.0000 0.69950  0.03800  0.86860  Biso   1.000  N
  N31      1.0000 0.62867  0.99483  0.20193  Biso   1.000  N
  N32      1.0000 0.00517  0.63383  0.20193  Biso   1.000  N
  N33      1.0000 0.36617  0.37133  0.20193  Biso   1.000  N
  N34      1.0000 0.29533  0.32817  0.53527  Biso   1.000  N
  N35      1.0000 0.67183  0.96717  0.53527  Biso   1.000  N
  N36      1.0000 0.03283  0.70467  0.53527  Biso   1.000  N
  N37      1.0000 0.93570  0.24630  0.16350  Biso   1.000  N
  N38      1.0000 0.75370  0.68940  0.16350  Biso   1.000  N
  N39      1.0000 0.31060  0.06430  0.16350  Biso   1.000  N
  N40      1.0000 0.60237  0.57963  0.49683  Biso   1.000  N
  N41      1.0000 0.42037  0.02273  0.49683  Biso   1.000  N
  N42      1.0000 0.97727  0.39763  0.49683  Biso   1.000  N
  N43      1.0000 0.26903  0.91297  0.83017  Biso   1.000  N
  N44      1.0000 0.08703  0.35607  0.83017  Biso   1.000  N
  N45      1.0000 0.64393  0.73097  0.83017  Biso   1.000  N
  N46      1.0000 0.06430  0.75370  0.83650  Biso   1.000  N
  N47      1.0000 0.24630  0.31060  0.83650  Biso   1.000  N
  N48      1.0000 0.68940  0.93570  0.83650  Biso   1.000  N
  N49      1.0000 0.73097  0.08703  0.16983  Biso   1.000  N
  N50      1.0000 0.91297  0.64393  0.16983  Biso   1.000  N
  N51      1.0000 0.35607  0.26903  0.16983  Biso   1.000  N
  N52      1.0000 0.39763  0.42037  0.50317  Biso   1.000  N
  N53      1.0000 0.57963  0.97727  0.50317  Biso   1.000  N
  N54      1.0000 0.02273  0.60237  0.50317  Biso   1.000  N
  N55      1.0000 0.29490  0.39250  0.44990  Biso   1.000  N
  N56      1.0000 0.60750  0.90240  0.44990  Biso   1.000  N
  N57      1.0000 0.09760  0.70510  0.44990  Biso   1.000  N
  N58      1.0000 0.96157  0.72583  0.78323  Biso   1.000  N
  N59      1.0000 0.27417  0.23573  0.78323  Biso   1.000  N
  N60      1.0000 0.76427  0.03843  0.78323  Biso   1.000  N
  N61      1.0000 0.62823  0.05917  0.11657  Biso   1.000  N
  N62      1.0000 0.94083  0.56907  0.11657  Biso   1.000  N
  N63      1.0000 0.43093  0.37177  0.11657  Biso   1.000  N
  N64      1.0000 0.70510  0.60750  0.55010  Biso   1.000  N
  N65      1.0000 0.39250  0.09760  0.55010  Biso   1.000  N
  N66      1.0000 0.90240  0.29490  0.55010  Biso   1.000  N
  N67      1.0000 0.37177  0.94083  0.88343  Biso   1.000  N
  N68      1.0000 0.05917  0.43093  0.88343  Biso   1.000  N
  N69      1.0000 0.56907  0.62823  0.88343  Biso   1.000  N
  N70      1.0000 0.03843  0.27417  0.21677  Biso   1.000  N
  N71      1.0000 0.72583  0.76427  0.21677  Biso   1.000  N
  N72      1.0000 0.23573  0.96157  0.21677  Biso   1.000  N
  N73      1.0000 0.40130  0.45300  0.49770  Biso   1.000  N
  N74      1.0000 0.54700  0.94830  0.49770  Biso   1.000  N
  N75      1.0000 0.05170  0.59870  0.49770  Biso   1.000  N
  N76      1.0000 0.06797  0.78633  0.83103  Biso   1.000  N
  N77      1.0000 0.21367  0.28163  0.83103  Biso   1.000  N
  N78      1.0000 0.71837  0.93203  0.83103  Biso   1.000  N
  N79      1.0000 0.73463  0.11967  0.16437  Biso   1.000  N
  N80      1.0000 0.88033  0.61497  0.16437  Biso   1.000  N
  N81      1.0000 0.38503  0.26537  0.16437  Biso   1.000  N
  N82      1.0000 0.59870  0.54700  0.50230  Biso   1.000  N
  N83      1.0000 0.45300  0.05170  0.50230  Biso   1.000  N
  N84      1.0000 0.94830  0.40130  0.50230  Biso   1.000  N
  N85      1.0000 0.26537  0.88033  0.83563  Biso   1.000  N
  N86      1.0000 0.11967  0.38503  0.83563  Biso   1.000  N
  N87      1.0000 0.61497  0.73463  0.83563  Biso   1.000  N
  N88      1.0000 0.93203  0.21367  0.16897  Biso   1.000  N
  N89      1.0000 0.78633  0.71837  0.16897  Biso   1.000  N
  N90      1.0000 0.28163  0.06797  0.16897  Biso   1.000  N
  N91      1.0000 0.30760  0.35170  0.52530  Biso   1.000  N
  N92      1.0000 0.64830  0.95590  0.52530  Biso   1.000  N
  N93      1.0000 0.04410  0.69240  0.52530  Biso   1.000  N
  N94      1.0000 0.97427  0.68503  0.85863  Biso   1.000  N
  N95      1.0000 0.31497  0.28923  0.85863  Biso   1.000  N
  N96      1.0000 0.71077  0.02573  0.85863  Biso   1.000  N
  N97      1.0000 0.64093  0.01837  0.19197  Biso   1.000  N
  N98      1.0000 0.98163  0.62257  0.19197  Biso   1.000  N
  N99      1.0000 0.37743  0.35907  0.19197  Biso   1.000  N
  N100     1.0000 0.69240  0.64830  0.47470  Biso   1.000  N
  N101     1.0000 0.35170  0.04410  0.47470  Biso   1.000  N
  N102     1.0000 0.95590  0.30760  0.47470  Biso   1.000  N
  N103     1.0000 0.35907  0.98163  0.80803  Biso   1.000  N
  N104     1.0000 0.01837  0.37743  0.80803  Biso   1.000  N
  N105     1.0000 0.62257  0.64093  0.80803  Biso   1.000  N
  N106     1.0000 0.02573  0.31497  0.14137  Biso   1.000  N
  N107     1.0000 0.68503  0.71077  0.14137  Biso   1.000  N
  N108     1.0000 0.28923  0.97427  0.14137  Biso   1.000  N
  C1       1.0000 0.17520  0.34210  0.59580  Biso   1.000  C
  C2       1.0000 0.65790  0.83310  0.59580  Biso   1.000  C
  C3       1.0000 0.16690  0.82480  0.59580  Biso   1.000  C
  C4       1.0000 0.84187  0.67543  0.92913  Biso   1.000  C
  C5       1.0000 0.32457  0.16643  0.92913  Biso   1.000  C
  C6       1.0000 0.83357  0.15813  0.92913  Biso   1.000  C
  C7       1.0000 0.50853  0.00877  0.26247  Biso   1.000  C
  C8       1.0000 0.99123  0.49977  0.26247  Biso   1.000  C
  C9       1.0000 0.50023  0.49147  0.26247  Biso   1.000  C
  C10      1.0000 0.82480  0.65790  0.40420  Biso   1.000  C
  C11      1.0000 0.34210  0.16690  0.40420  Biso   1.000  C
  C12      1.0000 0.83310  0.17520  0.40420  Biso   1.000  C
  C13      1.0000 0.49147  0.99123  0.73753  Biso   1.000  C
  C14      1.0000 0.00877  0.50023  0.73753  Biso   1.000  C
  C15      1.0000 0.49977  0.50853  0.73753  Biso   1.000  C
  C16      1.0000 0.15813  0.32457  0.07087  Biso   1.000  C
  C17      1.0000 0.67543  0.83357  0.07087  Biso   1.000  C
  C18      1.0000 0.16643  0.84187  0.07087  Biso   1.000  C
  C19      1.0000 0.17050  0.34120  0.45970  Biso   1.000  C
  C20      1.0000 0.65880  0.82930  0.45970  Biso   1.000  C
  C21      1.0000 0.17070  0.82950  0.45970  Biso   1.000  C
  C22      1.0000 0.83717  0.67453  0.79303  Biso   1.000  C
  C23      1.0000 0.32547  0.16263  0.79303  Biso   1.000  C
  C24      1.0000 0.83737  0.16283  0.79303  Biso   1.000  C
  C25      1.0000 0.50383  0.00787  0.12637  Biso   1.000  C
  C26      1.0000 0.99213  0.49597  0.12637  Biso   1.000  C
  C27      1.0000 0.50403  0.49617  0.12637  Biso   1.000  C
  C28      1.0000 0.82950  0.65880  0.54030  Biso   1.000  C
  C29      1.0000 0.34120  0.17070  0.54030  Biso   1.000  C
  C30      1.0000 0.82930  0.17050  0.54030  Biso   1.000  C
  C31      1.0000 0.49617  0.99213  0.87363  Biso   1.000  C
  C32      1.0000 0.00787  0.50403  0.87363  Biso   1.000  C
  C33      1.0000 0.49597  0.50383  0.87363  Biso   1.000  C
  C34      1.0000 0.16283  0.32547  0.20697  Biso   1.000  C
  C35      1.0000 0.67453  0.83737  0.20697  Biso   1.000  C
  C36      1.0000 0.16263  0.83717  0.20697  Biso   1.000  C
  C37      1.0000 0.10790  0.31410  0.39970  Biso   1.000  C
  C38      1.0000 0.68590  0.79380  0.39970  Biso   1.000  C
  C39      1.0000 0.20620  0.89210  0.39970  Biso   1.000  C
  C40      1.0000 0.77457  0.64743  0.73303  Biso   1.000  C
  C41      1.0000 0.35257  0.12713  0.73303  Biso   1.000  C
  C42      1.0000 0.87287  0.22543  0.73303  Biso   1.000  C
  C43      1.0000 0.44123  0.98077  0.06637  Biso   1.000  C
  C44      1.0000 0.01923  0.46047  0.06637  Biso   1.000  C
  C45      1.0000 0.53953  0.55877  0.06637  Biso   1.000  C
  C46      1.0000 0.89210  0.68590  0.60030  Biso   1.000  C
  C47      1.0000 0.31410  0.20620  0.60030  Biso   1.000  C
  C48      1.0000 0.79380  0.10790  0.60030  Biso   1.000  C
  C49      1.0000 0.55877  0.01923  0.93363  Biso   1.000  C
  C50      1.0000 0.98077  0.53953  0.93363  Biso   1.000  C
  C51      1.0000 0.46047  0.44123  0.93363  Biso   1.000  C
  C52      1.0000 0.22543  0.35257  0.26697  Biso   1.000  C
  C53      1.0000 0.64743  0.87287  0.26697  Biso   1.000  C
  C54      1.0000 0.12713  0.77457  0.26697  Biso   1.000  C
  H1       1.0000 0.06630  0.29350  0.44440  Biso   1.000  H
  H2       1.0000 0.70650  0.77280  0.44440  Biso   1.000  H
  H3       1.0000 0.22720  0.93370  0.44440  Biso   1.000  H
  H4       1.0000 0.73297  0.62683  0.77773  Biso   1.000  H
  H5       1.0000 0.37317  0.10613  0.77773  Biso   1.000  H
  H6       1.0000 0.89387  0.26703  0.77773  Biso   1.000  H
  H7       1.0000 0.39963  0.96017  0.11107  Biso   1.000  H
  H8       1.0000 0.03983  0.43947  0.11107  Biso   1.000  H
  H9       1.0000 0.56053  0.60037  0.11107  Biso   1.000  H
  H10      1.0000 0.93370  0.70650  0.55560  Biso   1.000  H
  H11      1.0000 0.29350  0.22720  0.55560  Biso   1.000  H
  H12      1.0000 0.77280  0.06630  0.55560  Biso   1.000  H
  H13      1.0000 0.60037  0.03983  0.88893  Biso   1.000  H
  H14      1.0000 0.96017  0.56053  0.88893  Biso   1.000  H
  H15      1.0000 0.43947  0.39963  0.88893  Biso   1.000  H
  H16      1.0000 0.26703  0.37317  0.22227  Biso   1.000  H
  H17      1.0000 0.62683  0.89387  0.22227  Biso   1.000  H
  H18      1.0000 0.10613  0.73297  0.22227  Biso   1.000  H
  C55      1.0000 0.10630  0.31730  0.27420  Biso   1.000  C
  C56      1.0000 0.68270  0.78900  0.27420  Biso   1.000  C
  C57      1.0000 0.21100  0.89370  0.27420  Biso   1.000  C
  C58      1.0000 0.77297  0.65063  0.60753  Biso   1.000  C
  C59      1.0000 0.34937  0.12233  0.60753  Biso   1.000  C
  C60      1.0000 0.87767  0.22703  0.60753  Biso   1.000  C
  C61      1.0000 0.43963  0.98397  0.94087  Biso   1.000  C
  C62      1.0000 0.01603  0.45567  0.94087  Biso   1.000  C
  C63      1.0000 0.54433  0.56037  0.94087  Biso   1.000  C
  C64      1.0000 0.89370  0.68270  0.72580  Biso   1.000  C
  C65      1.0000 0.31730  0.21100  0.72580  Biso   1.000  C
  C66      1.0000 0.78900  0.10630  0.72580  Biso   1.000  C
  C67      1.0000 0.56037  0.01603  0.05913  Biso   1.000  C
  C68      1.0000 0.98397  0.54433  0.05913  Biso   1.000  C
  C69      1.0000 0.45567  0.43963  0.05913  Biso   1.000  C
  C70      1.0000 0.22703  0.34937  0.39247  Biso   1.000  C
  C71      1.0000 0.65063  0.87767  0.39247  Biso   1.000  C
  C72      1.0000 0.12233  0.77297  0.39247  Biso   1.000  C
  C73      1.0000 0.16730  0.34750  0.20870  Biso   1.000  C
  C74      1.0000 0.65250  0.81980  0.20870  Biso   1.000  C
  C75      1.0000 0.18020  0.83270  0.20870  Biso   1.000  C
  C76      1.0000 0.83397  0.68083  0.54203  Biso   1.000  C
  C77      1.0000 0.31917  0.15313  0.54203  Biso   1.000  C
  C78      1.0000 0.84687  0.16603  0.54203  Biso   1.000  C
  C79      1.0000 0.50063  0.01417  0.87537  Biso   1.000  C
  C80      1.0000 0.98583  0.48647  0.87537  Biso   1.000  C
  C81      1.0000 0.51353  0.49937  0.87537  Biso   1.000  C
  C82      1.0000 0.83270  0.65250  0.79130  Biso   1.000  C
  C83      1.0000 0.34750  0.18020  0.79130  Biso   1.000  C
  C84      1.0000 0.81980  0.16730  0.79130  Biso   1.000  C
  C85      1.0000 0.49937  0.98583  0.12463  Biso   1.000  C
  C86      1.0000 0.01417  0.51353  0.12463  Biso   1.000  C
  C87      1.0000 0.48647  0.50063  0.12463  Biso   1.000  C
  C88      1.0000 0.16603  0.31917  0.45797  Biso   1.000  C
  C89      1.0000 0.68083  0.84687  0.45797  Biso   1.000  C
  C90      1.0000 0.15313  0.83397  0.45797  Biso   1.000  C
  C91      1.0000 0.22980  0.37450  0.26870  Biso   1.000  C
  C92      1.0000 0.62550  0.85530  0.26870  Biso   1.000  C
  C93      1.0000 0.14470  0.77020  0.26870  Biso   1.000  C
  C94      1.0000 0.89647  0.70783  0.60203  Biso   1.000  C
  C95      1.0000 0.29217  0.18863  0.60203  Biso   1.000  C
  C96      1.0000 0.81137  0.10353  0.60203  Biso   1.000  C
  C97      1.0000 0.56313  0.04117  0.93537  Biso   1.000  C
  C98      1.0000 0.95883  0.52197  0.93537  Biso   1.000  C
  C99      1.0000 0.47803  0.43687  0.93537  Biso   1.000  C
  C100     1.0000 0.77020  0.62550  0.73130  Biso   1.000  C
  C101     1.0000 0.37450  0.14470  0.73130  Biso   1.000  C
  C102     1.0000 0.85530  0.22980  0.73130  Biso   1.000  C
  C103     1.0000 0.43687  0.95883  0.06463  Biso   1.000  C
  C104     1.0000 0.04117  0.47803  0.06463  Biso   1.000  C
  C105     1.0000 0.52197  0.56313  0.06463  Biso   1.000  C
  C106     1.0000 0.10353  0.29217  0.39797  Biso   1.000  C
  C107     1.0000 0.70783  0.81137  0.39797  Biso   1.000  C
  C108     1.0000 0.18863  0.89647  0.39797  Biso   1.000  C
  H19      1.0000 0.27150  0.39520  0.22400  Biso   1.000  H
  H20      1.0000 0.60480  0.87630  0.22400  Biso   1.000  H
  H21      1.0000 0.12370  0.72850  0.22400  Biso   1.000  H
  H22      1.0000 0.93817  0.72853  0.55733  Biso   1.000  H
  H23      1.0000 0.27147  0.20963  0.55733  Biso   1.000  H
  H24      1.0000 0.79037  0.06183  0.55733  Biso   1.000  H
  H25      1.0000 0.60483  0.06187  0.89067  Biso   1.000  H
  H26      1.0000 0.93813  0.54297  0.89067  Biso   1.000  H
  H27      1.0000 0.45703  0.39517  0.89067  Biso   1.000  H
  H28      1.0000 0.72850  0.60480  0.77600  Biso   1.000  H
  H29      1.0000 0.39520  0.12370  0.77600  Biso   1.000  H
  H30      1.0000 0.87630  0.27150  0.77600  Biso   1.000  H
  H31      1.0000 0.39517  0.93813  0.10933  Biso   1.000  H
  H32      1.0000 0.06187  0.45703  0.10933  Biso   1.000  H
  H33      1.0000 0.54297  0.60483  0.10933  Biso   1.000  H
  H34      1.0000 0.06183  0.27147  0.44267  Biso   1.000  H
  H35      1.0000 0.72853  0.79037  0.44267  Biso   1.000  H
  H36      1.0000 0.20963  0.93817  0.44267  Biso   1.000  H
  C109     1.0000 0.23140  0.37140  0.39420  Biso   1.000  C
  C110     1.0000 0.62860  0.86000  0.39420  Biso   1.000  C
  C111     1.0000 0.14000  0.76860  0.39420  Biso   1.000  C
  C112     1.0000 0.89807  0.70473  0.72753  Biso   1.000  C
  C113     1.0000 0.29527  0.19333  0.72753  Biso   1.000  C
  C114     1.0000 0.80667  0.10193  0.72753  Biso   1.000  C
  C115     1.0000 0.56473  0.03807  0.06087  Biso   1.000  C
  C116     1.0000 0.96193  0.52667  0.06087  Biso   1.000  C
  C117     1.0000 0.47333  0.43527  0.06087  Biso   1.000  C
  C118     1.0000 0.76860  0.62860  0.60580  Biso   1.000  C
  C119     1.0000 0.37140  0.14000  0.60580  Biso   1.000  C
  C120     1.0000 0.86000  0.23140  0.60580  Biso   1.000  C
  C121     1.0000 0.43527  0.96193  0.93913  Biso   1.000  C
  C122     1.0000 0.03807  0.47333  0.93913  Biso   1.000  C
  C123     1.0000 0.52667  0.56473  0.93913  Biso   1.000  C
  C124     1.0000 0.10193  0.29527  0.27247  Biso   1.000  C
  C125     1.0000 0.70473  0.80667  0.27247  Biso   1.000  C
  C126     1.0000 0.19333  0.89807  0.27247  Biso   1.000  C
  C127     1.0000 0.17700  0.35620  0.07220  Biso   1.000  C
  C128     1.0000 0.64380  0.82080  0.07220  Biso   1.000  C
  C129     1.0000 0.17920  0.82300  0.07220  Biso   1.000  C
  C130     1.0000 0.84367  0.68953  0.40553  Biso   1.000  C
  C131     1.0000 0.31047  0.15413  0.40553  Biso   1.000  C
  C132     1.0000 0.84587  0.15633  0.40553  Biso   1.000  C
  C133     1.0000 0.51033  0.02287  0.73887  Biso   1.000  C
  C134     1.0000 0.97713  0.48747  0.73887  Biso   1.000  C
  C135     1.0000 0.51253  0.48967  0.73887  Biso   1.000  C
  C136     1.0000 0.82300  0.64380  0.92780  Biso   1.000  C
  C137     1.0000 0.35620  0.17920  0.92780  Biso   1.000  C
  C138     1.0000 0.82080  0.17700  0.92780  Biso   1.000  C
  C139     1.0000 0.48967  0.97713  0.26113  Biso   1.000  C
  C140     1.0000 0.02287  0.51253  0.26113  Biso   1.000  C
  C141     1.0000 0.48747  0.51033  0.26113  Biso   1.000  C
  C142     1.0000 0.15633  0.31047  0.59447  Biso   1.000  C
  C143     1.0000 0.68953  0.84587  0.59447  Biso   1.000  C
  C144     1.0000 0.15413  0.84367  0.59447  Biso   1.000  C
  C145     1.0000 0.98150  0.23950  0.23220  Biso   1.000  C
  C146     1.0000 0.76050  0.74200  0.23220  Biso   1.000  C
  C147     1.0000 0.25800  0.01850  0.23220  Biso   1.000  C
  C148     1.0000 0.64817  0.57283  0.56553  Biso   1.000  C
  C149     1.0000 0.42717  0.07533  0.56553  Biso   1.000  C
  C150     1.0000 0.92467  0.35183  0.56553  Biso   1.000  C
  C151     1.0000 0.31483  0.90617  0.89887  Biso   1.000  C
  C152     1.0000 0.09383  0.40867  0.89887  Biso   1.000  C
  C153     1.0000 0.59133  0.68517  0.89887  Biso   1.000  C
  C154     1.0000 0.01850  0.76050  0.76780  Biso   1.000  C
  C155     1.0000 0.23950  0.25800  0.76780  Biso   1.000  C
  C156     1.0000 0.74200  0.98150  0.76780  Biso   1.000  C
  C157     1.0000 0.68517  0.09383  0.10113  Biso   1.000  C
  C158     1.0000 0.90617  0.59133  0.10113  Biso   1.000  C
  C159     1.0000 0.40867  0.31483  0.10113  Biso   1.000  C
  C160     1.0000 0.35183  0.42717  0.43447  Biso   1.000  C
  C161     1.0000 0.57283  0.92467  0.43447  Biso   1.000  C
  C162     1.0000 0.07533  0.64817  0.43447  Biso   1.000  C
  H37      1.0000 0.97230  0.20170  0.28280  Biso   1.000  H
  H38      1.0000 0.79830  0.77060  0.28280  Biso   1.000  H
  H39      1.0000 0.22940  0.02770  0.28280  Biso   1.000  H
  H40      1.0000 0.63897  0.53503  0.61613  Biso   1.000  H
  H41      1.0000 0.46497  0.10393  0.61613  Biso   1.000  H
  H42      1.0000 0.89607  0.36103  0.61613  Biso   1.000  H
  H43      1.0000 0.30563  0.86837  0.94947  Biso   1.000  H
  H44      1.0000 0.13163  0.43727  0.94947  Biso   1.000  H
  H45      1.0000 0.56273  0.69437  0.94947  Biso   1.000  H
  H46      1.0000 0.02770  0.79830  0.71720  Biso   1.000  H
  H47      1.0000 0.20170  0.22940  0.71720  Biso   1.000  H
  H48      1.0000 0.77060  0.97230  0.71720  Biso   1.000  H
  H49      1.0000 0.69437  0.13163  0.05053  Biso   1.000  H
  H50      1.0000 0.86837  0.56273  0.05053  Biso   1.000  H
  H51      1.0000 0.43727  0.30563  0.05053  Biso   1.000  H
  H52      1.0000 0.36103  0.46497  0.38387  Biso   1.000  H
  H53      1.0000 0.53503  0.89607  0.38387  Biso   1.000  H
  H54      1.0000 0.10393  0.63897  0.38387  Biso   1.000  H
  C163     1.0000 0.97220  0.30520  0.10610  Biso   1.000  C
  C164     1.0000 0.69480  0.66700  0.10610  Biso   1.000  C
  C165     1.0000 0.33300  0.02780  0.10610  Biso   1.000  C
  C166     1.0000 0.63887  0.63853  0.43943  Biso   1.000  C
  C167     1.0000 0.36147  0.00033  0.43943  Biso   1.000  C
  C168     1.0000 0.99967  0.36113  0.43943  Biso   1.000  C
  C169     1.0000 0.30553  0.97187  0.77277  Biso   1.000  C
  C170     1.0000 0.02813  0.33367  0.77277  Biso   1.000  C
  C171     1.0000 0.66633  0.69447  0.77277  Biso   1.000  C
  C172     1.0000 0.02780  0.69480  0.89390  Biso   1.000  C
  C173     1.0000 0.30520  0.33300  0.89390  Biso   1.000  C
  C174     1.0000 0.66700  0.97220  0.89390  Biso   1.000  C
  C175     1.0000 0.69447  0.02813  0.22723  Biso   1.000  C
  C176     1.0000 0.97187  0.66633  0.22723  Biso   1.000  C
  C177     1.0000 0.33367  0.30553  0.22723  Biso   1.000  C
  C178     1.0000 0.36113  0.36147  0.56057  Biso   1.000  C
  C179     1.0000 0.63853  0.99967  0.56057  Biso   1.000  C
  C180     1.0000 0.00033  0.63887  0.56057  Biso   1.000  C
  H55      1.0000 0.95210  0.32230  0.05030  Biso   1.000  H
  H56      1.0000 0.67770  0.62980  0.05030  Biso   1.000  H
  H57      1.0000 0.37020  0.04790  0.05030  Biso   1.000  H
  H58      1.0000 0.61877  0.65563  0.38363  Biso   1.000  H
  H59      1.0000 0.34437  0.96313  0.38363  Biso   1.000  H
  H60      1.0000 0.03687  0.38123  0.38363  Biso   1.000  H
  H61      1.0000 0.28543  0.98897  0.71697  Biso   1.000  H
  H62      1.0000 0.01103  0.29647  0.71697  Biso   1.000  H
  H63      1.0000 0.70353  0.71457  0.71697  Biso   1.000  H
  H64      1.0000 0.04790  0.67770  0.94970  Biso   1.000  H
  H65      1.0000 0.32230  0.37020  0.94970  Biso   1.000  H
  H66      1.0000 0.62980  0.95210  0.94970  Biso   1.000  H
  H67      1.0000 0.71457  0.01103  0.28303  Biso   1.000  H
  H68      1.0000 0.98897  0.70353  0.28303  Biso   1.000  H
  H69      1.0000 0.29647  0.28543  0.28303  Biso   1.000  H
  H70      1.0000 0.38123  0.34437  0.61637  Biso   1.000  H
  H71      1.0000 0.65563  0.03687  0.61637  Biso   1.000  H
  H72      1.0000 0.96313  0.61877  0.61637  Biso   1.000  H
  C181     1.0000 0.35160  0.45180  0.43240  Biso   1.000  C
  C182     1.0000 0.54820  0.89980  0.43240  Biso   1.000  C
  C183     1.0000 0.10020  0.64840  0.43240  Biso   1.000  C
  C184     1.0000 0.01827  0.78513  0.76573  Biso   1.000  C
  C185     1.0000 0.21487  0.23313  0.76573  Biso   1.000  C
  C186     1.0000 0.76687  0.98173  0.76573  Biso   1.000  C
  C187     1.0000 0.68493  0.11847  0.09907  Biso   1.000  C
  C188     1.0000 0.88153  0.56647  0.09907  Biso   1.000  C
  C189     1.0000 0.43353  0.31507  0.09907  Biso   1.000  C
  C190     1.0000 0.64840  0.54820  0.56760  Biso   1.000  C
  C191     1.0000 0.45180  0.10020  0.56760  Biso   1.000  C
  C192     1.0000 0.89980  0.35160  0.56760  Biso   1.000  C
  C193     1.0000 0.31507  0.88153  0.90093  Biso   1.000  C
  C194     1.0000 0.11847  0.43353  0.90093  Biso   1.000  C
  C195     1.0000 0.56647  0.68493  0.90093  Biso   1.000  C
  C196     1.0000 0.98173  0.21487  0.23427  Biso   1.000  C
  C197     1.0000 0.78513  0.76687  0.23427  Biso   1.000  C
  C198     1.0000 0.23313  0.01827  0.23427  Biso   1.000  C
  H73      1.0000 0.35590  0.48770  0.38110  Biso   1.000  H
  H74      1.0000 0.51230  0.86820  0.38110  Biso   1.000  H
  H75      1.0000 0.13180  0.64410  0.38110  Biso   1.000  H
  H76      1.0000 0.02257  0.82103  0.71443  Biso   1.000  H
  H77      1.0000 0.17897  0.20153  0.71443  Biso   1.000  H
  H78      1.0000 0.79847  0.97743  0.71443  Biso   1.000  H
  H79      1.0000 0.68923  0.15437  0.04777  Biso   1.000  H
  H80      1.0000 0.84563  0.53487  0.04777  Biso   1.000  H
  H81      1.0000 0.46513  0.31077  0.04777  Biso   1.000  H
  H82      1.0000 0.64410  0.51230  0.61890  Biso   1.000  H
  H83      1.0000 0.48770  0.13180  0.61890  Biso   1.000  H
  H84      1.0000 0.86820  0.35590  0.61890  Biso   1.000  H
  H85      1.0000 0.31077  0.84563  0.95223  Biso   1.000  H
  H86      1.0000 0.15437  0.46513  0.95223  Biso   1.000  H
  H87      1.0000 0.53487  0.68923  0.95223  Biso   1.000  H
  H88      1.0000 0.97743  0.17897  0.28557  Biso   1.000  H
  H89      1.0000 0.82103  0.79847  0.28557  Biso   1.000  H
  H90      1.0000 0.20153  0.02257  0.28557  Biso   1.000  H
  C199     1.0000 0.37220  0.39190  0.55460  Biso   1.000  C
  C200     1.0000 0.60810  0.98030  0.55460  Biso   1.000  C
  C201     1.0000 0.01970  0.62780  0.55460  Biso   1.000  C
  C202     1.0000 0.03887  0.72523  0.88793  Biso   1.000  C
  C203     1.0000 0.27477  0.31363  0.88793  Biso   1.000  C
  C204     1.0000 0.68637  0.96113  0.88793  Biso   1.000  C
  C205     1.0000 0.70553  0.05857  0.22127  Biso   1.000  C
  C206     1.0000 0.94143  0.64697  0.22127  Biso   1.000  C
  C207     1.0000 0.35303  0.29447  0.22127  Biso   1.000  C
  C208     1.0000 0.62780  0.60810  0.44540  Biso   1.000  C
  C209     1.0000 0.39190  0.01970  0.44540  Biso   1.000  C
  C210     1.0000 0.98030  0.37220  0.44540  Biso   1.000  C
  C211     1.0000 0.29447  0.94143  0.77873  Biso   1.000  C
  C212     1.0000 0.05857  0.35303  0.77873  Biso   1.000  C
  C213     1.0000 0.64697  0.70553  0.77873  Biso   1.000  C
  C214     1.0000 0.96113  0.27477  0.11207  Biso   1.000  C
  C215     1.0000 0.72523  0.68637  0.11207  Biso   1.000  C
  C216     1.0000 0.31363  0.03887  0.11207  Biso   1.000  C
  H91      1.0000 0.39610  0.37910  0.61030  Biso   1.000  H
  H92      1.0000 0.62090  0.01700  0.61030  Biso   1.000  H
  H93      1.0000 0.98300  0.60390  0.61030  Biso   1.000  H
  H94      1.0000 0.06277  0.71243  0.94363  Biso   1.000  H
  H95      1.0000 0.28757  0.35033  0.94363  Biso   1.000  H
  H96      1.0000 0.64967  0.93723  0.94363  Biso   1.000  H
  H97      1.0000 0.72943  0.04577  0.27697  Biso   1.000  H
  H98      1.0000 0.95423  0.68367  0.27697  Biso   1.000  H
  H99      1.0000 0.31633  0.27057  0.27697  Biso   1.000  H
  H100     1.0000 0.60390  0.62090  0.38970  Biso   1.000  H
  H101     1.0000 0.37910  0.98300  0.38970  Biso   1.000  H
  H102     1.0000 0.01700  0.39610  0.38970  Biso   1.000  H
  H103     1.0000 0.27057  0.95423  0.72303  Biso   1.000  H
  H104     1.0000 0.04577  0.31633  0.72303  Biso   1.000  H
  H105     1.0000 0.68367  0.72943  0.72303  Biso   1.000  H
  H106     1.0000 0.93723  0.28757  0.05637  Biso   1.000  H
  H107     1.0000 0.71243  0.64967  0.05637  Biso   1.000  H
  H108     1.0000 0.35033  0.06277  0.05637  Biso   1.000  H
