data_image0
_cell_length_a       16.7083
_cell_length_b       10.916
_cell_length_c       21.0628
_cell_angle_alpha    90
_cell_angle_beta     90
_cell_angle_gamma    90

_symmetry_space_group_name_H-M    "P 1"
_symmetry_int_tables_number       1

loop_
  _symmetry_equiv_pos_as_xyz
  'x, y, z'

loop_
  _atom_site_label
  _atom_site_occupancy
  _atom_site_fract_x
  _atom_site_fract_y
  _atom_site_fract_z
  _atom_site_thermal_displace_type
  _atom_site_B_iso_or_equiv
  _atom_site_type_symbol
  Cu1      1.0000 0.05693  0.56820  0.47439  Biso   1.000  Cu
  Cu2      1.0000 0.44307  0.43180  0.97439  Biso   1.000  Cu
  Cu3      1.0000 0.94307  0.06820  0.02561  Biso   1.000  Cu
  Cu4      1.0000 0.55693  0.93180  0.52561  Biso   1.000  Cu
  Cu5      1.0000 0.94307  0.43180  0.52561  Biso   1.000  Cu
  Cu6      1.0000 0.55693  0.56820  0.02561  Biso   1.000  Cu
  Cu7      1.0000 0.05693  0.93180  0.97439  Biso   1.000  Cu
  Cu8      1.0000 0.44307  0.06820  0.47439  Biso   1.000  Cu
  Cl1      1.0000 0.20735  0.98658  0.21730  Biso   1.000  Cl
  Cl2      1.0000 0.29265  0.01342  0.71730  Biso   1.000  Cl
  Cl3      1.0000 0.79265  0.48658  0.28270  Biso   1.000  Cl
  Cl4      1.0000 0.70735  0.51342  0.78270  Biso   1.000  Cl
  Cl5      1.0000 0.79265  0.01342  0.78270  Biso   1.000  Cl
  Cl6      1.0000 0.70735  0.98658  0.28270  Biso   1.000  Cl
  Cl7      1.0000 0.20735  0.51342  0.71730  Biso   1.000  Cl
  Cl8      1.0000 0.29265  0.48658  0.21730  Biso   1.000  Cl
  O1       1.0000 0.05740  0.65792  0.55584  Biso   1.000  O
  O2       1.0000 0.44260  0.34208  0.05584  Biso   1.000  O
  O3       1.0000 0.94260  0.15792  0.94416  Biso   1.000  O
  O4       1.0000 0.55740  0.84208  0.44416  Biso   1.000  O
  O5       1.0000 0.94260  0.34208  0.44416  Biso   1.000  O
  O6       1.0000 0.55740  0.65792  0.94416  Biso   1.000  O
  O7       1.0000 0.05740  0.84208  0.05584  Biso   1.000  O
  O8       1.0000 0.44260  0.15792  0.55584  Biso   1.000  O
  O9       1.0000 0.95767  0.54501  0.59675  Biso   1.000  O
  O10      1.0000 0.54233  0.45499  0.09675  Biso   1.000  O
  O11      1.0000 0.04233  0.04501  0.90325  Biso   1.000  O
  O12      1.0000 0.45767  0.95499  0.40325  Biso   1.000  O
  O13      1.0000 0.04233  0.45499  0.40325  Biso   1.000  O
  O14      1.0000 0.45767  0.54501  0.90325  Biso   1.000  O
  O15      1.0000 0.95767  0.95499  0.09675  Biso   1.000  O
  O16      1.0000 0.54233  0.04501  0.59675  Biso   1.000  O
  O17      1.0000 0.36955  0.94838  0.51213  Biso   1.000  O
  O18      1.0000 0.13045  0.05162  0.01213  Biso   1.000  O
  O19      1.0000 0.63045  0.44838  0.98787  Biso   1.000  O
  O20      1.0000 0.86955  0.55162  0.48787  Biso   1.000  O
  O21      1.0000 0.63045  0.05162  0.48787  Biso   1.000  O
  O22      1.0000 0.86955  0.94838  0.98787  Biso   1.000  O
  O23      1.0000 0.36955  0.55162  0.01213  Biso   1.000  O
  O24      1.0000 0.13045  0.44838  0.51213  Biso   1.000  O
  O25      1.0000 0.46636  0.83199  0.55576  Biso   1.000  O
  O26      1.0000 0.03364  0.16801  0.05576  Biso   1.000  O
  O27      1.0000 0.53364  0.33199  0.94424  Biso   1.000  O
  O28      1.0000 0.96636  0.66801  0.44424  Biso   1.000  O
  O29      1.0000 0.53364  0.16801  0.44424  Biso   1.000  O
  O30      1.0000 0.96636  0.83199  0.94424  Biso   1.000  O
  O31      1.0000 0.46636  0.66801  0.05576  Biso   1.000  O
  O32      1.0000 0.03364  0.33199  0.55576  Biso   1.000  O
  O33      1.0000 0.16689  0.95366  0.27470  Biso   1.000  O
  O34      1.0000 0.33311  0.04634  0.77470  Biso   1.000  O
  O35      1.0000 0.83311  0.45366  0.22530  Biso   1.000  O
  O36      1.0000 0.66689  0.54634  0.72530  Biso   1.000  O
  O37      1.0000 0.83311  0.04634  0.72530  Biso   1.000  O
  O38      1.0000 0.66689  0.95366  0.22530  Biso   1.000  O
  O39      1.0000 0.16689  0.54634  0.77470  Biso   1.000  O
  O40      1.0000 0.33311  0.45366  0.27470  Biso   1.000  O
  O41      1.0000 0.27323  0.90383  0.20601  Biso   1.000  O
  O42      1.0000 0.22677  0.09617  0.70601  Biso   1.000  O
  O43      1.0000 0.72677  0.40383  0.29399  Biso   1.000  O
  O44      1.0000 0.77323  0.59617  0.79399  Biso   1.000  O
  O45      1.0000 0.72677  0.09617  0.79399  Biso   1.000  O
  O46      1.0000 0.77323  0.90383  0.29399  Biso   1.000  O
  O47      1.0000 0.27323  0.59617  0.70601  Biso   1.000  O
  O48      1.0000 0.22677  0.40383  0.20601  Biso   1.000  O
  O49      1.0000 0.23720  0.11037  0.22273  Biso   1.000  O
  O50      1.0000 0.26280  0.88963  0.72273  Biso   1.000  O
  O51      1.0000 0.76280  0.61037  0.27727  Biso   1.000  O
  O52      1.0000 0.73720  0.38963  0.77727  Biso   1.000  O
  O53      1.0000 0.76280  0.88963  0.77727  Biso   1.000  O
  O54      1.0000 0.73720  0.11037  0.27727  Biso   1.000  O
  O55      1.0000 0.23720  0.38963  0.72273  Biso   1.000  O
  O56      1.0000 0.26280  0.61037  0.22273  Biso   1.000  O
  O57      1.0000 0.15320  0.97958  0.16390  Biso   1.000  O
  O58      1.0000 0.34680  0.02042  0.66390  Biso   1.000  O
  O59      1.0000 0.84680  0.47958  0.33610  Biso   1.000  O
  O60      1.0000 0.65320  0.52042  0.83610  Biso   1.000  O
  O61      1.0000 0.84680  0.02042  0.83610  Biso   1.000  O
  O62      1.0000 0.65320  0.97958  0.33610  Biso   1.000  O
  O63      1.0000 0.15320  0.52042  0.66390  Biso   1.000  O
  O64      1.0000 0.34680  0.47958  0.16390  Biso   1.000  O
  N1       1.0000 0.15502  0.66760  0.42811  Biso   1.000  N
  N2       1.0000 0.34498  0.33240  0.92811  Biso   1.000  N
  N3       1.0000 0.84498  0.16760  0.07189  Biso   1.000  N
  N4       1.0000 0.65502  0.83240  0.57189  Biso   1.000  N
  N5       1.0000 0.84498  0.33240  0.57189  Biso   1.000  N
  N6       1.0000 0.65502  0.66760  0.07189  Biso   1.000  N
  N7       1.0000 0.15502  0.83240  0.92811  Biso   1.000  N
  N8       1.0000 0.34498  0.16760  0.42811  Biso   1.000  N
  N9       1.0000 0.19004  0.77705  0.61363  Biso   1.000  N
  N10      1.0000 0.30996  0.22295  0.11363  Biso   1.000  N
  N11      1.0000 0.80996  0.27705  0.88637  Biso   1.000  N
  N12      1.0000 0.69004  0.72295  0.38637  Biso   1.000  N
  N13      1.0000 0.80996  0.22295  0.38637  Biso   1.000  N
  N14      1.0000 0.69004  0.77705  0.88637  Biso   1.000  N
  N15      1.0000 0.19004  0.72295  0.11363  Biso   1.000  N
  N16      1.0000 0.30996  0.27705  0.61363  Biso   1.000  N
  H1       1.0000 0.21480  0.76780  0.65240  Biso   1.000  H
  H2       1.0000 0.28520  0.23220  0.15240  Biso   1.000  H
  H3       1.0000 0.78520  0.26780  0.84760  Biso   1.000  H
  H4       1.0000 0.71480  0.73220  0.34760  Biso   1.000  H
  H5       1.0000 0.78520  0.23220  0.34760  Biso   1.000  H
  H6       1.0000 0.71480  0.76780  0.84760  Biso   1.000  H
  H7       1.0000 0.21480  0.73220  0.15240  Biso   1.000  H
  H8       1.0000 0.28520  0.26780  0.65240  Biso   1.000  H
  H9       1.0000 0.17750  0.69880  0.60650  Biso   1.000  H
  H10      1.0000 0.32250  0.30120  0.10650  Biso   1.000  H
  H11      1.0000 0.82250  0.19880  0.89350  Biso   1.000  H
  H12      1.0000 0.67750  0.80120  0.39350  Biso   1.000  H
  H13      1.0000 0.82250  0.30120  0.39350  Biso   1.000  H
  H14      1.0000 0.67750  0.69880  0.89350  Biso   1.000  H
  H15      1.0000 0.17750  0.80120  0.10650  Biso   1.000  H
  H16      1.0000 0.32250  0.19880  0.60650  Biso   1.000  H
  N17      1.0000 0.12257  0.03430  0.47627  Biso   1.000  N
  N18      1.0000 0.37743  0.96570  0.97627  Biso   1.000  N
  N19      1.0000 0.87743  0.53430  0.02373  Biso   1.000  N
  N20      1.0000 0.62257  0.46570  0.52373  Biso   1.000  N
  N21      1.0000 0.87743  0.96570  0.52373  Biso   1.000  N
  N22      1.0000 0.62257  0.03430  0.02373  Biso   1.000  N
  N23      1.0000 0.12257  0.46570  0.97627  Biso   1.000  N
  N24      1.0000 0.37743  0.53430  0.47627  Biso   1.000  N
  C1       1.0000 0.00775  0.63137  0.59956  Biso   1.000  C
  C2       1.0000 0.49225  0.36863  0.09956  Biso   1.000  C
  C3       1.0000 0.99225  0.13137  0.90044  Biso   1.000  C
  C4       1.0000 0.50775  0.86863  0.40044  Biso   1.000  C
  C5       1.0000 0.99225  0.36863  0.40044  Biso   1.000  C
  C6       1.0000 0.50775  0.63137  0.90044  Biso   1.000  C
  C7       1.0000 0.00775  0.86863  0.09956  Biso   1.000  C
  C8       1.0000 0.49225  0.13137  0.59956  Biso   1.000  C
  C9       1.0000 0.00777  0.70609  0.65918  Biso   1.000  C
  C10      1.0000 0.49223  0.29391  0.15918  Biso   1.000  C
  C11      1.0000 0.99223  0.20609  0.84082  Biso   1.000  C
  C12      1.0000 0.50777  0.79391  0.34082  Biso   1.000  C
  C13      1.0000 0.99223  0.29391  0.34082  Biso   1.000  C
  C14      1.0000 0.50777  0.70609  0.84082  Biso   1.000  C
  C15      1.0000 0.00777  0.79391  0.15918  Biso   1.000  C
  C16      1.0000 0.49223  0.20609  0.65918  Biso   1.000  C
  C17      1.0000 0.05971  0.80532  0.67011  Biso   1.000  C
  C18      1.0000 0.44029  0.19468  0.17011  Biso   1.000  C
  C19      1.0000 0.94029  0.30532  0.82989  Biso   1.000  C
  C20      1.0000 0.55971  0.69468  0.32989  Biso   1.000  C
  C21      1.0000 0.94029  0.19468  0.32989  Biso   1.000  C
  C22      1.0000 0.55971  0.80532  0.82989  Biso   1.000  C
  C23      1.0000 0.05971  0.69468  0.17011  Biso   1.000  C
  C24      1.0000 0.44029  0.30532  0.67011  Biso   1.000  C
  C25      1.0000 0.05739  0.86475  0.72883  Biso   1.000  C
  C26      1.0000 0.44261  0.13525  0.22883  Biso   1.000  C
  C27      1.0000 0.94261  0.36475  0.77117  Biso   1.000  C
  C28      1.0000 0.55739  0.63525  0.27117  Biso   1.000  C
  C29      1.0000 0.94261  0.13525  0.27117  Biso   1.000  C
  C30      1.0000 0.55739  0.86475  0.77117  Biso   1.000  C
  C31      1.0000 0.05739  0.63525  0.22883  Biso   1.000  C
  C32      1.0000 0.44261  0.36475  0.72883  Biso   1.000  C
  H17      1.0000 0.09360  0.93000  0.73690  Biso   1.000  H
  H18      1.0000 0.40640  0.07000  0.23690  Biso   1.000  H
  H19      1.0000 0.90640  0.43000  0.76310  Biso   1.000  H
  H20      1.0000 0.59360  0.57000  0.26310  Biso   1.000  H
  H21      1.0000 0.90640  0.07000  0.26310  Biso   1.000  H
  H22      1.0000 0.59360  0.93000  0.76310  Biso   1.000  H
  H23      1.0000 0.09360  0.57000  0.23690  Biso   1.000  H
  H24      1.0000 0.40640  0.43000  0.73690  Biso   1.000  H
  C33      1.0000 0.00329  0.83055  0.77578  Biso   1.000  C
  C34      1.0000 0.49671  0.16945  0.27578  Biso   1.000  C
  C35      1.0000 0.99671  0.33055  0.72422  Biso   1.000  C
  C36      1.0000 0.50329  0.66945  0.22422  Biso   1.000  C
  C37      1.0000 0.99671  0.16945  0.22422  Biso   1.000  C
  C38      1.0000 0.50329  0.83055  0.72422  Biso   1.000  C
  C39      1.0000 0.00329  0.66945  0.27578  Biso   1.000  C
  C40      1.0000 0.49671  0.33055  0.77578  Biso   1.000  C
  H25      1.0000 0.00230  0.87230  0.81540  Biso   1.000  H
  H26      1.0000 0.49770  0.12770  0.31540  Biso   1.000  H
  H27      1.0000 0.99770  0.37230  0.68460  Biso   1.000  H
  H28      1.0000 0.50230  0.62770  0.18460  Biso   1.000  H
  H29      1.0000 0.99770  0.12770  0.18460  Biso   1.000  H
  H30      1.0000 0.50230  0.87230  0.68460  Biso   1.000  H
  H31      1.0000 0.00230  0.62770  0.31540  Biso   1.000  H
  H32      1.0000 0.49770  0.37230  0.81540  Biso   1.000  H
  C41      1.0000 0.95073  0.73476  0.76411  Biso   1.000  C
  C42      1.0000 0.54927  0.26524  0.26411  Biso   1.000  C
  C43      1.0000 0.04927  0.23476  0.73589  Biso   1.000  C
  C44      1.0000 0.45073  0.76524  0.23589  Biso   1.000  C
  C45      1.0000 0.04927  0.26524  0.23589  Biso   1.000  C
  C46      1.0000 0.45073  0.73476  0.73589  Biso   1.000  C
  C47      1.0000 0.95073  0.76524  0.26411  Biso   1.000  C
  C48      1.0000 0.54927  0.23476  0.76411  Biso   1.000  C
  H33      1.0000 0.91290  0.71150  0.79550  Biso   1.000  H
  H34      1.0000 0.58710  0.28850  0.29550  Biso   1.000  H
  H35      1.0000 0.08710  0.21150  0.70450  Biso   1.000  H
  H36      1.0000 0.41290  0.78850  0.20450  Biso   1.000  H
  H37      1.0000 0.08710  0.28850  0.20450  Biso   1.000  H
  H38      1.0000 0.41290  0.71150  0.70450  Biso   1.000  H
  H39      1.0000 0.91290  0.78850  0.29550  Biso   1.000  H
  H40      1.0000 0.58710  0.21150  0.79550  Biso   1.000  H
  C49      1.0000 0.95344  0.67308  0.70668  Biso   1.000  C
  C50      1.0000 0.54656  0.32692  0.20668  Biso   1.000  C
  C51      1.0000 0.04656  0.17308  0.79332  Biso   1.000  C
  C52      1.0000 0.45344  0.82692  0.29332  Biso   1.000  C
  C53      1.0000 0.04656  0.32692  0.29332  Biso   1.000  C
  C54      1.0000 0.45344  0.67308  0.79332  Biso   1.000  C
  C55      1.0000 0.95344  0.82692  0.20668  Biso   1.000  C
  C56      1.0000 0.54656  0.17308  0.70668  Biso   1.000  C
  H41      1.0000 0.91760  0.60700  0.69940  Biso   1.000  H
  H42      1.0000 0.58240  0.39300  0.19940  Biso   1.000  H
  H43      1.0000 0.08240  0.10700  0.80060  Biso   1.000  H
  H44      1.0000 0.41760  0.89300  0.30060  Biso   1.000  H
  H45      1.0000 0.08240  0.39300  0.30060  Biso   1.000  H
  H46      1.0000 0.41760  0.60700  0.80060  Biso   1.000  H
  H47      1.0000 0.91760  0.89300  0.19940  Biso   1.000  H
  H48      1.0000 0.58240  0.10700  0.69940  Biso   1.000  H
  C57      1.0000 0.11707  0.85580  0.62143  Biso   1.000  C
  C58      1.0000 0.38293  0.14420  0.12143  Biso   1.000  C
  C59      1.0000 0.88293  0.35580  0.87857  Biso   1.000  C
  C60      1.0000 0.61707  0.64420  0.37857  Biso   1.000  C
  C61      1.0000 0.88293  0.14420  0.37857  Biso   1.000  C
  C62      1.0000 0.61707  0.85580  0.87857  Biso   1.000  C
  C63      1.0000 0.11707  0.64420  0.12143  Biso   1.000  C
  C64      1.0000 0.38293  0.35580  0.62143  Biso   1.000  C
  H49      1.0000 0.08930  0.86260  0.58010  Biso   1.000  H
  H50      1.0000 0.41070  0.13740  0.08010  Biso   1.000  H
  H51      1.0000 0.91070  0.36260  0.91990  Biso   1.000  H
  H52      1.0000 0.58930  0.63740  0.41990  Biso   1.000  H
  H53      1.0000 0.91070  0.13740  0.41990  Biso   1.000  H
  H54      1.0000 0.58930  0.86260  0.91990  Biso   1.000  H
  H55      1.0000 0.08930  0.63740  0.08010  Biso   1.000  H
  H56      1.0000 0.41070  0.36260  0.58010  Biso   1.000  H
  H57      1.0000 0.13380  0.93910  0.63440  Biso   1.000  H
  H58      1.0000 0.36620  0.06090  0.13440  Biso   1.000  H
  H59      1.0000 0.86620  0.43910  0.86560  Biso   1.000  H
  H60      1.0000 0.63380  0.56090  0.36560  Biso   1.000  H
  H61      1.0000 0.86620  0.06090  0.36560  Biso   1.000  H
  H62      1.0000 0.63380  0.93910  0.86560  Biso   1.000  H
  H63      1.0000 0.13380  0.56090  0.13440  Biso   1.000  H
  H64      1.0000 0.36620  0.43910  0.63440  Biso   1.000  H
  C65      1.0000 0.24772  0.83222  0.56741  Biso   1.000  C
  C66      1.0000 0.25228  0.16778  0.06741  Biso   1.000  C
  C67      1.0000 0.75228  0.33222  0.93259  Biso   1.000  C
  C68      1.0000 0.74772  0.66778  0.43259  Biso   1.000  C
  C69      1.0000 0.75228  0.16778  0.43259  Biso   1.000  C
  C70      1.0000 0.74772  0.83222  0.93259  Biso   1.000  C
  C71      1.0000 0.24772  0.66778  0.06741  Biso   1.000  C
  C72      1.0000 0.25228  0.33222  0.56741  Biso   1.000  C
  H65      1.0000 0.25040  0.92180  0.57440  Biso   1.000  H
  H66      1.0000 0.24960  0.07820  0.07440  Biso   1.000  H
  H67      1.0000 0.74960  0.42180  0.92560  Biso   1.000  H
  H68      1.0000 0.75040  0.57820  0.42560  Biso   1.000  H
  H69      1.0000 0.74960  0.07820  0.42560  Biso   1.000  H
  H70      1.0000 0.75040  0.92180  0.92560  Biso   1.000  H
  H71      1.0000 0.25040  0.57820  0.07440  Biso   1.000  H
  H72      1.0000 0.24960  0.42180  0.57440  Biso   1.000  H
  H73      1.0000 0.22820  0.81800  0.52360  Biso   1.000  H
  H74      1.0000 0.27180  0.18200  0.02360  Biso   1.000  H
  H75      1.0000 0.77180  0.31800  0.97640  Biso   1.000  H
  H76      1.0000 0.72820  0.68200  0.47640  Biso   1.000  H
  H77      1.0000 0.77180  0.18200  0.47640  Biso   1.000  H
  H78      1.0000 0.72820  0.81800  0.97640  Biso   1.000  H
  H79      1.0000 0.22820  0.68200  0.02360  Biso   1.000  H
  H80      1.0000 0.27180  0.31800  0.52360  Biso   1.000  H
  C73      1.0000 0.33096  0.77763  0.57450  Biso   1.000  C
  C74      1.0000 0.16904  0.22237  0.07450  Biso   1.000  C
  C75      1.0000 0.66904  0.27763  0.92550  Biso   1.000  C
  C76      1.0000 0.83096  0.72237  0.42550  Biso   1.000  C
  C77      1.0000 0.66904  0.22237  0.42550  Biso   1.000  C
  C78      1.0000 0.83096  0.77763  0.92550  Biso   1.000  C
  C79      1.0000 0.33096  0.72237  0.07450  Biso   1.000  C
  C80      1.0000 0.16904  0.27763  0.57450  Biso   1.000  C
  H81      1.0000 0.34310  0.76620  0.62010  Biso   1.000  H
  H82      1.0000 0.15690  0.23380  0.12010  Biso   1.000  H
  H83      1.0000 0.65690  0.26620  0.87990  Biso   1.000  H
  H84      1.0000 0.84310  0.73380  0.37990  Biso   1.000  H
  H85      1.0000 0.65690  0.23380  0.37990  Biso   1.000  H
  H86      1.0000 0.84310  0.76620  0.87990  Biso   1.000  H
  H87      1.0000 0.34310  0.73380  0.12010  Biso   1.000  H
  H88      1.0000 0.15690  0.26620  0.62010  Biso   1.000  H
  H89      1.0000 0.33240  0.69620  0.55390  Biso   1.000  H
  H90      1.0000 0.16760  0.30380  0.05390  Biso   1.000  H
  H91      1.0000 0.66760  0.19620  0.94610  Biso   1.000  H
  H92      1.0000 0.83240  0.80380  0.44610  Biso   1.000  H
  H93      1.0000 0.66760  0.30380  0.44610  Biso   1.000  H
  H94      1.0000 0.83240  0.69620  0.94610  Biso   1.000  H
  H95      1.0000 0.33240  0.80380  0.05390  Biso   1.000  H
  H96      1.0000 0.16760  0.19620  0.55390  Biso   1.000  H
  C81      1.0000 0.39399  0.85928  0.54494  Biso   1.000  C
  C82      1.0000 0.10601  0.14072  0.04494  Biso   1.000  C
  C83      1.0000 0.60601  0.35928  0.95506  Biso   1.000  C
  C84      1.0000 0.89399  0.64072  0.45506  Biso   1.000  C
  C85      1.0000 0.60601  0.14072  0.45506  Biso   1.000  C
  C86      1.0000 0.89399  0.85928  0.95506  Biso   1.000  C
  C87      1.0000 0.39399  0.64072  0.04494  Biso   1.000  C
  C88      1.0000 0.10601  0.35928  0.54494  Biso   1.000  C
  C89      1.0000 0.20947  0.70235  0.40064  Biso   1.000  C
  C90      1.0000 0.29053  0.29765  0.90064  Biso   1.000  C
  C91      1.0000 0.79053  0.20235  0.09936  Biso   1.000  C
  C92      1.0000 0.70947  0.79765  0.59936  Biso   1.000  C
  C93      1.0000 0.79053  0.29765  0.59936  Biso   1.000  C
  C94      1.0000 0.70947  0.70235  0.09936  Biso   1.000  C
  C95      1.0000 0.20947  0.79765  0.90064  Biso   1.000  C
  C96      1.0000 0.29053  0.20235  0.40064  Biso   1.000  C
  C97      1.0000 0.27916  0.74860  0.36618  Biso   1.000  C
  C98      1.0000 0.22084  0.25140  0.86618  Biso   1.000  C
  C99      1.0000 0.72084  0.24860  0.13382  Biso   1.000  C
  C100     1.0000 0.77916  0.75140  0.63382  Biso   1.000  C
  C101     1.0000 0.72084  0.25140  0.63382  Biso   1.000  C
  C102     1.0000 0.77916  0.74860  0.13382  Biso   1.000  C
  C103     1.0000 0.27916  0.75140  0.86618  Biso   1.000  C
  C104     1.0000 0.22084  0.24860  0.36618  Biso   1.000  C
  H97      1.0000 0.26130  0.79820  0.33010  Biso   1.000  H
  H98      1.0000 0.23870  0.20180  0.83010  Biso   1.000  H
  H99      1.0000 0.73870  0.29820  0.16990  Biso   1.000  H
  H100     1.0000 0.76130  0.70180  0.66990  Biso   1.000  H
  H101     1.0000 0.73870  0.20180  0.66990  Biso   1.000  H
  H102     1.0000 0.76130  0.79820  0.16990  Biso   1.000  H
  H103     1.0000 0.26130  0.70180  0.83010  Biso   1.000  H
  H104     1.0000 0.23870  0.29820  0.33010  Biso   1.000  H
  H105     1.0000 0.31110  0.67960  0.35070  Biso   1.000  H
  H106     1.0000 0.18890  0.32040  0.85070  Biso   1.000  H
  H107     1.0000 0.68890  0.17960  0.14930  Biso   1.000  H
  H108     1.0000 0.81110  0.82040  0.64930  Biso   1.000  H
  H109     1.0000 0.68890  0.32040  0.64930  Biso   1.000  H
  H110     1.0000 0.81110  0.67960  0.14930  Biso   1.000  H
  H111     1.0000 0.31110  0.82040  0.85070  Biso   1.000  H
  H112     1.0000 0.18890  0.17960  0.35070  Biso   1.000  H
  H113     1.0000 0.31180  0.79920  0.39460  Biso   1.000  H
  H114     1.0000 0.18820  0.20080  0.89460  Biso   1.000  H
  H115     1.0000 0.68820  0.29920  0.10540  Biso   1.000  H
  H116     1.0000 0.81180  0.70080  0.60540  Biso   1.000  H
  H117     1.0000 0.68820  0.20080  0.60540  Biso   1.000  H
  H118     1.0000 0.81180  0.79920  0.10540  Biso   1.000  H
  H119     1.0000 0.31180  0.70080  0.89460  Biso   1.000  H
  H120     1.0000 0.18820  0.29920  0.39460  Biso   1.000  H
  C105     1.0000 0.08635  0.98727  0.43757  Biso   1.000  C
  C106     1.0000 0.41365  0.01273  0.93757  Biso   1.000  C
  C107     1.0000 0.91365  0.48727  0.06243  Biso   1.000  C
  C108     1.0000 0.58635  0.51273  0.56243  Biso   1.000  C
  C109     1.0000 0.91365  0.01273  0.56243  Biso   1.000  C
  C110     1.0000 0.58635  0.98727  0.06243  Biso   1.000  C
  C111     1.0000 0.08635  0.51273  0.93757  Biso   1.000  C
  C112     1.0000 0.41365  0.48727  0.43757  Biso   1.000  C
  C113     1.0000 0.04166  0.92501  0.38874  Biso   1.000  C
  C114     1.0000 0.45834  0.07499  0.88874  Biso   1.000  C
  C115     1.0000 0.95834  0.42501  0.11126  Biso   1.000  C
  C116     1.0000 0.54166  0.57499  0.61126  Biso   1.000  C
  C117     1.0000 0.95834  0.07499  0.61126  Biso   1.000  C
  C118     1.0000 0.54166  0.92501  0.11126  Biso   1.000  C
  C119     1.0000 0.04166  0.57499  0.88874  Biso   1.000  C
  C120     1.0000 0.45834  0.42501  0.38874  Biso   1.000  C
  H121     1.0000 0.07220  0.85420  0.37370  Biso   1.000  H
  H122     1.0000 0.42780  0.14580  0.87370  Biso   1.000  H
  H123     1.0000 0.92780  0.35420  0.12630  Biso   1.000  H
  H124     1.0000 0.57220  0.64580  0.62630  Biso   1.000  H
  H125     1.0000 0.92780  0.14580  0.62630  Biso   1.000  H
  H126     1.0000 0.57220  0.85420  0.12630  Biso   1.000  H
  H127     1.0000 0.07220  0.64580  0.87370  Biso   1.000  H
  H128     1.0000 0.42780  0.35420  0.37370  Biso   1.000  H
  H129     1.0000 0.03200  0.98130  0.35330  Biso   1.000  H
  H130     1.0000 0.46800  0.01870  0.85330  Biso   1.000  H
  H131     1.0000 0.96800  0.48130  0.14670  Biso   1.000  H
  H132     1.0000 0.53200  0.51870  0.64670  Biso   1.000  H
  H133     1.0000 0.96800  0.01870  0.64670  Biso   1.000  H
  H134     1.0000 0.53200  0.98130  0.14670  Biso   1.000  H
  H135     1.0000 0.03200  0.51870  0.85330  Biso   1.000  H
  H136     1.0000 0.46800  0.48130  0.35330  Biso   1.000  H
  H137     1.0000 0.99030  0.89730  0.40610  Biso   1.000  H
  H138     1.0000 0.50970  0.10270  0.90610  Biso   1.000  H
  H139     1.0000 0.00970  0.39730  0.09390  Biso   1.000  H
  H140     1.0000 0.49030  0.60270  0.59390  Biso   1.000  H
  H141     1.0000 0.00970  0.10270  0.59390  Biso   1.000  H
  H142     1.0000 0.49030  0.89730  0.09390  Biso   1.000  H
  H143     1.0000 0.99030  0.60270  0.90610  Biso   1.000  H
  H144     1.0000 0.50970  0.39730  0.40610  Biso   1.000  H
