data_image0
_cell_length_a       7.1168
_cell_length_b       8.4491
_cell_length_c       9.5294
_cell_angle_alpha    87.033
_cell_angle_beta     77.344
_cell_angle_gamma    84.337

_symmetry_space_group_name_H-M    "P 1"
_symmetry_int_tables_number       1

loop_
  _symmetry_equiv_pos_as_xyz
  'x, y, z'

loop_
  _atom_site_label
  _atom_site_occupancy
  _atom_site_fract_x
  _atom_site_fract_y
  _atom_site_fract_z
  _atom_site_thermal_displace_type
  _atom_site_B_iso_or_equiv
  _atom_site_type_symbol
  Cu1      1.0000 0.50000  0.50000  0.50000  Biso   1.000  Cu
  S1       1.0000 0.83780  0.74034  0.24513  Biso   1.000  S
  S2       1.0000 0.16220  0.25966  0.75487  Biso   1.000  S
  N1       1.0000 0.77230  0.38820  0.48250  Biso   1.000  N
  N2       1.0000 0.22770  0.61180  0.51750  Biso   1.000  N
  N3       1.0000 0.47690  0.71760  0.88220  Biso   1.000  N
  N4       1.0000 0.52310  0.28240  0.11780  Biso   1.000  N
  O1       1.0000 0.64680  0.68780  0.31040  Biso   1.000  O
  O2       1.0000 0.35320  0.31220  0.68960  Biso   1.000  O
  O3       1.0000 0.99070  0.63690  0.29320  Biso   1.000  O
  O4       1.0000 0.00930  0.36310  0.70680  Biso   1.000  O
  O5       1.0000 0.87030  0.76210  0.09080  Biso   1.000  O
  O6       1.0000 0.12970  0.23790  0.90920  Biso   1.000  O
  O7       1.0000 0.55610  0.62340  0.65650  Biso   1.000  O
  O8       1.0000 0.44390  0.37660  0.34350  Biso   1.000  O
  C1       1.0000 0.83800  0.93060  0.31490  Biso   1.000  C
  C2       1.0000 0.16200  0.06940  0.68510  Biso   1.000  C
  C3       1.0000 0.91400  0.05480  0.22770  Biso   1.000  C
  C4       1.0000 0.08600  0.94520  0.77230  Biso   1.000  C
  C5       1.0000 0.89850  0.20590  0.28420  Biso   1.000  C
  C6       1.0000 0.10150  0.79410  0.71580  Biso   1.000  C
  C7       1.0000 0.80810  0.23060  0.42610  Biso   1.000  C
  C8       1.0000 0.19190  0.76940  0.57390  Biso   1.000  C
  C9       1.0000 0.73900  0.10420  0.51450  Biso   1.000  C
  C10      1.0000 0.26100  0.89580  0.48550  Biso   1.000  C
  C11      1.0000 0.75330  0.95430  0.45950  Biso   1.000  C
  C12      1.0000 0.24670  0.04570  0.54050  Biso   1.000  C
  C13      1.0000 0.46480  0.61800  0.78520  Biso   1.000  C
  C14      1.0000 0.53520  0.38200  0.21480  Biso   1.000  C
  C15      1.0000 0.58970  0.85380  0.84630  Biso   1.000  C
  C16      1.0000 0.41030  0.14620  0.15370  Biso   1.000  C
  C17      1.0000 0.35710  0.71110  0.02690  Biso   1.000  C
  C18      1.0000 0.64290  0.28890  0.97310  Biso   1.000  C
  H1       1.0000 0.79900  0.38200  0.56500  Biso   1.000  H
  H2       1.0000 0.20100  0.61800  0.43500  Biso   1.000  H
  H3       1.0000 0.84000  0.45600  0.42900  Biso   1.000  H
  H4       1.0000 0.16000  0.54400  0.57100  Biso   1.000  H
  H5       1.0000 0.97500  0.03790  0.13220  Biso   1.000  H
  H6       1.0000 0.02500  0.96210  0.86780  Biso   1.000  H
  H7       1.0000 0.94920  0.29020  0.22620  Biso   1.000  H
  H8       1.0000 0.05080  0.70980  0.77380  Biso   1.000  H
  H9       1.0000 0.68290  0.12030  0.61100  Biso   1.000  H
  H10      1.0000 0.31710  0.87970  0.38900  Biso   1.000  H
  H11      1.0000 0.70650  0.86950  0.51870  Biso   1.000  H
  H12      1.0000 0.29350  0.13050  0.48130  Biso   1.000  H
  H13      1.0000 0.38300  0.53750  0.81320  Biso   1.000  H
  H14      1.0000 0.61700  0.46250  0.18680  Biso   1.000  H
  H15      1.0000 0.68490  0.83490  0.75900  Biso   1.000  H
  H16      1.0000 0.31510  0.16510  0.24100  Biso   1.000  H
  H17      1.0000 0.65320  0.86970  0.92290  Biso   1.000  H
  H18      1.0000 0.34680  0.13030  0.07710  Biso   1.000  H
  H19      1.0000 0.50580  0.94700  0.83320  Biso   1.000  H
  H20      1.0000 0.49420  0.05300  0.16680  Biso   1.000  H
  H21      1.0000 0.28730  0.61800  0.03900  Biso   1.000  H
  H22      1.0000 0.71270  0.38200  0.96100  Biso   1.000  H
  H23      1.0000 0.26710  0.80430  0.04130  Biso   1.000  H
  H24      1.0000 0.73290  0.19570  0.95870  Biso   1.000  H
  H25      1.0000 0.43770  0.70680  0.09590  Biso   1.000  H
  H26      1.0000 0.56230  0.29320  0.90410  Biso   1.000  H
