data_image0
_cell_length_a       18.8441
_cell_length_b       18.8441
_cell_length_c       13.4252
_cell_angle_alpha    90
_cell_angle_beta     90
_cell_angle_gamma    90

_symmetry_space_group_name_H-M    "P 1"
_symmetry_int_tables_number       1

loop_
  _symmetry_equiv_pos_as_xyz
  'x, y, z'

loop_
  _atom_site_label
  _atom_site_occupancy
  _atom_site_fract_x
  _atom_site_fract_y
  _atom_site_fract_z
  _atom_site_thermal_displace_type
  _atom_site_B_iso_or_equiv
  _atom_site_type_symbol
  Cu1      1.0000 0.53388  0.53388  0.57348  Biso   1.000  Cu
  Cu2      1.0000 0.96612  0.53388  0.57348  Biso   1.000  Cu
  Cu3      1.0000 0.96612  0.96612  0.57348  Biso   1.000  Cu
  Cu4      1.0000 0.53388  0.96612  0.57348  Biso   1.000  Cu
  Cu5      1.0000 0.03388  0.46612  0.42652  Biso   1.000  Cu
  Cu6      1.0000 0.46612  0.03388  0.42652  Biso   1.000  Cu
  Cu7      1.0000 0.03388  0.03388  0.42652  Biso   1.000  Cu
  Cu8      1.0000 0.46612  0.46612  0.42652  Biso   1.000  Cu
  O1       1.0000 0.48212  0.38058  0.50260  Biso   1.000  O
  O2       1.0000 0.11942  0.48212  0.50260  Biso   1.000  O
  O3       1.0000 0.01788  0.11942  0.50260  Biso   1.000  O
  O4       1.0000 0.38058  0.01788  0.50260  Biso   1.000  O
  O5       1.0000 0.98212  0.61942  0.49740  Biso   1.000  O
  O6       1.0000 0.51788  0.88058  0.49740  Biso   1.000  O
  O7       1.0000 0.88058  0.98212  0.49740  Biso   1.000  O
  O8       1.0000 0.61942  0.51788  0.49740  Biso   1.000  O
  O9       1.0000 0.51788  0.61942  0.49740  Biso   1.000  O
  O10      1.0000 0.88058  0.51788  0.49740  Biso   1.000  O
  O11      1.0000 0.98212  0.88058  0.49740  Biso   1.000  O
  O12      1.0000 0.61942  0.98212  0.49740  Biso   1.000  O
  O13      1.0000 0.01788  0.38058  0.50260  Biso   1.000  O
  O14      1.0000 0.48212  0.11942  0.50260  Biso   1.000  O
  O15      1.0000 0.11942  0.01788  0.50260  Biso   1.000  O
  O16      1.0000 0.38058  0.48212  0.50260  Biso   1.000  O
  C1       1.0000 0.75000  0.25000  0.62650  Biso   1.000  C
  C2       1.0000 0.25000  0.75000  0.62650  Biso   1.000  C
  C3       1.0000 0.25000  0.75000  0.37350  Biso   1.000  C
  C4       1.0000 0.75000  0.25000  0.37350  Biso   1.000  C
  H1       1.0000 0.75000  0.29780  0.60270  Biso   1.000  H
  H2       1.0000 0.20220  0.75000  0.60270  Biso   1.000  H
  H3       1.0000 0.75000  0.20220  0.60270  Biso   1.000  H
  H4       1.0000 0.29780  0.75000  0.60270  Biso   1.000  H
  H5       1.0000 0.25000  0.70220  0.39730  Biso   1.000  H
  H6       1.0000 0.25000  0.79780  0.39730  Biso   1.000  H
  H7       1.0000 0.79780  0.25000  0.39730  Biso   1.000  H
  H8       1.0000 0.70220  0.25000  0.39730  Biso   1.000  H
  C5       1.0000 0.61630  0.25000  0.95000  Biso   1.000  C
  C6       1.0000 0.25000  0.61630  0.95000  Biso   1.000  C
  C7       1.0000 0.88370  0.25000  0.95000  Biso   1.000  C
  C8       1.0000 0.25000  0.88370  0.95000  Biso   1.000  C
  C9       1.0000 0.11630  0.75000  0.05000  Biso   1.000  C
  C10      1.0000 0.38370  0.75000  0.05000  Biso   1.000  C
  C11      1.0000 0.75000  0.11630  0.05000  Biso   1.000  C
  C12      1.0000 0.75000  0.38370  0.05000  Biso   1.000  C
  O17      1.0000 0.58470  0.58470  0.69960  Biso   1.000  O
  O18      1.0000 0.91530  0.58470  0.69960  Biso   1.000  O
  O19      1.0000 0.91530  0.91530  0.69960  Biso   1.000  O
  O20      1.0000 0.58470  0.91530  0.69960  Biso   1.000  O
  O21      1.0000 0.08470  0.41530  0.30040  Biso   1.000  O
  O22      1.0000 0.41530  0.08470  0.30040  Biso   1.000  O
  O23      1.0000 0.08470  0.08470  0.30040  Biso   1.000  O
  O24      1.0000 0.41530  0.41530  0.30040  Biso   1.000  O
  O25      1.0000 0.54113  0.43792  0.62470  Biso   1.000  O
  O26      1.0000 0.06208  0.54113  0.62470  Biso   1.000  O
  O27      1.0000 0.95887  0.06208  0.62470  Biso   1.000  O
  O28      1.0000 0.43792  0.95887  0.62470  Biso   1.000  O
  O29      1.0000 0.04113  0.56208  0.37530  Biso   1.000  O
  O30      1.0000 0.45887  0.93792  0.37530  Biso   1.000  O
  O31      1.0000 0.93792  0.04113  0.37530  Biso   1.000  O
  O32      1.0000 0.56208  0.45887  0.37530  Biso   1.000  O
  O33      1.0000 0.45887  0.56208  0.37530  Biso   1.000  O
  O34      1.0000 0.93792  0.45887  0.37530  Biso   1.000  O
  O35      1.0000 0.04113  0.93792  0.37530  Biso   1.000  O
  O36      1.0000 0.56208  0.04113  0.37530  Biso   1.000  O
  O37      1.0000 0.95887  0.43792  0.62470  Biso   1.000  O
  O38      1.0000 0.54113  0.06208  0.62470  Biso   1.000  O
  O39      1.0000 0.06208  0.95887  0.62470  Biso   1.000  O
  O40      1.0000 0.43792  0.54113  0.62470  Biso   1.000  O
  C13      1.0000 0.68510  0.25000  0.89460  Biso   1.000  C
  C14      1.0000 0.25000  0.68510  0.89460  Biso   1.000  C
  C15      1.0000 0.81490  0.25000  0.89460  Biso   1.000  C
  C16      1.0000 0.25000  0.81490  0.89460  Biso   1.000  C
  C17      1.0000 0.18510  0.75000  0.10540  Biso   1.000  C
  C18      1.0000 0.31490  0.75000  0.10540  Biso   1.000  C
  C19      1.0000 0.75000  0.18510  0.10540  Biso   1.000  C
  C20      1.0000 0.75000  0.31490  0.10540  Biso   1.000  C
  C21      1.0000 0.75000  0.25000  0.74010  Biso   1.000  C
  C22      1.0000 0.25000  0.75000  0.74010  Biso   1.000  C
  C23      1.0000 0.25000  0.75000  0.25990  Biso   1.000  C
  C24      1.0000 0.75000  0.25000  0.25990  Biso   1.000  C
  C25      1.0000 0.68680  0.25000  0.79230  Biso   1.000  C
  C26      1.0000 0.25000  0.68680  0.79230  Biso   1.000  C
  C27      1.0000 0.81320  0.25000  0.79230  Biso   1.000  C
  C28      1.0000 0.25000  0.81320  0.79230  Biso   1.000  C
  C29      1.0000 0.18680  0.75000  0.20770  Biso   1.000  C
  C30      1.0000 0.31320  0.75000  0.20770  Biso   1.000  C
  C31      1.0000 0.75000  0.18680  0.20770  Biso   1.000  C
  C32      1.0000 0.75000  0.31320  0.20770  Biso   1.000  C
  C33      1.0000 0.61940  0.25000  0.73260  Biso   1.000  C
  C34      1.0000 0.25000  0.61940  0.73260  Biso   1.000  C
  C35      1.0000 0.88060  0.25000  0.73260  Biso   1.000  C
  C36      1.0000 0.25000  0.88060  0.73260  Biso   1.000  C
  C37      1.0000 0.11940  0.75000  0.26740  Biso   1.000  C
  C38      1.0000 0.38060  0.75000  0.26740  Biso   1.000  C
  C39      1.0000 0.75000  0.11940  0.26740  Biso   1.000  C
  C40      1.0000 0.75000  0.38060  0.26740  Biso   1.000  C
  C41      1.0000 0.59170  0.31250  0.69750  Biso   1.000  C
  C42      1.0000 0.18750  0.59170  0.69750  Biso   1.000  C
  C43      1.0000 0.90830  0.18750  0.69750  Biso   1.000  C
  C44      1.0000 0.31250  0.90830  0.69750  Biso   1.000  C
  C45      1.0000 0.09170  0.68750  0.30250  Biso   1.000  C
  C46      1.0000 0.40830  0.81250  0.30250  Biso   1.000  C
  C47      1.0000 0.81250  0.09170  0.30250  Biso   1.000  C
  C48      1.0000 0.68750  0.40830  0.30250  Biso   1.000  C
  C49      1.0000 0.40830  0.68750  0.30250  Biso   1.000  C
  C50      1.0000 0.81250  0.40830  0.30250  Biso   1.000  C
  C51      1.0000 0.09170  0.81250  0.30250  Biso   1.000  C
  C52      1.0000 0.68750  0.09170  0.30250  Biso   1.000  C
  C53      1.0000 0.90830  0.31250  0.69750  Biso   1.000  C
  C54      1.0000 0.59170  0.18750  0.69750  Biso   1.000  C
  C55      1.0000 0.18750  0.90830  0.69750  Biso   1.000  C
  C56      1.0000 0.31250  0.59170  0.69750  Biso   1.000  C
  H9       1.0000 0.60840  0.35520  0.72310  Biso   1.000  H
  H10      1.0000 0.14480  0.60840  0.72310  Biso   1.000  H
  H11      1.0000 0.89160  0.14480  0.72310  Biso   1.000  H
  H12      1.0000 0.35520  0.89160  0.72310  Biso   1.000  H
  H13      1.0000 0.10840  0.64480  0.27690  Biso   1.000  H
  H14      1.0000 0.39160  0.85520  0.27690  Biso   1.000  H
  H15      1.0000 0.85520  0.10840  0.27690  Biso   1.000  H
  H16      1.0000 0.64480  0.39160  0.27690  Biso   1.000  H
  H17      1.0000 0.39160  0.64480  0.27690  Biso   1.000  H
  H18      1.0000 0.85520  0.39160  0.27690  Biso   1.000  H
  H19      1.0000 0.10840  0.85520  0.27690  Biso   1.000  H
  H20      1.0000 0.64480  0.10840  0.27690  Biso   1.000  H
  H21      1.0000 0.89160  0.35520  0.72310  Biso   1.000  H
  H22      1.0000 0.60840  0.14480  0.72310  Biso   1.000  H
  H23      1.0000 0.14480  0.89160  0.72310  Biso   1.000  H
  H24      1.0000 0.35520  0.60840  0.72310  Biso   1.000  H
  C57      1.0000 0.75000  0.25000  0.94600  Biso   1.000  C
  C58      1.0000 0.25000  0.75000  0.94600  Biso   1.000  C
  C59      1.0000 0.25000  0.75000  0.05400  Biso   1.000  C
  C60      1.0000 0.75000  0.25000  0.05400  Biso   1.000  C
  C61      1.0000 0.54040  0.31350  0.62600  Biso   1.000  C
  C62      1.0000 0.18650  0.54040  0.62600  Biso   1.000  C
  C63      1.0000 0.95960  0.18650  0.62600  Biso   1.000  C
  C64      1.0000 0.31350  0.95960  0.62600  Biso   1.000  C
  C65      1.0000 0.04040  0.68650  0.37400  Biso   1.000  C
  C66      1.0000 0.45960  0.81350  0.37400  Biso   1.000  C
  C67      1.0000 0.81350  0.04040  0.37400  Biso   1.000  C
  C68      1.0000 0.68650  0.45960  0.37400  Biso   1.000  C
  C69      1.0000 0.45960  0.68650  0.37400  Biso   1.000  C
  C70      1.0000 0.81350  0.45960  0.37400  Biso   1.000  C
  C71      1.0000 0.04040  0.81350  0.37400  Biso   1.000  C
  C72      1.0000 0.68650  0.04040  0.37400  Biso   1.000  C
  C73      1.0000 0.95960  0.31350  0.62600  Biso   1.000  C
  C74      1.0000 0.54040  0.18650  0.62600  Biso   1.000  C
  C75      1.0000 0.18650  0.95960  0.62600  Biso   1.000  C
  C76      1.0000 0.31350  0.54040  0.62600  Biso   1.000  C
  C77      1.0000 0.51910  0.38410  0.58030  Biso   1.000  C
  C78      1.0000 0.11590  0.51910  0.58030  Biso   1.000  C
  C79      1.0000 0.98090  0.11590  0.58030  Biso   1.000  C
  C80      1.0000 0.38410  0.98090  0.58030  Biso   1.000  C
  C81      1.0000 0.01910  0.61590  0.41970  Biso   1.000  C
  C82      1.0000 0.48090  0.88410  0.41970  Biso   1.000  C
  C83      1.0000 0.88410  0.01910  0.41970  Biso   1.000  C
  C84      1.0000 0.61590  0.48090  0.41970  Biso   1.000  C
  C85      1.0000 0.48090  0.61590  0.41970  Biso   1.000  C
  C86      1.0000 0.88410  0.48090  0.41970  Biso   1.000  C
  C87      1.0000 0.01910  0.88410  0.41970  Biso   1.000  C
  C88      1.0000 0.61590  0.01910  0.41970  Biso   1.000  C
  C89      1.0000 0.98090  0.38410  0.58030  Biso   1.000  C
  C90      1.0000 0.51910  0.11590  0.58030  Biso   1.000  C
  C91      1.0000 0.11590  0.98090  0.58030  Biso   1.000  C
  C92      1.0000 0.38410  0.51910  0.58030  Biso   1.000  C
  C93      1.0000 0.51590  0.25000  0.58820  Biso   1.000  C
  C94      1.0000 0.25000  0.51590  0.58820  Biso   1.000  C
  C95      1.0000 0.98410  0.25000  0.58820  Biso   1.000  C
  C96      1.0000 0.25000  0.98410  0.58820  Biso   1.000  C
  C97      1.0000 0.01590  0.75000  0.41180  Biso   1.000  C
  C98      1.0000 0.48410  0.75000  0.41180  Biso   1.000  C
  C99      1.0000 0.75000  0.01590  0.41180  Biso   1.000  C
  C100     1.0000 0.75000  0.48410  0.41180  Biso   1.000  C
  H25      1.0000 0.48270  0.25000  0.53700  Biso   1.000  H
  H26      1.0000 0.25000  0.48270  0.53700  Biso   1.000  H
  H27      1.0000 0.01730  0.25000  0.53700  Biso   1.000  H
  H28      1.0000 0.25000  0.01730  0.53700  Biso   1.000  H
  H29      1.0000 0.98270  0.75000  0.46300  Biso   1.000  H
  H30      1.0000 0.51730  0.75000  0.46300  Biso   1.000  H
  H31      1.0000 0.75000  0.98270  0.46300  Biso   1.000  H
  H32      1.0000 0.75000  0.51730  0.46300  Biso   1.000  H
  H33      1.0000 0.78890  0.22180  0.60270  Biso   1.000  H
  H34      1.0000 0.27820  0.78890  0.60270  Biso   1.000  H
  H35      1.0000 0.71110  0.27820  0.60270  Biso   1.000  H
  H36      1.0000 0.22180  0.71110  0.60270  Biso   1.000  H
  H37      1.0000 0.28890  0.77820  0.39730  Biso   1.000  H
  H38      1.0000 0.21110  0.72180  0.39730  Biso   1.000  H
  H39      1.0000 0.72180  0.28890  0.39730  Biso   1.000  H
  H40      1.0000 0.77820  0.21110  0.39730  Biso   1.000  H
  H41      1.0000 0.21110  0.77820  0.39730  Biso   1.000  H
  H42      1.0000 0.72180  0.21110  0.39730  Biso   1.000  H
  H43      1.0000 0.28890  0.72180  0.39730  Biso   1.000  H
  H44      1.0000 0.77820  0.28890  0.39730  Biso   1.000  H
  H45      1.0000 0.71110  0.22180  0.60270  Biso   1.000  H
  H46      1.0000 0.78890  0.27820  0.60270  Biso   1.000  H
  H47      1.0000 0.27820  0.71110  0.60270  Biso   1.000  H
  H48      1.0000 0.22180  0.78890  0.60270  Biso   1.000  H
  H49      1.0000 0.70620  0.23040  0.60270  Biso   1.000  H
  H50      1.0000 0.26960  0.70620  0.60270  Biso   1.000  H
  H51      1.0000 0.79380  0.26960  0.60270  Biso   1.000  H
  H52      1.0000 0.23040  0.79380  0.60270  Biso   1.000  H
  H53      1.0000 0.20620  0.76960  0.39730  Biso   1.000  H
  H54      1.0000 0.29380  0.73040  0.39730  Biso   1.000  H
  H55      1.0000 0.73040  0.20620  0.39730  Biso   1.000  H
  H56      1.0000 0.76960  0.29380  0.39730  Biso   1.000  H
  H57      1.0000 0.29380  0.76960  0.39730  Biso   1.000  H
  H58      1.0000 0.73040  0.29380  0.39730  Biso   1.000  H
  H59      1.0000 0.20620  0.73040  0.39730  Biso   1.000  H
  H60      1.0000 0.76960  0.20620  0.39730  Biso   1.000  H
  H61      1.0000 0.79380  0.23040  0.60270  Biso   1.000  H
  H62      1.0000 0.70620  0.26960  0.60270  Biso   1.000  H
  H63      1.0000 0.26960  0.79380  0.60270  Biso   1.000  H
  H64      1.0000 0.23040  0.70620  0.60270  Biso   1.000  H
  H65      1.0000 0.62200  0.27480  0.01190  Biso   1.000  H
  H66      1.0000 0.22520  0.62200  0.01190  Biso   1.000  H
  H67      1.0000 0.87800  0.22520  0.01190  Biso   1.000  H
  H68      1.0000 0.27480  0.87800  0.01190  Biso   1.000  H
  H69      1.0000 0.12200  0.72520  0.98810  Biso   1.000  H
  H70      1.0000 0.37800  0.77480  0.98810  Biso   1.000  H
  H71      1.0000 0.77480  0.12200  0.98810  Biso   1.000  H
  H72      1.0000 0.72520  0.37800  0.98810  Biso   1.000  H
  H73      1.0000 0.37800  0.72520  0.98810  Biso   1.000  H
  H74      1.0000 0.77480  0.37800  0.98810  Biso   1.000  H
  H75      1.0000 0.12200  0.77480  0.98810  Biso   1.000  H
  H76      1.0000 0.72520  0.12200  0.98810  Biso   1.000  H
  H77      1.0000 0.87800  0.27480  0.01190  Biso   1.000  H
  H78      1.0000 0.62200  0.22520  0.01190  Biso   1.000  H
  H79      1.0000 0.22520  0.87800  0.01190  Biso   1.000  H
  H80      1.0000 0.27480  0.62200  0.01190  Biso   1.000  H
  H81      1.0000 0.60200  0.20200  0.96290  Biso   1.000  H
  H82      1.0000 0.29800  0.60200  0.96290  Biso   1.000  H
  H83      1.0000 0.89800  0.29800  0.96290  Biso   1.000  H
  H84      1.0000 0.20200  0.89800  0.96290  Biso   1.000  H
  H85      1.0000 0.10200  0.79800  0.03710  Biso   1.000  H
  H86      1.0000 0.39800  0.70200  0.03710  Biso   1.000  H
  H87      1.0000 0.70200  0.10200  0.03710  Biso   1.000  H
  H88      1.0000 0.79800  0.39800  0.03710  Biso   1.000  H
  H89      1.0000 0.39800  0.79800  0.03710  Biso   1.000  H
  H90      1.0000 0.70200  0.39800  0.03710  Biso   1.000  H
  H91      1.0000 0.10200  0.70200  0.03710  Biso   1.000  H
  H92      1.0000 0.79800  0.10200  0.03710  Biso   1.000  H
  H93      1.0000 0.89800  0.20200  0.96290  Biso   1.000  H
  H94      1.0000 0.60200  0.29800  0.96290  Biso   1.000  H
  H95      1.0000 0.29800  0.89800  0.96290  Biso   1.000  H
  H96      1.0000 0.20200  0.60200  0.96290  Biso   1.000  H
  H97      1.0000 0.58060  0.27320  0.91070  Biso   1.000  H
  H98      1.0000 0.22680  0.58060  0.91070  Biso   1.000  H
  H99      1.0000 0.91940  0.22680  0.91070  Biso   1.000  H
  H100     1.0000 0.27320  0.91940  0.91070  Biso   1.000  H
  H101     1.0000 0.08060  0.72680  0.08930  Biso   1.000  H
  H102     1.0000 0.41940  0.77320  0.08930  Biso   1.000  H
  H103     1.0000 0.77320  0.08060  0.08930  Biso   1.000  H
  H104     1.0000 0.72680  0.41940  0.08930  Biso   1.000  H
  H105     1.0000 0.41940  0.72680  0.08930  Biso   1.000  H
  H106     1.0000 0.77320  0.41940  0.08930  Biso   1.000  H
  H107     1.0000 0.08060  0.77320  0.08930  Biso   1.000  H
  H108     1.0000 0.72680  0.08060  0.08930  Biso   1.000  H
  H109     1.0000 0.91940  0.27320  0.91070  Biso   1.000  H
  H110     1.0000 0.58060  0.22680  0.91070  Biso   1.000  H
  H111     1.0000 0.22680  0.91940  0.91070  Biso   1.000  H
  H112     1.0000 0.27320  0.58060  0.91070  Biso   1.000  H
