data_image0
_cell_length_a       18.917
_cell_length_b       18.917
_cell_length_c       13.5692
_cell_angle_alpha    90
_cell_angle_beta     90
_cell_angle_gamma    90

_symmetry_space_group_name_H-M    "P 1"
_symmetry_int_tables_number       1

loop_
  _symmetry_equiv_pos_as_xyz
  'x, y, z'

loop_
  _atom_site_label
  _atom_site_occupancy
  _atom_site_fract_x
  _atom_site_fract_y
  _atom_site_fract_z
  _atom_site_thermal_displace_type
  _atom_site_B_iso_or_equiv
  _atom_site_type_symbol
  Cu1      1.0000 0.53370  0.53370  0.42791  Biso   1.000  Cu
  Cu2      1.0000 0.96630  0.53370  0.42791  Biso   1.000  Cu
  Cu3      1.0000 0.96630  0.96630  0.42791  Biso   1.000  Cu
  Cu4      1.0000 0.53370  0.96630  0.42791  Biso   1.000  Cu
  Cu5      1.0000 0.03370  0.46630  0.57209  Biso   1.000  Cu
  Cu6      1.0000 0.46630  0.03370  0.57209  Biso   1.000  Cu
  Cu7      1.0000 0.03370  0.03370  0.57209  Biso   1.000  Cu
  Cu8      1.0000 0.46630  0.46630  0.57209  Biso   1.000  Cu
  O1       1.0000 0.54160  0.43790  0.37630  Biso   1.000  O
  O2       1.0000 0.06210  0.54160  0.37630  Biso   1.000  O
  O3       1.0000 0.95840  0.06210  0.37630  Biso   1.000  O
  O4       1.0000 0.43790  0.95840  0.37630  Biso   1.000  O
  O5       1.0000 0.04160  0.56210  0.62370  Biso   1.000  O
  O6       1.0000 0.45840  0.93790  0.62370  Biso   1.000  O
  O7       1.0000 0.93790  0.04160  0.62370  Biso   1.000  O
  O8       1.0000 0.56210  0.45840  0.62370  Biso   1.000  O
  O9       1.0000 0.45840  0.56210  0.62370  Biso   1.000  O
  O10      1.0000 0.93790  0.45840  0.62370  Biso   1.000  O
  O11      1.0000 0.04160  0.93790  0.62370  Biso   1.000  O
  O12      1.0000 0.56210  0.04160  0.62370  Biso   1.000  O
  O13      1.0000 0.95840  0.43790  0.37630  Biso   1.000  O
  O14      1.0000 0.54160  0.06210  0.37630  Biso   1.000  O
  O15      1.0000 0.06210  0.95840  0.37630  Biso   1.000  O
  O16      1.0000 0.43790  0.54160  0.37630  Biso   1.000  O
  O17      1.0000 0.48240  0.38010  0.49620  Biso   1.000  O
  O18      1.0000 0.11990  0.48240  0.49620  Biso   1.000  O
  O19      1.0000 0.01760  0.11990  0.49620  Biso   1.000  O
  O20      1.0000 0.38010  0.01760  0.49620  Biso   1.000  O
  O21      1.0000 0.98240  0.61990  0.50380  Biso   1.000  O
  O22      1.0000 0.51760  0.88010  0.50380  Biso   1.000  O
  O23      1.0000 0.88010  0.98240  0.50380  Biso   1.000  O
  O24      1.0000 0.61990  0.51760  0.50380  Biso   1.000  O
  O25      1.0000 0.51760  0.61990  0.50380  Biso   1.000  O
  O26      1.0000 0.88010  0.51760  0.50380  Biso   1.000  O
  O27      1.0000 0.98240  0.88010  0.50380  Biso   1.000  O
  O28      1.0000 0.61990  0.98240  0.50380  Biso   1.000  O
  O29      1.0000 0.01760  0.38010  0.49620  Biso   1.000  O
  O30      1.0000 0.48240  0.11990  0.49620  Biso   1.000  O
  O31      1.0000 0.11990  0.01760  0.49620  Biso   1.000  O
  O32      1.0000 0.38010  0.48240  0.49620  Biso   1.000  O
  C1       1.0000 0.68560  0.25000  0.10490  Biso   1.000  C
  C2       1.0000 0.25000  0.68560  0.10490  Biso   1.000  C
  C3       1.0000 0.81440  0.25000  0.10490  Biso   1.000  C
  C4       1.0000 0.25000  0.81440  0.10490  Biso   1.000  C
  C5       1.0000 0.18560  0.75000  0.89510  Biso   1.000  C
  C6       1.0000 0.31440  0.75000  0.89510  Biso   1.000  C
  C7       1.0000 0.75000  0.18560  0.89510  Biso   1.000  C
  C8       1.0000 0.75000  0.31440  0.89510  Biso   1.000  C
  C9       1.0000 0.75000  0.25000  0.37250  Biso   1.000  C
  C10      1.0000 0.25000  0.75000  0.37250  Biso   1.000  C
  C11      1.0000 0.25000  0.75000  0.62750  Biso   1.000  C
  C12      1.0000 0.75000  0.25000  0.62750  Biso   1.000  C
  C13      1.0000 0.68690  0.25000  0.20870  Biso   1.000  C
  C14      1.0000 0.25000  0.68690  0.20870  Biso   1.000  C
  C15      1.0000 0.81310  0.25000  0.20870  Biso   1.000  C
  C16      1.0000 0.25000  0.81310  0.20870  Biso   1.000  C
  C17      1.0000 0.18690  0.75000  0.79130  Biso   1.000  C
  C18      1.0000 0.31310  0.75000  0.79130  Biso   1.000  C
  C19      1.0000 0.75000  0.18690  0.79130  Biso   1.000  C
  C20      1.0000 0.75000  0.31310  0.79130  Biso   1.000  C
  C21      1.0000 0.75000  0.25000  0.05550  Biso   1.000  C
  C22      1.0000 0.25000  0.75000  0.05550  Biso   1.000  C
  C23      1.0000 0.25000  0.75000  0.94450  Biso   1.000  C
  C24      1.0000 0.75000  0.25000  0.94450  Biso   1.000  C
  C25      1.0000 0.51870  0.38270  0.41900  Biso   1.000  C
  C26      1.0000 0.11730  0.51870  0.41900  Biso   1.000  C
  C27      1.0000 0.98130  0.11730  0.41900  Biso   1.000  C
  C28      1.0000 0.38270  0.98130  0.41900  Biso   1.000  C
  C29      1.0000 0.01870  0.61730  0.58100  Biso   1.000  C
  C30      1.0000 0.48130  0.88270  0.58100  Biso   1.000  C
  C31      1.0000 0.88270  0.01870  0.58100  Biso   1.000  C
  C32      1.0000 0.61730  0.48130  0.58100  Biso   1.000  C
  C33      1.0000 0.48130  0.61730  0.58100  Biso   1.000  C
  C34      1.0000 0.88270  0.48130  0.58100  Biso   1.000  C
  C35      1.0000 0.01870  0.88270  0.58100  Biso   1.000  C
  C36      1.0000 0.61730  0.01870  0.58100  Biso   1.000  C
  C37      1.0000 0.98130  0.38270  0.41900  Biso   1.000  C
  C38      1.0000 0.51870  0.11730  0.41900  Biso   1.000  C
  C39      1.0000 0.11730  0.98130  0.41900  Biso   1.000  C
  C40      1.0000 0.38270  0.51870  0.41900  Biso   1.000  C
  C41      1.0000 0.61960  0.25000  0.26760  Biso   1.000  C
  C42      1.0000 0.25000  0.61960  0.26760  Biso   1.000  C
  C43      1.0000 0.88040  0.25000  0.26760  Biso   1.000  C
  C44      1.0000 0.25000  0.88040  0.26760  Biso   1.000  C
  C45      1.0000 0.11960  0.75000  0.73240  Biso   1.000  C
  C46      1.0000 0.38040  0.75000  0.73240  Biso   1.000  C
  C47      1.0000 0.75000  0.11960  0.73240  Biso   1.000  C
  C48      1.0000 0.75000  0.38040  0.73240  Biso   1.000  C
  C49      1.0000 0.61610  0.25000  0.05020  Biso   1.000  C
  C50      1.0000 0.25000  0.61610  0.05020  Biso   1.000  C
  C51      1.0000 0.88390  0.25000  0.05020  Biso   1.000  C
  C52      1.0000 0.25000  0.88390  0.05020  Biso   1.000  C
  C53      1.0000 0.11610  0.75000  0.94980  Biso   1.000  C
  C54      1.0000 0.38390  0.75000  0.94980  Biso   1.000  C
  C55      1.0000 0.75000  0.11610  0.94980  Biso   1.000  C
  C56      1.0000 0.75000  0.38390  0.94980  Biso   1.000  C
  C57      1.0000 0.53940  0.31360  0.37420  Biso   1.000  C
  C58      1.0000 0.18640  0.53940  0.37420  Biso   1.000  C
  C59      1.0000 0.96060  0.18640  0.37420  Biso   1.000  C
  C60      1.0000 0.31360  0.96060  0.37420  Biso   1.000  C
  C61      1.0000 0.03940  0.68640  0.62580  Biso   1.000  C
  C62      1.0000 0.46060  0.81360  0.62580  Biso   1.000  C
  C63      1.0000 0.81360  0.03940  0.62580  Biso   1.000  C
  C64      1.0000 0.68640  0.46060  0.62580  Biso   1.000  C
  C65      1.0000 0.46060  0.68640  0.62580  Biso   1.000  C
  C66      1.0000 0.81360  0.46060  0.62580  Biso   1.000  C
  C67      1.0000 0.03940  0.81360  0.62580  Biso   1.000  C
  C68      1.0000 0.68640  0.03940  0.62580  Biso   1.000  C
  C69      1.0000 0.96060  0.31360  0.37420  Biso   1.000  C
  C70      1.0000 0.53940  0.18640  0.37420  Biso   1.000  C
  C71      1.0000 0.18640  0.96060  0.37420  Biso   1.000  C
  C72      1.0000 0.31360  0.53940  0.37420  Biso   1.000  C
  C73      1.0000 0.59270  0.31300  0.30160  Biso   1.000  C
  C74      1.0000 0.18700  0.59270  0.30160  Biso   1.000  C
  C75      1.0000 0.90730  0.18700  0.30160  Biso   1.000  C
  C76      1.0000 0.31300  0.90730  0.30160  Biso   1.000  C
  C77      1.0000 0.09270  0.68700  0.69840  Biso   1.000  C
  C78      1.0000 0.40730  0.81300  0.69840  Biso   1.000  C
  C79      1.0000 0.81300  0.09270  0.69840  Biso   1.000  C
  C80      1.0000 0.68700  0.40730  0.69840  Biso   1.000  C
  C81      1.0000 0.40730  0.68700  0.69840  Biso   1.000  C
  C82      1.0000 0.81300  0.40730  0.69840  Biso   1.000  C
  C83      1.0000 0.09270  0.81300  0.69840  Biso   1.000  C
  C84      1.0000 0.68700  0.09270  0.69840  Biso   1.000  C
  C85      1.0000 0.90730  0.31300  0.30160  Biso   1.000  C
  C86      1.0000 0.59270  0.18700  0.30160  Biso   1.000  C
  C87      1.0000 0.18700  0.90730  0.30160  Biso   1.000  C
  C88      1.0000 0.31300  0.59270  0.30160  Biso   1.000  C
  H1       1.0000 0.60980  0.35540  0.27660  Biso   1.000  H
  H2       1.0000 0.14460  0.60980  0.27660  Biso   1.000  H
  H3       1.0000 0.89020  0.14460  0.27660  Biso   1.000  H
  H4       1.0000 0.35540  0.89020  0.27660  Biso   1.000  H
  H5       1.0000 0.10980  0.64460  0.72340  Biso   1.000  H
  H6       1.0000 0.39020  0.85540  0.72340  Biso   1.000  H
  H7       1.0000 0.85540  0.10980  0.72340  Biso   1.000  H
  H8       1.0000 0.64460  0.39020  0.72340  Biso   1.000  H
  H9       1.0000 0.39020  0.64460  0.72340  Biso   1.000  H
  H10      1.0000 0.85540  0.39020  0.72340  Biso   1.000  H
  H11      1.0000 0.10980  0.85540  0.72340  Biso   1.000  H
  H12      1.0000 0.64460  0.10980  0.72340  Biso   1.000  H
  H13      1.0000 0.89020  0.35540  0.27660  Biso   1.000  H
  H14      1.0000 0.60980  0.14460  0.27660  Biso   1.000  H
  H15      1.0000 0.14460  0.89020  0.27660  Biso   1.000  H
  H16      1.0000 0.35540  0.60980  0.27660  Biso   1.000  H
  C89      1.0000 0.75000  0.25000  0.25940  Biso   1.000  C
  C90      1.0000 0.25000  0.75000  0.25940  Biso   1.000  C
  C91      1.0000 0.25000  0.75000  0.74060  Biso   1.000  C
  C92      1.0000 0.75000  0.25000  0.74060  Biso   1.000  C
  C93      1.0000 0.51520  0.25000  0.41170  Biso   1.000  C
  C94      1.0000 0.25000  0.51520  0.41170  Biso   1.000  C
  C95      1.0000 0.98480  0.25000  0.41170  Biso   1.000  C
  C96      1.0000 0.25000  0.98480  0.41170  Biso   1.000  C
  C97      1.0000 0.01520  0.75000  0.58830  Biso   1.000  C
  C98      1.0000 0.48480  0.75000  0.58830  Biso   1.000  C
  C99      1.0000 0.75000  0.01520  0.58830  Biso   1.000  C
  C100     1.0000 0.75000  0.48480  0.58830  Biso   1.000  C
  H17      1.0000 0.48230  0.25000  0.46270  Biso   1.000  H
  H18      1.0000 0.25000  0.48230  0.46270  Biso   1.000  H
  H19      1.0000 0.01770  0.25000  0.46270  Biso   1.000  H
  H20      1.0000 0.25000  0.01770  0.46270  Biso   1.000  H
  H21      1.0000 0.98230  0.75000  0.53730  Biso   1.000  H
  H22      1.0000 0.51770  0.75000  0.53730  Biso   1.000  H
  H23      1.0000 0.75000  0.98230  0.53730  Biso   1.000  H
  H24      1.0000 0.75000  0.51770  0.53730  Biso   1.000  H
  O33      1.0000 0.58560  0.58560  0.30710  Biso   1.000  O
  O34      1.0000 0.91440  0.58560  0.30710  Biso   1.000  O
  O35      1.0000 0.91440  0.91440  0.30710  Biso   1.000  O
  O36      1.0000 0.58560  0.91440  0.30710  Biso   1.000  O
  O37      1.0000 0.08560  0.41440  0.69290  Biso   1.000  O
  O38      1.0000 0.41440  0.08560  0.69290  Biso   1.000  O
  O39      1.0000 0.08560  0.08560  0.69290  Biso   1.000  O
  O40      1.0000 0.41440  0.41440  0.69290  Biso   1.000  O
  O41      1.0000 0.39700  0.39700  0.13200  Biso   1.000  O
  O42      1.0000 0.10300  0.39700  0.13200  Biso   1.000  O
  O43      1.0000 0.10300  0.10300  0.13200  Biso   1.000  O
  O44      1.0000 0.39700  0.10300  0.13200  Biso   1.000  O
  O45      1.0000 0.89700  0.60300  0.86800  Biso   1.000  O
  O46      1.0000 0.60300  0.89700  0.86800  Biso   1.000  O
  O47      1.0000 0.89700  0.89700  0.86800  Biso   1.000  O
  O48      1.0000 0.60300  0.60300  0.86800  Biso   1.000  O
  O49      1.0000 0.75000  0.48550  0.21730  Biso   1.000  O
  O50      1.0000 0.01450  0.75000  0.21730  Biso   1.000  O
  O51      1.0000 0.75000  0.01450  0.21730  Biso   1.000  O
  O52      1.0000 0.48550  0.75000  0.21730  Biso   1.000  O
  O53      1.0000 0.25000  0.51450  0.78270  Biso   1.000  O
  O54      1.0000 0.25000  0.98550  0.78270  Biso   1.000  O
  O55      1.0000 0.98550  0.25000  0.78270  Biso   1.000  O
  O56      1.0000 0.51450  0.25000  0.78270  Biso   1.000  O
  O57      1.0000 0.46580  0.75000  0.32700  Biso   1.000  O
  O58      1.0000 0.75000  0.46580  0.32700  Biso   1.000  O
  O59      1.0000 0.03420  0.75000  0.32700  Biso   1.000  O
  O60      1.0000 0.75000  0.03420  0.32700  Biso   1.000  O
  O61      1.0000 0.96580  0.25000  0.67300  Biso   1.000  O
  O62      1.0000 0.53420  0.25000  0.67300  Biso   1.000  O
  O63      1.0000 0.25000  0.96580  0.67300  Biso   1.000  O
  O64      1.0000 0.25000  0.53420  0.67300  Biso   1.000  O
  O65      1.0000 0.68500  0.49800  0.18600  Biso   1.000  O
  O66      1.0000 0.00200  0.68500  0.18600  Biso   1.000  O
  O67      1.0000 0.81500  0.00200  0.18600  Biso   1.000  O
  O68      1.0000 0.49800  0.81500  0.18600  Biso   1.000  O
  O69      1.0000 0.18500  0.50200  0.81400  Biso   1.000  O
  O70      1.0000 0.31500  0.99800  0.81400  Biso   1.000  O
  O71      1.0000 0.99800  0.18500  0.81400  Biso   1.000  O
  O72      1.0000 0.50200  0.31500  0.81400  Biso   1.000  O
  O73      1.0000 0.31500  0.50200  0.81400  Biso   1.000  O
  O74      1.0000 0.99800  0.31500  0.81400  Biso   1.000  O
  O75      1.0000 0.18500  0.99800  0.81400  Biso   1.000  O
  O76      1.0000 0.50200  0.18500  0.81400  Biso   1.000  O
  O77      1.0000 0.81500  0.49800  0.18600  Biso   1.000  O
  O78      1.0000 0.68500  0.00200  0.18600  Biso   1.000  O
  O79      1.0000 0.00200  0.81500  0.18600  Biso   1.000  O
  O80      1.0000 0.49800  0.68500  0.18600  Biso   1.000  O
  H25      1.0000 0.79780  0.25000  0.39600  Biso   1.000  H
  H26      1.0000 0.25000  0.79780  0.39600  Biso   1.000  H
  H27      1.0000 0.70220  0.25000  0.39600  Biso   1.000  H
  H28      1.0000 0.25000  0.70220  0.39600  Biso   1.000  H
  H29      1.0000 0.29780  0.75000  0.60400  Biso   1.000  H
  H30      1.0000 0.20220  0.75000  0.60400  Biso   1.000  H
  H31      1.0000 0.75000  0.29780  0.60400  Biso   1.000  H
  H32      1.0000 0.75000  0.20220  0.60400  Biso   1.000  H
  H33      1.0000 0.60210  0.29780  0.03680  Biso   1.000  H
  H34      1.0000 0.20220  0.60210  0.03680  Biso   1.000  H
  H35      1.0000 0.89790  0.20220  0.03680  Biso   1.000  H
  H36      1.0000 0.29780  0.89790  0.03680  Biso   1.000  H
  H37      1.0000 0.10210  0.70220  0.96320  Biso   1.000  H
  H38      1.0000 0.39790  0.79780  0.96320  Biso   1.000  H
  H39      1.0000 0.79780  0.10210  0.96320  Biso   1.000  H
  H40      1.0000 0.70220  0.39790  0.96320  Biso   1.000  H
  H41      1.0000 0.39790  0.70220  0.96320  Biso   1.000  H
  H42      1.0000 0.79780  0.39790  0.96320  Biso   1.000  H
  H43      1.0000 0.10210  0.79780  0.96320  Biso   1.000  H
  H44      1.0000 0.70220  0.10210  0.96320  Biso   1.000  H
  H45      1.0000 0.89790  0.29780  0.03680  Biso   1.000  H
  H46      1.0000 0.60210  0.20220  0.03680  Biso   1.000  H
  H47      1.0000 0.20220  0.89790  0.03680  Biso   1.000  H
  H48      1.0000 0.29780  0.60210  0.03680  Biso   1.000  H
  H49      1.0000 0.62140  0.22480  0.98920  Biso   1.000  H
  H50      1.0000 0.27520  0.62140  0.98920  Biso   1.000  H
  H51      1.0000 0.87860  0.27520  0.98920  Biso   1.000  H
  H52      1.0000 0.22480  0.87860  0.98920  Biso   1.000  H
  H53      1.0000 0.12140  0.77520  0.01080  Biso   1.000  H
  H54      1.0000 0.37860  0.72480  0.01080  Biso   1.000  H
  H55      1.0000 0.72480  0.12140  0.01080  Biso   1.000  H
  H56      1.0000 0.77520  0.37860  0.01080  Biso   1.000  H
  H57      1.0000 0.37860  0.77520  0.01080  Biso   1.000  H
  H58      1.0000 0.72480  0.37860  0.01080  Biso   1.000  H
  H59      1.0000 0.12140  0.72480  0.01080  Biso   1.000  H
  H60      1.0000 0.77520  0.12140  0.01080  Biso   1.000  H
  H61      1.0000 0.87860  0.22480  0.98920  Biso   1.000  H
  H62      1.0000 0.62140  0.27520  0.98920  Biso   1.000  H
  H63      1.0000 0.27520  0.87860  0.98920  Biso   1.000  H
  H64      1.0000 0.22480  0.62140  0.98920  Biso   1.000  H
  H65      1.0000 0.58060  0.22740  0.08970  Biso   1.000  H
  H66      1.0000 0.27260  0.58060  0.08970  Biso   1.000  H
  H67      1.0000 0.91940  0.27260  0.08970  Biso   1.000  H
  H68      1.0000 0.22740  0.91940  0.08970  Biso   1.000  H
  H69      1.0000 0.08060  0.77260  0.91030  Biso   1.000  H
  H70      1.0000 0.41940  0.72740  0.91030  Biso   1.000  H
  H71      1.0000 0.72740  0.08060  0.91030  Biso   1.000  H
  H72      1.0000 0.77260  0.41940  0.91030  Biso   1.000  H
  H73      1.0000 0.41940  0.77260  0.91030  Biso   1.000  H
  H74      1.0000 0.72740  0.41940  0.91030  Biso   1.000  H
  H75      1.0000 0.08060  0.72740  0.91030  Biso   1.000  H
  H76      1.0000 0.77260  0.08060  0.91030  Biso   1.000  H
  H77      1.0000 0.91940  0.22740  0.08970  Biso   1.000  H
  H78      1.0000 0.58060  0.27260  0.08970  Biso   1.000  H
  H79      1.0000 0.27260  0.91940  0.08970  Biso   1.000  H
  H80      1.0000 0.22740  0.58060  0.08970  Biso   1.000  H
  H81      1.0000 0.72610  0.29140  0.39600  Biso   1.000  H
  H82      1.0000 0.20860  0.72610  0.39600  Biso   1.000  H
  H83      1.0000 0.77390  0.20860  0.39600  Biso   1.000  H
  H84      1.0000 0.29140  0.77390  0.39600  Biso   1.000  H
  H85      1.0000 0.22610  0.70860  0.60400  Biso   1.000  H
  H86      1.0000 0.27390  0.79140  0.60400  Biso   1.000  H
  H87      1.0000 0.79140  0.22610  0.60400  Biso   1.000  H
  H88      1.0000 0.70860  0.27390  0.60400  Biso   1.000  H
  H89      1.0000 0.27390  0.70860  0.60400  Biso   1.000  H
  H90      1.0000 0.79140  0.27390  0.60400  Biso   1.000  H
  H91      1.0000 0.22610  0.79140  0.60400  Biso   1.000  H
  H92      1.0000 0.70860  0.22610  0.60400  Biso   1.000  H
  H93      1.0000 0.77390  0.29140  0.39600  Biso   1.000  H
  H94      1.0000 0.72610  0.20860  0.39600  Biso   1.000  H
  H95      1.0000 0.20860  0.77390  0.39600  Biso   1.000  H
  H96      1.0000 0.29140  0.72610  0.39600  Biso   1.000  H
