data_image0
_cell_length_a       18.9911
_cell_length_b       18.9911
_cell_length_c       13.4276
_cell_angle_alpha    90
_cell_angle_beta     90
_cell_angle_gamma    90

_symmetry_space_group_name_H-M    "P 1"
_symmetry_int_tables_number       1

loop_
  _symmetry_equiv_pos_as_xyz
  'x, y, z'

loop_
  _atom_site_label
  _atom_site_occupancy
  _atom_site_fract_x
  _atom_site_fract_y
  _atom_site_fract_z
  _atom_site_thermal_displace_type
  _atom_site_B_iso_or_equiv
  _atom_site_type_symbol
  Cu1      1.0000 0.46725  0.46725  0.57279  Biso   1.000  Cu
  Cu2      1.0000 0.03275  0.46725  0.57279  Biso   1.000  Cu
  Cu3      1.0000 0.03275  0.03275  0.57279  Biso   1.000  Cu
  Cu4      1.0000 0.46725  0.03275  0.57279  Biso   1.000  Cu
  Cu5      1.0000 0.96725  0.53275  0.42721  Biso   1.000  Cu
  Cu6      1.0000 0.53275  0.96725  0.42721  Biso   1.000  Cu
  Cu7      1.0000 0.96725  0.96725  0.42721  Biso   1.000  Cu
  Cu8      1.0000 0.53275  0.53275  0.42721  Biso   1.000  Cu
  O1       1.0000 0.37980  0.48250  0.49840  Biso   1.000  O
  O2       1.0000 0.01750  0.37980  0.49840  Biso   1.000  O
  O3       1.0000 0.12020  0.01750  0.49840  Biso   1.000  O
  O4       1.0000 0.48250  0.12020  0.49840  Biso   1.000  O
  O5       1.0000 0.87980  0.51750  0.50160  Biso   1.000  O
  O6       1.0000 0.62020  0.98250  0.50160  Biso   1.000  O
  O7       1.0000 0.98250  0.87980  0.50160  Biso   1.000  O
  O8       1.0000 0.51750  0.62020  0.50160  Biso   1.000  O
  O9       1.0000 0.62020  0.51750  0.50160  Biso   1.000  O
  O10      1.0000 0.98250  0.62020  0.50160  Biso   1.000  O
  O11      1.0000 0.87980  0.98250  0.50160  Biso   1.000  O
  O12      1.0000 0.51750  0.87980  0.50160  Biso   1.000  O
  O13      1.0000 0.12020  0.48250  0.49840  Biso   1.000  O
  O14      1.0000 0.37980  0.01750  0.49840  Biso   1.000  O
  O15      1.0000 0.01750  0.12020  0.49840  Biso   1.000  O
  O16      1.0000 0.48250  0.37980  0.49840  Biso   1.000  O
  O17      1.0000 0.43660  0.53970  0.37710  Biso   1.000  O
  O18      1.0000 0.96030  0.43660  0.37710  Biso   1.000  O
  O19      1.0000 0.06340  0.96030  0.37710  Biso   1.000  O
  O20      1.0000 0.53970  0.06340  0.37710  Biso   1.000  O
  O21      1.0000 0.93660  0.46030  0.62290  Biso   1.000  O
  O22      1.0000 0.56340  0.03970  0.62290  Biso   1.000  O
  O23      1.0000 0.03970  0.93660  0.62290  Biso   1.000  O
  O24      1.0000 0.46030  0.56340  0.62290  Biso   1.000  O
  O25      1.0000 0.56340  0.46030  0.62290  Biso   1.000  O
  O26      1.0000 0.03970  0.56340  0.62290  Biso   1.000  O
  O27      1.0000 0.93660  0.03970  0.62290  Biso   1.000  O
  O28      1.0000 0.46030  0.93660  0.62290  Biso   1.000  O
  O29      1.0000 0.06340  0.53970  0.37710  Biso   1.000  O
  O30      1.0000 0.43660  0.96030  0.37710  Biso   1.000  O
  O31      1.0000 0.96030  0.06340  0.37710  Biso   1.000  O
  O32      1.0000 0.53970  0.43660  0.37710  Biso   1.000  O
  O33      1.0000 0.41660  0.41660  0.69860  Biso   1.000  O
  O34      1.0000 0.08340  0.41660  0.69860  Biso   1.000  O
  O35      1.0000 0.08340  0.08340  0.69860  Biso   1.000  O
  O36      1.0000 0.41660  0.08340  0.69860  Biso   1.000  O
  O37      1.0000 0.91660  0.58340  0.30140  Biso   1.000  O
  O38      1.0000 0.58340  0.91660  0.30140  Biso   1.000  O
  O39      1.0000 0.91660  0.91660  0.30140  Biso   1.000  O
  O40      1.0000 0.58340  0.58340  0.30140  Biso   1.000  O
  C1       1.0000 0.25000  0.68560  0.10630  Biso   1.000  C
  C2       1.0000 0.81440  0.25000  0.10630  Biso   1.000  C
  C3       1.0000 0.25000  0.81440  0.10630  Biso   1.000  C
  C4       1.0000 0.68560  0.25000  0.10630  Biso   1.000  C
  C5       1.0000 0.75000  0.31440  0.89370  Biso   1.000  C
  C6       1.0000 0.75000  0.18560  0.89370  Biso   1.000  C
  C7       1.0000 0.18560  0.75000  0.89370  Biso   1.000  C
  C8       1.0000 0.31440  0.75000  0.89370  Biso   1.000  C
  C9       1.0000 0.25000  0.68630  0.21060  Biso   1.000  C
  C10      1.0000 0.81370  0.25000  0.21060  Biso   1.000  C
  C11      1.0000 0.25000  0.81370  0.21060  Biso   1.000  C
  C12      1.0000 0.68630  0.25000  0.21060  Biso   1.000  C
  C13      1.0000 0.75000  0.31370  0.78940  Biso   1.000  C
  C14      1.0000 0.75000  0.18630  0.78940  Biso   1.000  C
  C15      1.0000 0.18630  0.75000  0.78940  Biso   1.000  C
  C16      1.0000 0.31370  0.75000  0.78940  Biso   1.000  C
  C17      1.0000 0.25000  0.75000  0.05350  Biso   1.000  C
  C18      1.0000 0.75000  0.25000  0.05350  Biso   1.000  C
  C19      1.0000 0.75000  0.25000  0.94650  Biso   1.000  C
  C20      1.0000 0.25000  0.75000  0.94650  Biso   1.000  C
  C21      1.0000 0.31290  0.59300  0.30340  Biso   1.000  C
  C22      1.0000 0.90700  0.31290  0.30340  Biso   1.000  C
  C23      1.0000 0.18710  0.90700  0.30340  Biso   1.000  C
  C24      1.0000 0.59300  0.18710  0.30340  Biso   1.000  C
  C25      1.0000 0.81290  0.40700  0.69660  Biso   1.000  C
  C26      1.0000 0.68710  0.09300  0.69660  Biso   1.000  C
  C27      1.0000 0.09300  0.81290  0.69660  Biso   1.000  C
  C28      1.0000 0.40700  0.68710  0.69660  Biso   1.000  C
  C29      1.0000 0.68710  0.40700  0.69660  Biso   1.000  C
  C30      1.0000 0.09300  0.68710  0.69660  Biso   1.000  C
  C31      1.0000 0.81290  0.09300  0.69660  Biso   1.000  C
  C32      1.0000 0.40700  0.81290  0.69660  Biso   1.000  C
  C33      1.0000 0.18710  0.59300  0.30340  Biso   1.000  C
  C34      1.0000 0.31290  0.90700  0.30340  Biso   1.000  C
  C35      1.0000 0.90700  0.18710  0.30340  Biso   1.000  C
  C36      1.0000 0.59300  0.31290  0.30340  Biso   1.000  C
  H1       1.0000 0.35620  0.61020  0.27770  Biso   1.000  H
  H2       1.0000 0.88980  0.35620  0.27770  Biso   1.000  H
  H3       1.0000 0.14380  0.88980  0.27770  Biso   1.000  H
  H4       1.0000 0.61020  0.14380  0.27770  Biso   1.000  H
  H5       1.0000 0.85620  0.38980  0.72230  Biso   1.000  H
  H6       1.0000 0.64380  0.11020  0.72230  Biso   1.000  H
  H7       1.0000 0.11020  0.85620  0.72230  Biso   1.000  H
  H8       1.0000 0.38980  0.64380  0.72230  Biso   1.000  H
  H9       1.0000 0.64380  0.38980  0.72230  Biso   1.000  H
  H10      1.0000 0.11020  0.64380  0.72230  Biso   1.000  H
  H11      1.0000 0.85620  0.11020  0.72230  Biso   1.000  H
  H12      1.0000 0.38980  0.85620  0.72230  Biso   1.000  H
  H13      1.0000 0.14380  0.61020  0.27770  Biso   1.000  H
  H14      1.0000 0.35620  0.88980  0.27770  Biso   1.000  H
  H15      1.0000 0.88980  0.14380  0.27770  Biso   1.000  H
  H16      1.0000 0.61020  0.35620  0.27770  Biso   1.000  H
  C37      1.0000 0.25000  0.51340  0.41230  Biso   1.000  C
  C38      1.0000 0.98660  0.25000  0.41230  Biso   1.000  C
  C39      1.0000 0.25000  0.98660  0.41230  Biso   1.000  C
  C40      1.0000 0.51340  0.25000  0.41230  Biso   1.000  C
  C41      1.0000 0.75000  0.48660  0.58770  Biso   1.000  C
  C42      1.0000 0.75000  0.01340  0.58770  Biso   1.000  C
  C43      1.0000 0.01340  0.75000  0.58770  Biso   1.000  C
  C44      1.0000 0.48660  0.75000  0.58770  Biso   1.000  C
  H17      1.0000 0.25000  0.47820  0.46250  Biso   1.000  H
  H18      1.0000 0.02180  0.25000  0.46250  Biso   1.000  H
  H19      1.0000 0.25000  0.02180  0.46250  Biso   1.000  H
  H20      1.0000 0.47820  0.25000  0.46250  Biso   1.000  H
  H21      1.0000 0.75000  0.52180  0.53750  Biso   1.000  H
  H22      1.0000 0.75000  0.97820  0.53750  Biso   1.000  H
  H23      1.0000 0.97820  0.75000  0.53750  Biso   1.000  H
  H24      1.0000 0.52180  0.75000  0.53750  Biso   1.000  H
  C45      1.0000 0.25000  0.62080  0.26980  Biso   1.000  C
  C46      1.0000 0.87920  0.25000  0.26980  Biso   1.000  C
  C47      1.0000 0.25000  0.87920  0.26980  Biso   1.000  C
  C48      1.0000 0.62080  0.25000  0.26980  Biso   1.000  C
  C49      1.0000 0.75000  0.37920  0.73020  Biso   1.000  C
  C50      1.0000 0.75000  0.12080  0.73020  Biso   1.000  C
  C51      1.0000 0.12080  0.75000  0.73020  Biso   1.000  C
  C52      1.0000 0.37920  0.75000  0.73020  Biso   1.000  C
  C53      1.0000 0.25000  0.75000  0.26180  Biso   1.000  C
  C54      1.0000 0.75000  0.25000  0.26180  Biso   1.000  C
  C55      1.0000 0.75000  0.25000  0.73820  Biso   1.000  C
  C56      1.0000 0.25000  0.75000  0.73820  Biso   1.000  C
  C57      1.0000 0.25000  0.75000  0.37580  Biso   1.000  C
  C58      1.0000 0.75000  0.25000  0.37580  Biso   1.000  C
  C59      1.0000 0.75000  0.25000  0.62420  Biso   1.000  C
  C60      1.0000 0.25000  0.75000  0.62420  Biso   1.000  C
  C61      1.0000 0.31320  0.53920  0.37550  Biso   1.000  C
  C62      1.0000 0.96080  0.31320  0.37550  Biso   1.000  C
  C63      1.0000 0.18680  0.96080  0.37550  Biso   1.000  C
  C64      1.0000 0.53920  0.18680  0.37550  Biso   1.000  C
  C65      1.0000 0.81320  0.46080  0.62450  Biso   1.000  C
  C66      1.0000 0.68680  0.03920  0.62450  Biso   1.000  C
  C67      1.0000 0.03920  0.81320  0.62450  Biso   1.000  C
  C68      1.0000 0.46080  0.68680  0.62450  Biso   1.000  C
  C69      1.0000 0.68680  0.46080  0.62450  Biso   1.000  C
  C70      1.0000 0.03920  0.68680  0.62450  Biso   1.000  C
  C71      1.0000 0.81320  0.03920  0.62450  Biso   1.000  C
  C72      1.0000 0.46080  0.81320  0.62450  Biso   1.000  C
  C73      1.0000 0.18680  0.53920  0.37550  Biso   1.000  C
  C74      1.0000 0.31320  0.96080  0.37550  Biso   1.000  C
  C75      1.0000 0.96080  0.18680  0.37550  Biso   1.000  C
  C76      1.0000 0.53920  0.31320  0.37550  Biso   1.000  C
  C77      1.0000 0.25000  0.61710  0.04850  Biso   1.000  C
  C78      1.0000 0.88290  0.25000  0.04850  Biso   1.000  C
  C79      1.0000 0.25000  0.88290  0.04850  Biso   1.000  C
  C80      1.0000 0.61710  0.25000  0.04850  Biso   1.000  C
  C81      1.0000 0.75000  0.38290  0.95150  Biso   1.000  C
  C82      1.0000 0.75000  0.11710  0.95150  Biso   1.000  C
  C83      1.0000 0.11710  0.75000  0.95150  Biso   1.000  C
  C84      1.0000 0.38290  0.75000  0.95150  Biso   1.000  C
  H25      1.0000 0.25000  0.62720  0.97700  Biso   1.000  H
  H26      1.0000 0.87280  0.25000  0.97700  Biso   1.000  H
  H27      1.0000 0.25000  0.87280  0.97700  Biso   1.000  H
  H28      1.0000 0.62720  0.25000  0.97700  Biso   1.000  H
  H29      1.0000 0.75000  0.37280  0.02300  Biso   1.000  H
  H30      1.0000 0.75000  0.12720  0.02300  Biso   1.000  H
  H31      1.0000 0.12720  0.75000  0.02300  Biso   1.000  H
  H32      1.0000 0.37280  0.75000  0.02300  Biso   1.000  H
  H33      1.0000 0.20790  0.58990  0.06560  Biso   1.000  H
  H34      1.0000 0.91010  0.20790  0.06560  Biso   1.000  H
  H35      1.0000 0.29210  0.91010  0.06560  Biso   1.000  H
  H36      1.0000 0.58990  0.29210  0.06560  Biso   1.000  H
  H37      1.0000 0.70790  0.41010  0.93440  Biso   1.000  H
  H38      1.0000 0.79210  0.08990  0.93440  Biso   1.000  H
  H39      1.0000 0.08990  0.70790  0.93440  Biso   1.000  H
  H40      1.0000 0.41010  0.79210  0.93440  Biso   1.000  H
  H41      1.0000 0.79210  0.41010  0.93440  Biso   1.000  H
  H42      1.0000 0.08990  0.79210  0.93440  Biso   1.000  H
  H43      1.0000 0.70790  0.08990  0.93440  Biso   1.000  H
  H44      1.0000 0.41010  0.70790  0.93440  Biso   1.000  H
  H45      1.0000 0.29210  0.58990  0.06560  Biso   1.000  H
  H46      1.0000 0.20790  0.91010  0.06560  Biso   1.000  H
  H47      1.0000 0.91010  0.29210  0.06560  Biso   1.000  H
  H48      1.0000 0.58990  0.20790  0.06560  Biso   1.000  H
  C85      1.0000 0.38250  0.51860  0.41940  Biso   1.000  C
  C86      1.0000 0.98140  0.38250  0.41940  Biso   1.000  C
  C87      1.0000 0.11750  0.98140  0.41940  Biso   1.000  C
  C88      1.0000 0.51860  0.11750  0.41940  Biso   1.000  C
  C89      1.0000 0.88250  0.48140  0.58060  Biso   1.000  C
  C90      1.0000 0.61750  0.01860  0.58060  Biso   1.000  C
  C91      1.0000 0.01860  0.88250  0.58060  Biso   1.000  C
  C92      1.0000 0.48140  0.61750  0.58060  Biso   1.000  C
  C93      1.0000 0.61750  0.48140  0.58060  Biso   1.000  C
  C94      1.0000 0.01860  0.61750  0.58060  Biso   1.000  C
  C95      1.0000 0.88250  0.01860  0.58060  Biso   1.000  C
  C96      1.0000 0.48140  0.88250  0.58060  Biso   1.000  C
  C97      1.0000 0.11750  0.51860  0.41940  Biso   1.000  C
  C98      1.0000 0.38250  0.98140  0.41940  Biso   1.000  C
  C99      1.0000 0.98140  0.11750  0.41940  Biso   1.000  C
  C100     1.0000 0.51860  0.38250  0.41940  Biso   1.000  C
  O41      1.0000 0.51330  0.35070  0.82390  Biso   1.000  O
  O42      1.0000 0.14930  0.51330  0.82390  Biso   1.000  O
  O43      1.0000 0.98670  0.14930  0.82390  Biso   1.000  O
  O44      1.0000 0.35070  0.98670  0.82390  Biso   1.000  O
  O45      1.0000 0.01330  0.64930  0.17610  Biso   1.000  O
  O46      1.0000 0.48670  0.85070  0.17610  Biso   1.000  O
  O47      1.0000 0.85070  0.01330  0.17610  Biso   1.000  O
  O48      1.0000 0.64930  0.48670  0.17610  Biso   1.000  O
  O49      1.0000 0.48670  0.64930  0.17610  Biso   1.000  O
  O50      1.0000 0.85070  0.48670  0.17610  Biso   1.000  O
  O51      1.0000 0.01330  0.85070  0.17610  Biso   1.000  O
  O52      1.0000 0.64930  0.01330  0.17610  Biso   1.000  O
  O53      1.0000 0.98670  0.35070  0.82390  Biso   1.000  O
  O54      1.0000 0.51330  0.14930  0.82390  Biso   1.000  O
  O55      1.0000 0.14930  0.98670  0.82390  Biso   1.000  O
  O56      1.0000 0.35070  0.51330  0.82390  Biso   1.000  O
  H49      1.0000 0.20790  0.77430  0.40020  Biso   1.000  H
  H50      1.0000 0.72570  0.20790  0.40020  Biso   1.000  H
  H51      1.0000 0.29210  0.72570  0.40020  Biso   1.000  H
  H52      1.0000 0.77430  0.29210  0.40020  Biso   1.000  H
  H53      1.0000 0.70790  0.22570  0.59980  Biso   1.000  H
  H54      1.0000 0.79210  0.27430  0.59980  Biso   1.000  H
  H55      1.0000 0.27430  0.70790  0.59980  Biso   1.000  H
  H56      1.0000 0.22570  0.79210  0.59980  Biso   1.000  H
  H57      1.0000 0.79210  0.22570  0.59980  Biso   1.000  H
  H58      1.0000 0.27430  0.79210  0.59980  Biso   1.000  H
  H59      1.0000 0.70790  0.27430  0.59980  Biso   1.000  H
  H60      1.0000 0.22570  0.70790  0.59980  Biso   1.000  H
  H61      1.0000 0.29210  0.77430  0.40020  Biso   1.000  H
  H62      1.0000 0.20790  0.72570  0.40020  Biso   1.000  H
  H63      1.0000 0.72570  0.29210  0.40020  Biso   1.000  H
  H64      1.0000 0.77430  0.20790  0.40020  Biso   1.000  H
  O57      1.0000 0.32310  0.32310  0.61600  Biso   1.000  O
  O58      1.0000 0.17690  0.32310  0.61600  Biso   1.000  O
  O59      1.0000 0.17690  0.17690  0.61600  Biso   1.000  O
  O60      1.0000 0.32310  0.17690  0.61600  Biso   1.000  O
  O61      1.0000 0.82310  0.67690  0.38400  Biso   1.000  O
  O62      1.0000 0.67690  0.82310  0.38400  Biso   1.000  O
  O63      1.0000 0.82310  0.82310  0.38400  Biso   1.000  O
  O64      1.0000 0.67690  0.67690  0.38400  Biso   1.000  O
  O65      1.0000 0.17460  0.32540  0.39830  Biso   1.000  O
  O66      1.0000 0.17460  0.17460  0.39830  Biso   1.000  O
  O67      1.0000 0.32540  0.17460  0.39830  Biso   1.000  O
  O68      1.0000 0.32540  0.32540  0.39830  Biso   1.000  O
  O69      1.0000 0.67460  0.67460  0.60170  Biso   1.000  O
  O70      1.0000 0.82540  0.82540  0.60170  Biso   1.000  O
  O71      1.0000 0.82540  0.67460  0.60170  Biso   1.000  O
  O72      1.0000 0.67460  0.82540  0.60170  Biso   1.000  O
  O73      1.0000 0.54900  0.25000  0.67100  Biso   1.000  O
  O74      1.0000 0.25000  0.54900  0.67100  Biso   1.000  O
  O75      1.0000 0.95100  0.25000  0.67100  Biso   1.000  O
  O76      1.0000 0.25000  0.95100  0.67100  Biso   1.000  O
  O77      1.0000 0.04900  0.75000  0.32900  Biso   1.000  O
  O78      1.0000 0.45100  0.75000  0.32900  Biso   1.000  O
  O79      1.0000 0.75000  0.04900  0.32900  Biso   1.000  O
  O80      1.0000 0.75000  0.45100  0.32900  Biso   1.000  O
  O81      1.0000 0.57410  0.25000  0.77100  Biso   1.000  O
  O82      1.0000 0.25000  0.57410  0.77100  Biso   1.000  O
  O83      1.0000 0.92590  0.25000  0.77100  Biso   1.000  O
  O84      1.0000 0.25000  0.92590  0.77100  Biso   1.000  O
  O85      1.0000 0.07410  0.75000  0.22900  Biso   1.000  O
  O86      1.0000 0.42590  0.75000  0.22900  Biso   1.000  O
  O87      1.0000 0.75000  0.07410  0.22900  Biso   1.000  O
  O88      1.0000 0.75000  0.42590  0.22900  Biso   1.000  O
  O89      1.0000 0.07680  0.53240  0.11000  Biso   1.000  O
  O90      1.0000 0.96760  0.07680  0.11000  Biso   1.000  O
  O91      1.0000 0.42320  0.96760  0.11000  Biso   1.000  O
  O92      1.0000 0.53240  0.42320  0.11000  Biso   1.000  O
  O93      1.0000 0.57680  0.46760  0.89000  Biso   1.000  O
  O94      1.0000 0.92320  0.03240  0.89000  Biso   1.000  O
  O95      1.0000 0.03240  0.57680  0.89000  Biso   1.000  O
  O96      1.0000 0.46760  0.92320  0.89000  Biso   1.000  O
  O97      1.0000 0.92320  0.46760  0.89000  Biso   1.000  O
  O98      1.0000 0.03240  0.92320  0.89000  Biso   1.000  O
  O99      1.0000 0.57680  0.03240  0.89000  Biso   1.000  O
  O100     1.0000 0.46760  0.57680  0.89000  Biso   1.000  O
  O101     1.0000 0.42320  0.53240  0.11000  Biso   1.000  O
  O102     1.0000 0.07680  0.96760  0.11000  Biso   1.000  O
  O103     1.0000 0.96760  0.42320  0.11000  Biso   1.000  O
  O104     1.0000 0.53240  0.07680  0.11000  Biso   1.000  O
  O105     1.0000 0.03790  0.46210  0.17300  Biso   1.000  O
  O106     1.0000 0.03790  0.03790  0.17300  Biso   1.000  O
  O107     1.0000 0.46210  0.03790  0.17300  Biso   1.000  O
  O108     1.0000 0.46210  0.46210  0.17300  Biso   1.000  O
  O109     1.0000 0.53790  0.53790  0.82700  Biso   1.000  O
  O110     1.0000 0.96210  0.96210  0.82700  Biso   1.000  O
  O111     1.0000 0.96210  0.53790  0.82700  Biso   1.000  O
  O112     1.0000 0.53790  0.96210  0.82700  Biso   1.000  O
  O113     1.0000 0.17300  0.40800  0.17900  Biso   1.000  O
  O114     1.0000 0.09200  0.17300  0.17900  Biso   1.000  O
  O115     1.0000 0.32700  0.09200  0.17900  Biso   1.000  O
  O116     1.0000 0.40800  0.32700  0.17900  Biso   1.000  O
  O117     1.0000 0.67300  0.59200  0.82100  Biso   1.000  O
  O118     1.0000 0.82700  0.90800  0.82100  Biso   1.000  O
  O119     1.0000 0.90800  0.67300  0.82100  Biso   1.000  O
  O120     1.0000 0.59200  0.82700  0.82100  Biso   1.000  O
  O121     1.0000 0.82700  0.59200  0.82100  Biso   1.000  O
  O122     1.0000 0.90800  0.82700  0.82100  Biso   1.000  O
  O123     1.0000 0.67300  0.90800  0.82100  Biso   1.000  O
  O124     1.0000 0.59200  0.67300  0.82100  Biso   1.000  O
  O125     1.0000 0.32700  0.40800  0.17900  Biso   1.000  O
  O126     1.0000 0.17300  0.09200  0.17900  Biso   1.000  O
  O127     1.0000 0.09200  0.32700  0.17900  Biso   1.000  O
  O128     1.0000 0.40800  0.17300  0.17900  Biso   1.000  O
  O129     1.0000 0.43410  0.25000  0.93120  Biso   1.000  O
  O130     1.0000 0.25000  0.43410  0.93120  Biso   1.000  O
  O131     1.0000 0.06590  0.25000  0.93120  Biso   1.000  O
  O132     1.0000 0.25000  0.06590  0.93120  Biso   1.000  O
  O133     1.0000 0.93410  0.75000  0.06880  Biso   1.000  O
  O134     1.0000 0.56590  0.75000  0.06880  Biso   1.000  O
  O135     1.0000 0.75000  0.93410  0.06880  Biso   1.000  O
  O136     1.0000 0.75000  0.56590  0.06880  Biso   1.000  O
  H65      1.0000 0.25000  0.70130  0.40020  Biso   1.000  H
  H66      1.0000 0.79870  0.25000  0.40020  Biso   1.000  H
  H67      1.0000 0.25000  0.79870  0.40020  Biso   1.000  H
  H68      1.0000 0.70130  0.25000  0.40020  Biso   1.000  H
  H69      1.0000 0.75000  0.29870  0.59980  Biso   1.000  H
  H70      1.0000 0.75000  0.20130  0.59980  Biso   1.000  H
  H71      1.0000 0.20130  0.75000  0.59980  Biso   1.000  H
  H72      1.0000 0.29870  0.75000  0.59980  Biso   1.000  H
