data_image0
_cell_length_a       18.8487
_cell_length_b       18.8487
_cell_length_c       13.8659
_cell_angle_alpha    90
_cell_angle_beta     90
_cell_angle_gamma    90

_symmetry_space_group_name_H-M    "P 1"
_symmetry_int_tables_number       1

loop_
  _symmetry_equiv_pos_as_xyz
  'x, y, z'

loop_
  _atom_site_label
  _atom_site_occupancy
  _atom_site_fract_x
  _atom_site_fract_y
  _atom_site_fract_z
  _atom_site_thermal_displace_type
  _atom_site_B_iso_or_equiv
  _atom_site_type_symbol
  Cu1      1.0000 0.53466  0.53466  0.06853  Biso   1.000  Cu
  Cu2      1.0000 0.96534  0.96534  0.06853  Biso   1.000  Cu
  Cu3      1.0000 0.96534  0.53466  0.06853  Biso   1.000  Cu
  Cu4      1.0000 0.53466  0.96534  0.06853  Biso   1.000  Cu
  Cu5      1.0000 0.46534  0.03466  0.93147  Biso   1.000  Cu
  Cu6      1.0000 0.03466  0.46534  0.93147  Biso   1.000  Cu
  Cu7      1.0000 0.03466  0.03466  0.93147  Biso   1.000  Cu
  Cu8      1.0000 0.46534  0.46534  0.93147  Biso   1.000  Cu
  O1       1.0000 0.56020  0.45560  0.87560  Biso   1.000  O
  O2       1.0000 0.93980  0.04440  0.87560  Biso   1.000  O
  O3       1.0000 0.04440  0.56020  0.87560  Biso   1.000  O
  O4       1.0000 0.45560  0.93980  0.87560  Biso   1.000  O
  O5       1.0000 0.43980  0.95560  0.12440  Biso   1.000  O
  O6       1.0000 0.06020  0.54440  0.12440  Biso   1.000  O
  O7       1.0000 0.95560  0.06020  0.12440  Biso   1.000  O
  O8       1.0000 0.54440  0.43980  0.12440  Biso   1.000  O
  O9       1.0000 0.43980  0.54440  0.12440  Biso   1.000  O
  O10      1.0000 0.06020  0.95560  0.12440  Biso   1.000  O
  O11      1.0000 0.95560  0.43980  0.12440  Biso   1.000  O
  O12      1.0000 0.54440  0.06020  0.12440  Biso   1.000  O
  O13      1.0000 0.56020  0.04440  0.87560  Biso   1.000  O
  O14      1.0000 0.93980  0.45560  0.87560  Biso   1.000  O
  O15      1.0000 0.04440  0.93980  0.87560  Biso   1.000  O
  O16      1.0000 0.45560  0.56020  0.87560  Biso   1.000  O
  O17      1.0000 0.61940  0.51640  0.99010  Biso   1.000  O
  O18      1.0000 0.88060  0.98360  0.99010  Biso   1.000  O
  O19      1.0000 0.98360  0.61940  0.99010  Biso   1.000  O
  O20      1.0000 0.51640  0.88060  0.99010  Biso   1.000  O
  O21      1.0000 0.38060  0.01640  0.00990  Biso   1.000  O
  O22      1.0000 0.11940  0.48360  0.00990  Biso   1.000  O
  O23      1.0000 0.01640  0.11940  0.00990  Biso   1.000  O
  O24      1.0000 0.48360  0.38060  0.00990  Biso   1.000  O
  O25      1.0000 0.38060  0.48360  0.00990  Biso   1.000  O
  O26      1.0000 0.11940  0.01640  0.00990  Biso   1.000  O
  O27      1.0000 0.01640  0.38060  0.00990  Biso   1.000  O
  O28      1.0000 0.48360  0.11940  0.00990  Biso   1.000  O
  O29      1.0000 0.61940  0.98360  0.99010  Biso   1.000  O
  O30      1.0000 0.88060  0.51640  0.99010  Biso   1.000  O
  O31      1.0000 0.98360  0.88060  0.99010  Biso   1.000  O
  O32      1.0000 0.51640  0.61940  0.99010  Biso   1.000  O
  C1       1.0000 0.75000  0.25000  0.55410  Biso   1.000  C
  C2       1.0000 0.25000  0.75000  0.55410  Biso   1.000  C
  C3       1.0000 0.25000  0.75000  0.44590  Biso   1.000  C
  C4       1.0000 0.75000  0.25000  0.44590  Biso   1.000  C
  C5       1.0000 0.75000  0.31330  0.70470  Biso   1.000  C
  C6       1.0000 0.75000  0.18670  0.70470  Biso   1.000  C
  C7       1.0000 0.18670  0.75000  0.70470  Biso   1.000  C
  C8       1.0000 0.31330  0.75000  0.70470  Biso   1.000  C
  C9       1.0000 0.25000  0.81330  0.29530  Biso   1.000  C
  C10      1.0000 0.25000  0.68670  0.29530  Biso   1.000  C
  C11      1.0000 0.81330  0.25000  0.29530  Biso   1.000  C
  C12      1.0000 0.68670  0.25000  0.29530  Biso   1.000  C
  C13      1.0000 0.75000  0.31400  0.60470  Biso   1.000  C
  C14      1.0000 0.75000  0.18600  0.60470  Biso   1.000  C
  C15      1.0000 0.18600  0.75000  0.60470  Biso   1.000  C
  C16      1.0000 0.31400  0.75000  0.60470  Biso   1.000  C
  C17      1.0000 0.25000  0.81400  0.39530  Biso   1.000  C
  C18      1.0000 0.25000  0.68600  0.39530  Biso   1.000  C
  C19      1.0000 0.81400  0.25000  0.39530  Biso   1.000  C
  C20      1.0000 0.68600  0.25000  0.39530  Biso   1.000  C
  C21      1.0000 0.75000  0.25000  0.75530  Biso   1.000  C
  C22      1.0000 0.25000  0.75000  0.75530  Biso   1.000  C
  C23      1.0000 0.25000  0.75000  0.24470  Biso   1.000  C
  C24      1.0000 0.75000  0.25000  0.24470  Biso   1.000  C
  C25      1.0000 0.75000  0.37980  0.76330  Biso   1.000  C
  C26      1.0000 0.75000  0.12020  0.76330  Biso   1.000  C
  C27      1.0000 0.12020  0.75000  0.76330  Biso   1.000  C
  C28      1.0000 0.37980  0.75000  0.76330  Biso   1.000  C
  C29      1.0000 0.25000  0.87980  0.23670  Biso   1.000  C
  C30      1.0000 0.25000  0.62020  0.23670  Biso   1.000  C
  C31      1.0000 0.87980  0.25000  0.23670  Biso   1.000  C
  C32      1.0000 0.62020  0.25000  0.23670  Biso   1.000  C
  C33      1.0000 0.68610  0.40600  0.79770  Biso   1.000  C
  C34      1.0000 0.81390  0.09400  0.79770  Biso   1.000  C
  C35      1.0000 0.09400  0.68610  0.79770  Biso   1.000  C
  C36      1.0000 0.40600  0.81390  0.79770  Biso   1.000  C
  C37      1.0000 0.31390  0.90600  0.20230  Biso   1.000  C
  C38      1.0000 0.18610  0.59400  0.20230  Biso   1.000  C
  C39      1.0000 0.90600  0.18610  0.20230  Biso   1.000  C
  C40      1.0000 0.59400  0.31390  0.20230  Biso   1.000  C
  C41      1.0000 0.31390  0.59400  0.20230  Biso   1.000  C
  C42      1.0000 0.18610  0.90600  0.20230  Biso   1.000  C
  C43      1.0000 0.90600  0.31390  0.20230  Biso   1.000  C
  C44      1.0000 0.59400  0.18610  0.20230  Biso   1.000  C
  C45      1.0000 0.68610  0.09400  0.79770  Biso   1.000  C
  C46      1.0000 0.81390  0.40600  0.79770  Biso   1.000  C
  C47      1.0000 0.09400  0.81390  0.79770  Biso   1.000  C
  C48      1.0000 0.40600  0.68610  0.79770  Biso   1.000  C
  H1       1.0000 0.64250  0.38900  0.77220  Biso   1.000  H
  H2       1.0000 0.85750  0.11100  0.77220  Biso   1.000  H
  H3       1.0000 0.11100  0.64250  0.77220  Biso   1.000  H
  H4       1.0000 0.38900  0.85750  0.77220  Biso   1.000  H
  H5       1.0000 0.35750  0.88900  0.22780  Biso   1.000  H
  H6       1.0000 0.14250  0.61100  0.22780  Biso   1.000  H
  H7       1.0000 0.88900  0.14250  0.22780  Biso   1.000  H
  H8       1.0000 0.61100  0.35750  0.22780  Biso   1.000  H
  H9       1.0000 0.35750  0.61100  0.22780  Biso   1.000  H
  H10      1.0000 0.14250  0.88900  0.22780  Biso   1.000  H
  H11      1.0000 0.88900  0.35750  0.22780  Biso   1.000  H
  H12      1.0000 0.61100  0.14250  0.22780  Biso   1.000  H
  H13      1.0000 0.64250  0.11100  0.77220  Biso   1.000  H
  H14      1.0000 0.85750  0.38900  0.77220  Biso   1.000  H
  H15      1.0000 0.11100  0.85750  0.77220  Biso   1.000  H
  H16      1.0000 0.38900  0.64250  0.77220  Biso   1.000  H
  C49      1.0000 0.75000  0.48100  0.90740  Biso   1.000  C
  C50      1.0000 0.75000  0.01900  0.90740  Biso   1.000  C
  C51      1.0000 0.01900  0.75000  0.90740  Biso   1.000  C
  C52      1.0000 0.48100  0.75000  0.90740  Biso   1.000  C
  C53      1.0000 0.25000  0.98100  0.09260  Biso   1.000  C
  C54      1.0000 0.25000  0.51900  0.09260  Biso   1.000  C
  C55      1.0000 0.98100  0.25000  0.09260  Biso   1.000  C
  C56      1.0000 0.51900  0.25000  0.09260  Biso   1.000  C
  H17      1.0000 0.75000  0.51370  0.95950  Biso   1.000  H
  H18      1.0000 0.75000  0.98630  0.95950  Biso   1.000  H
  H19      1.0000 0.98630  0.75000  0.95950  Biso   1.000  H
  H20      1.0000 0.51370  0.75000  0.95950  Biso   1.000  H
  H21      1.0000 0.25000  0.01370  0.04050  Biso   1.000  H
  H22      1.0000 0.25000  0.48630  0.04050  Biso   1.000  H
  H23      1.0000 0.01370  0.25000  0.04050  Biso   1.000  H
  H24      1.0000 0.48630  0.25000  0.04050  Biso   1.000  H
  C57      1.0000 0.68620  0.45740  0.86970  Biso   1.000  C
  C58      1.0000 0.81380  0.04260  0.86970  Biso   1.000  C
  C59      1.0000 0.04260  0.68620  0.86970  Biso   1.000  C
  C60      1.0000 0.45740  0.81380  0.86970  Biso   1.000  C
  C61      1.0000 0.31380  0.95740  0.13030  Biso   1.000  C
  C62      1.0000 0.18620  0.54260  0.13030  Biso   1.000  C
  C63      1.0000 0.95740  0.18620  0.13030  Biso   1.000  C
  C64      1.0000 0.54260  0.31380  0.13030  Biso   1.000  C
  C65      1.0000 0.31380  0.54260  0.13030  Biso   1.000  C
  C66      1.0000 0.18620  0.95740  0.13030  Biso   1.000  C
  C67      1.0000 0.95740  0.31380  0.13030  Biso   1.000  C
  C68      1.0000 0.54260  0.18620  0.13030  Biso   1.000  C
  C69      1.0000 0.68620  0.04260  0.86970  Biso   1.000  C
  C70      1.0000 0.81380  0.45740  0.86970  Biso   1.000  C
  C71      1.0000 0.04260  0.81380  0.86970  Biso   1.000  C
  C72      1.0000 0.45740  0.68620  0.86970  Biso   1.000  C
  C73      1.0000 0.61580  0.47840  0.91490  Biso   1.000  C
  C74      1.0000 0.88420  0.02160  0.91490  Biso   1.000  C
  C75      1.0000 0.02160  0.61580  0.91490  Biso   1.000  C
  C76      1.0000 0.47840  0.88420  0.91490  Biso   1.000  C
  C77      1.0000 0.38420  0.97840  0.08510  Biso   1.000  C
  C78      1.0000 0.11580  0.52160  0.08510  Biso   1.000  C
  C79      1.0000 0.97840  0.11580  0.08510  Biso   1.000  C
  C80      1.0000 0.52160  0.38420  0.08510  Biso   1.000  C
  C81      1.0000 0.38420  0.52160  0.08510  Biso   1.000  C
  C82      1.0000 0.11580  0.97840  0.08510  Biso   1.000  C
  C83      1.0000 0.97840  0.38420  0.08510  Biso   1.000  C
  C84      1.0000 0.52160  0.11580  0.08510  Biso   1.000  C
  C85      1.0000 0.61580  0.02160  0.91490  Biso   1.000  C
  C86      1.0000 0.88420  0.47840  0.91490  Biso   1.000  C
  C87      1.0000 0.02160  0.88420  0.91490  Biso   1.000  C
  C88      1.0000 0.47840  0.61580  0.91490  Biso   1.000  C
  C89      1.0000 0.75000  0.38450  0.55190  Biso   1.000  C
  C90      1.0000 0.75000  0.11550  0.55190  Biso   1.000  C
  C91      1.0000 0.11550  0.75000  0.55190  Biso   1.000  C
  C92      1.0000 0.38450  0.75000  0.55190  Biso   1.000  C
  C93      1.0000 0.25000  0.88450  0.44810  Biso   1.000  C
  C94      1.0000 0.25000  0.61550  0.44810  Biso   1.000  C
  C95      1.0000 0.88450  0.25000  0.44810  Biso   1.000  C
  C96      1.0000 0.61550  0.25000  0.44810  Biso   1.000  C
  H25      1.0000 0.75000  0.37600  0.48220  Biso   1.000  H
  H26      1.0000 0.75000  0.12400  0.48220  Biso   1.000  H
  H27      1.0000 0.12400  0.75000  0.48220  Biso   1.000  H
  H28      1.0000 0.37600  0.75000  0.48220  Biso   1.000  H
  H29      1.0000 0.25000  0.87600  0.51780  Biso   1.000  H
  H30      1.0000 0.25000  0.62400  0.51780  Biso   1.000  H
  H31      1.0000 0.87600  0.25000  0.51780  Biso   1.000  H
  H32      1.0000 0.62400  0.25000  0.51780  Biso   1.000  H
  H33      1.0000 0.70750  0.41150  0.56970  Biso   1.000  H
  H34      1.0000 0.79250  0.08850  0.56970  Biso   1.000  H
  H35      1.0000 0.08850  0.70750  0.56970  Biso   1.000  H
  H36      1.0000 0.41150  0.79250  0.56970  Biso   1.000  H
  H37      1.0000 0.29250  0.91150  0.43030  Biso   1.000  H
  H38      1.0000 0.20750  0.58850  0.43030  Biso   1.000  H
  H39      1.0000 0.91150  0.20750  0.43030  Biso   1.000  H
  H40      1.0000 0.58850  0.29250  0.43030  Biso   1.000  H
  H41      1.0000 0.29250  0.58850  0.43030  Biso   1.000  H
  H42      1.0000 0.20750  0.91150  0.43030  Biso   1.000  H
  H43      1.0000 0.91150  0.29250  0.43030  Biso   1.000  H
  H44      1.0000 0.58850  0.20750  0.43030  Biso   1.000  H
  H45      1.0000 0.70750  0.08850  0.56970  Biso   1.000  H
  H46      1.0000 0.79250  0.41150  0.56970  Biso   1.000  H
  H47      1.0000 0.08850  0.79250  0.56970  Biso   1.000  H
  H48      1.0000 0.41150  0.70750  0.56970  Biso   1.000  H
  C97      1.0000 0.75000  0.25000  0.86460  Biso   1.000  C
  C98      1.0000 0.25000  0.75000  0.86460  Biso   1.000  C
  C99      1.0000 0.25000  0.75000  0.13540  Biso   1.000  C
  C100     1.0000 0.75000  0.25000  0.13540  Biso   1.000  C
  N1       1.0000 0.59680  0.59680  0.17650  Biso   1.000  N
  N2       1.0000 0.90320  0.90320  0.17650  Biso   1.000  N
  N3       1.0000 0.90320  0.59680  0.17650  Biso   1.000  N
  N4       1.0000 0.59680  0.90320  0.17650  Biso   1.000  N
  N5       1.0000 0.40320  0.09680  0.82350  Biso   1.000  N
  N6       1.0000 0.09680  0.40320  0.82350  Biso   1.000  N
  N7       1.0000 0.09680  0.09680  0.82350  Biso   1.000  N
  N8       1.0000 0.40320  0.40320  0.82350  Biso   1.000  N
  H49      1.0000 0.75000  0.20100  0.88810  Biso   1.000  H
  H50      1.0000 0.75000  0.29900  0.88810  Biso   1.000  H
  H51      1.0000 0.29900  0.75000  0.88810  Biso   1.000  H
  H52      1.0000 0.20100  0.75000  0.88810  Biso   1.000  H
  H53      1.0000 0.25000  0.70100  0.11190  Biso   1.000  H
  H54      1.0000 0.25000  0.79900  0.11190  Biso   1.000  H
  H55      1.0000 0.70100  0.25000  0.11190  Biso   1.000  H
  H56      1.0000 0.79900  0.25000  0.11190  Biso   1.000  H
  H57      1.0000 0.79250  0.27450  0.88810  Biso   1.000  H
  H58      1.0000 0.70750  0.22550  0.88810  Biso   1.000  H
  H59      1.0000 0.22550  0.79250  0.88810  Biso   1.000  H
  H60      1.0000 0.27450  0.70750  0.88810  Biso   1.000  H
  H61      1.0000 0.20750  0.77450  0.11190  Biso   1.000  H
  H62      1.0000 0.29250  0.72550  0.11190  Biso   1.000  H
  H63      1.0000 0.77450  0.29250  0.11190  Biso   1.000  H
  H64      1.0000 0.72550  0.20750  0.11190  Biso   1.000  H
  H65      1.0000 0.20750  0.72550  0.11190  Biso   1.000  H
  H66      1.0000 0.29250  0.77450  0.11190  Biso   1.000  H
  H67      1.0000 0.77450  0.20750  0.11190  Biso   1.000  H
  H68      1.0000 0.72550  0.29250  0.11190  Biso   1.000  H
  H69      1.0000 0.79250  0.22550  0.88810  Biso   1.000  H
  H70      1.0000 0.70750  0.27450  0.88810  Biso   1.000  H
  H71      1.0000 0.22550  0.70750  0.88810  Biso   1.000  H
  H72      1.0000 0.27450  0.79250  0.88810  Biso   1.000  H
  C101     1.0000 0.69890  0.69890  0.97200  Biso   1.000  C
  C102     1.0000 0.80110  0.80110  0.97200  Biso   1.000  C
  C103     1.0000 0.80110  0.69890  0.97200  Biso   1.000  C
  C104     1.0000 0.69890  0.80110  0.97200  Biso   1.000  C
  C105     1.0000 0.30110  0.19890  0.02800  Biso   1.000  C
  C106     1.0000 0.19890  0.30110  0.02800  Biso   1.000  C
  C107     1.0000 0.19890  0.19890  0.02800  Biso   1.000  C
  C108     1.0000 0.30110  0.30110  0.02800  Biso   1.000  C
  N9       1.0000 0.65400  0.65400  0.98100  Biso   1.000  N
  N10      1.0000 0.84600  0.84600  0.98100  Biso   1.000  N
  N11      1.0000 0.84600  0.65400  0.98100  Biso   1.000  N
  N12      1.0000 0.65400  0.84600  0.98100  Biso   1.000  N
  N13      1.0000 0.34600  0.15400  0.01900  Biso   1.000  N
  N14      1.0000 0.15400  0.34600  0.01900  Biso   1.000  N
  N15      1.0000 0.15400  0.15400  0.01900  Biso   1.000  N
  N16      1.0000 0.34600  0.34600  0.01900  Biso   1.000  N
  C109     1.0000 0.76910  0.67970  0.96670  Biso   1.000  C
  C110     1.0000 0.73090  0.82030  0.96670  Biso   1.000  C
  C111     1.0000 0.82030  0.76910  0.96670  Biso   1.000  C
  C112     1.0000 0.67970  0.73090  0.96670  Biso   1.000  C
  C113     1.0000 0.23090  0.17970  0.03330  Biso   1.000  C
  C114     1.0000 0.26910  0.32030  0.03330  Biso   1.000  C
  C115     1.0000 0.17970  0.26910  0.03330  Biso   1.000  C
  C116     1.0000 0.32030  0.23090  0.03330  Biso   1.000  C
  C117     1.0000 0.23090  0.32030  0.03330  Biso   1.000  C
  C118     1.0000 0.26910  0.17970  0.03330  Biso   1.000  C
  C119     1.0000 0.17970  0.23090  0.03330  Biso   1.000  C
  C120     1.0000 0.32030  0.26910  0.03330  Biso   1.000  C
  C121     1.0000 0.76910  0.82030  0.96670  Biso   1.000  C
  C122     1.0000 0.73090  0.67970  0.96670  Biso   1.000  C
  C123     1.0000 0.82030  0.73090  0.96670  Biso   1.000  C
  C124     1.0000 0.67970  0.76910  0.96670  Biso   1.000  C
  H73      1.0000 0.78190  0.63100  0.96300  Biso   1.000  H
  H74      1.0000 0.71810  0.86900  0.96300  Biso   1.000  H
  H75      1.0000 0.86900  0.78190  0.96300  Biso   1.000  H
  H76      1.0000 0.63100  0.71810  0.96300  Biso   1.000  H
  H77      1.0000 0.21810  0.13100  0.03700  Biso   1.000  H
  H78      1.0000 0.28190  0.36900  0.03700  Biso   1.000  H
  H79      1.0000 0.13100  0.28190  0.03700  Biso   1.000  H
  H80      1.0000 0.36900  0.21810  0.03700  Biso   1.000  H
  H81      1.0000 0.21810  0.36900  0.03700  Biso   1.000  H
  H82      1.0000 0.28190  0.13100  0.03700  Biso   1.000  H
  H83      1.0000 0.13100  0.21810  0.03700  Biso   1.000  H
  H84      1.0000 0.36900  0.28190  0.03700  Biso   1.000  H
  H85      1.0000 0.78190  0.86900  0.96300  Biso   1.000  H
  H86      1.0000 0.71810  0.63100  0.96300  Biso   1.000  H
  H87      1.0000 0.86900  0.71810  0.96300  Biso   1.000  H
  H88      1.0000 0.63100  0.78190  0.96300  Biso   1.000  H
  H89      1.0000 0.55020  0.72790  0.11470  Biso   1.000  H
  H90      1.0000 0.94980  0.77210  0.11470  Biso   1.000  H
  H91      1.0000 0.77210  0.55020  0.11470  Biso   1.000  H
  H92      1.0000 0.72790  0.94980  0.11470  Biso   1.000  H
  H93      1.0000 0.44980  0.22790  0.88530  Biso   1.000  H
  H94      1.0000 0.05020  0.27210  0.88530  Biso   1.000  H
  H95      1.0000 0.22790  0.05020  0.88530  Biso   1.000  H
  H96      1.0000 0.27210  0.44980  0.88530  Biso   1.000  H
  H97      1.0000 0.44980  0.27210  0.88530  Biso   1.000  H
  H98      1.0000 0.05020  0.22790  0.88530  Biso   1.000  H
  H99      1.0000 0.22790  0.44980  0.88530  Biso   1.000  H
  H100     1.0000 0.27210  0.05020  0.88530  Biso   1.000  H
  H101     1.0000 0.55020  0.77210  0.11470  Biso   1.000  H
  H102     1.0000 0.94980  0.72790  0.11470  Biso   1.000  H
  H103     1.0000 0.77210  0.94980  0.11470  Biso   1.000  H
  H104     1.0000 0.72790  0.55020  0.11470  Biso   1.000  H
  H105     1.0000 0.45490  0.78280  0.16240  Biso   1.000  H
  H106     1.0000 0.04510  0.71720  0.16240  Biso   1.000  H
  H107     1.0000 0.71720  0.45490  0.16240  Biso   1.000  H
  H108     1.0000 0.78280  0.04510  0.16240  Biso   1.000  H
  H109     1.0000 0.54510  0.28280  0.83760  Biso   1.000  H
  H110     1.0000 0.95490  0.21720  0.83760  Biso   1.000  H
  H111     1.0000 0.28280  0.95490  0.83760  Biso   1.000  H
  H112     1.0000 0.21720  0.54510  0.83760  Biso   1.000  H
  H113     1.0000 0.54510  0.21720  0.83760  Biso   1.000  H
  H114     1.0000 0.95490  0.28280  0.83760  Biso   1.000  H
  H115     1.0000 0.28280  0.54510  0.83760  Biso   1.000  H
  H116     1.0000 0.21720  0.95490  0.83760  Biso   1.000  H
  H117     1.0000 0.45490  0.71720  0.16240  Biso   1.000  H
  H118     1.0000 0.04510  0.78280  0.16240  Biso   1.000  H
  H119     1.0000 0.71720  0.04510  0.16240  Biso   1.000  H
  H120     1.0000 0.78280  0.45490  0.16240  Biso   1.000  H
  H121     1.0000 0.41990  0.78820  0.31890  Biso   1.000  H
  H122     1.0000 0.08010  0.71180  0.31890  Biso   1.000  H
  H123     1.0000 0.71180  0.41990  0.31890  Biso   1.000  H
  H124     1.0000 0.78820  0.08010  0.31890  Biso   1.000  H
  H125     1.0000 0.58010  0.28820  0.68110  Biso   1.000  H
  H126     1.0000 0.91990  0.21180  0.68110  Biso   1.000  H
  H127     1.0000 0.28820  0.91990  0.68110  Biso   1.000  H
  H128     1.0000 0.21180  0.58010  0.68110  Biso   1.000  H
  H129     1.0000 0.58010  0.21180  0.68110  Biso   1.000  H
  H130     1.0000 0.91990  0.28820  0.68110  Biso   1.000  H
  H131     1.0000 0.28820  0.58010  0.68110  Biso   1.000  H
  H132     1.0000 0.21180  0.91990  0.68110  Biso   1.000  H
  H133     1.0000 0.41990  0.71180  0.31890  Biso   1.000  H
  H134     1.0000 0.08010  0.78820  0.31890  Biso   1.000  H
  H135     1.0000 0.71180  0.08010  0.31890  Biso   1.000  H
  H136     1.0000 0.78820  0.41990  0.31890  Biso   1.000  H
  H137     1.0000 0.43410  0.67290  0.39430  Biso   1.000  H
  H138     1.0000 0.06590  0.82710  0.39430  Biso   1.000  H
  H139     1.0000 0.82710  0.43410  0.39430  Biso   1.000  H
  H140     1.0000 0.67290  0.06590  0.39430  Biso   1.000  H
  H141     1.0000 0.56590  0.17290  0.60570  Biso   1.000  H
  H142     1.0000 0.93410  0.32710  0.60570  Biso   1.000  H
  H143     1.0000 0.17290  0.93410  0.60570  Biso   1.000  H
  H144     1.0000 0.32710  0.56590  0.60570  Biso   1.000  H
  H145     1.0000 0.56590  0.32710  0.60570  Biso   1.000  H
  H146     1.0000 0.93410  0.17290  0.60570  Biso   1.000  H
  H147     1.0000 0.17290  0.56590  0.60570  Biso   1.000  H
  H148     1.0000 0.32710  0.93410  0.60570  Biso   1.000  H
  H149     1.0000 0.43410  0.82710  0.39430  Biso   1.000  H
  H150     1.0000 0.06590  0.67290  0.39430  Biso   1.000  H
  H151     1.0000 0.82710  0.06590  0.39430  Biso   1.000  H
  H152     1.0000 0.67290  0.43410  0.39430  Biso   1.000  H
  C125     1.0000 0.45900  0.68520  0.33710  Biso   1.000  C
  C126     1.0000 0.04100  0.81480  0.33710  Biso   1.000  C
  C127     1.0000 0.81480  0.45900  0.33710  Biso   1.000  C
  C128     1.0000 0.68520  0.04100  0.33710  Biso   1.000  C
  C129     1.0000 0.54100  0.18520  0.66290  Biso   1.000  C
  C130     1.0000 0.95900  0.31480  0.66290  Biso   1.000  C
  C131     1.0000 0.18520  0.95900  0.66290  Biso   1.000  C
  C132     1.0000 0.31480  0.54100  0.66290  Biso   1.000  C
  C133     1.0000 0.54100  0.31480  0.66290  Biso   1.000  C
  C134     1.0000 0.95900  0.18520  0.66290  Biso   1.000  C
  C135     1.0000 0.18520  0.54100  0.66290  Biso   1.000  C
  C136     1.0000 0.31480  0.95900  0.66290  Biso   1.000  C
  C137     1.0000 0.45900  0.81480  0.33710  Biso   1.000  C
  C138     1.0000 0.04100  0.68520  0.33710  Biso   1.000  C
  C139     1.0000 0.81480  0.04100  0.33710  Biso   1.000  C
  C140     1.0000 0.68520  0.45900  0.33710  Biso   1.000  C
  C141     1.0000 0.52610  0.71380  0.17180  Biso   1.000  C
  C142     1.0000 0.97390  0.78620  0.17180  Biso   1.000  C
  C143     1.0000 0.78620  0.52610  0.17180  Biso   1.000  C
  C144     1.0000 0.71380  0.97390  0.17180  Biso   1.000  C
  C145     1.0000 0.47390  0.21380  0.82820  Biso   1.000  C
  C146     1.0000 0.02610  0.28620  0.82820  Biso   1.000  C
  C147     1.0000 0.21380  0.02610  0.82820  Biso   1.000  C
  C148     1.0000 0.28620  0.47390  0.82820  Biso   1.000  C
  C149     1.0000 0.47390  0.28620  0.82820  Biso   1.000  C
  C150     1.0000 0.02610  0.21380  0.82820  Biso   1.000  C
  C151     1.0000 0.21380  0.47390  0.82820  Biso   1.000  C
  C152     1.0000 0.28620  0.02610  0.82820  Biso   1.000  C
  C153     1.0000 0.52610  0.78620  0.17180  Biso   1.000  C
  C154     1.0000 0.97390  0.71380  0.17180  Biso   1.000  C
  C155     1.0000 0.78620  0.97390  0.17180  Biso   1.000  C
  C156     1.0000 0.71380  0.52610  0.17180  Biso   1.000  C
  C157     1.0000 0.54430  0.65430  0.22040  Biso   1.000  C
  C158     1.0000 0.95570  0.84570  0.22040  Biso   1.000  C
  C159     1.0000 0.84570  0.54430  0.22040  Biso   1.000  C
  C160     1.0000 0.65430  0.95570  0.22040  Biso   1.000  C
  C161     1.0000 0.45570  0.15430  0.77960  Biso   1.000  C
  C162     1.0000 0.04430  0.34570  0.77960  Biso   1.000  C
  C163     1.0000 0.15430  0.04430  0.77960  Biso   1.000  C
  C164     1.0000 0.34570  0.45570  0.77960  Biso   1.000  C
  C165     1.0000 0.45570  0.34570  0.77960  Biso   1.000  C
  C166     1.0000 0.04430  0.15430  0.77960  Biso   1.000  C
  C167     1.0000 0.15430  0.45570  0.77960  Biso   1.000  C
  C168     1.0000 0.34570  0.04430  0.77960  Biso   1.000  C
  C169     1.0000 0.54430  0.84570  0.22040  Biso   1.000  C
  C170     1.0000 0.95570  0.65430  0.22040  Biso   1.000  C
  C171     1.0000 0.84570  0.95570  0.22040  Biso   1.000  C
  C172     1.0000 0.65430  0.54430  0.22040  Biso   1.000  C
  C173     1.0000 0.50610  0.64100  0.30010  Biso   1.000  C
  C174     1.0000 0.99390  0.85900  0.30010  Biso   1.000  C
  C175     1.0000 0.85900  0.50610  0.30010  Biso   1.000  C
  C176     1.0000 0.64100  0.99390  0.30010  Biso   1.000  C
  C177     1.0000 0.49390  0.14100  0.69990  Biso   1.000  C
  C178     1.0000 0.00610  0.35900  0.69990  Biso   1.000  C
  C179     1.0000 0.14100  0.00610  0.69990  Biso   1.000  C
  C180     1.0000 0.35900  0.49390  0.69990  Biso   1.000  C
  C181     1.0000 0.49390  0.35900  0.69990  Biso   1.000  C
  C182     1.0000 0.00610  0.14100  0.69990  Biso   1.000  C
  C183     1.0000 0.14100  0.49390  0.69990  Biso   1.000  C
  C184     1.0000 0.35900  0.00610  0.69990  Biso   1.000  C
  C185     1.0000 0.50610  0.85900  0.30010  Biso   1.000  C
  C186     1.0000 0.99390  0.64100  0.30010  Biso   1.000  C
  C187     1.0000 0.85900  0.99390  0.30010  Biso   1.000  C
  C188     1.0000 0.64100  0.50610  0.30010  Biso   1.000  C
  H153     1.0000 0.51330  0.59700  0.33200  Biso   1.000  H
  H154     1.0000 0.98670  0.90300  0.33200  Biso   1.000  H
  H155     1.0000 0.90300  0.51330  0.33200  Biso   1.000  H
  H156     1.0000 0.59700  0.98670  0.33200  Biso   1.000  H
  H157     1.0000 0.48670  0.09700  0.66800  Biso   1.000  H
  H158     1.0000 0.01330  0.40300  0.66800  Biso   1.000  H
  H159     1.0000 0.09700  0.01330  0.66800  Biso   1.000  H
  H160     1.0000 0.40300  0.48670  0.66800  Biso   1.000  H
  H161     1.0000 0.48670  0.40300  0.66800  Biso   1.000  H
  H162     1.0000 0.01330  0.09700  0.66800  Biso   1.000  H
  H163     1.0000 0.09700  0.48670  0.66800  Biso   1.000  H
  H164     1.0000 0.40300  0.01330  0.66800  Biso   1.000  H
  H165     1.0000 0.51330  0.90300  0.33200  Biso   1.000  H
  H166     1.0000 0.98670  0.59700  0.33200  Biso   1.000  H
  H167     1.0000 0.90300  0.98670  0.33200  Biso   1.000  H
  H168     1.0000 0.59700  0.51330  0.33200  Biso   1.000  H
  C189     1.0000 0.47520  0.75000  0.20640  Biso   1.000  C
  C190     1.0000 0.02480  0.75000  0.20640  Biso   1.000  C
  C191     1.0000 0.75000  0.47520  0.20640  Biso   1.000  C
  C192     1.0000 0.75000  0.02480  0.20640  Biso   1.000  C
  C193     1.0000 0.52480  0.25000  0.79360  Biso   1.000  C
  C194     1.0000 0.97520  0.25000  0.79360  Biso   1.000  C
  C195     1.0000 0.25000  0.97520  0.79360  Biso   1.000  C
  C196     1.0000 0.25000  0.52480  0.79360  Biso   1.000  C
  C197     1.0000 0.44600  0.75000  0.29180  Biso   1.000  C
  C198     1.0000 0.05400  0.75000  0.29180  Biso   1.000  C
  C199     1.0000 0.75000  0.44600  0.29180  Biso   1.000  C
  C200     1.0000 0.75000  0.05400  0.29180  Biso   1.000  C
  C201     1.0000 0.55400  0.25000  0.70820  Biso   1.000  C
  C202     1.0000 0.94600  0.25000  0.70820  Biso   1.000  C
  C203     1.0000 0.25000  0.94600  0.70820  Biso   1.000  C
  C204     1.0000 0.25000  0.55400  0.70820  Biso   1.000  C
