data_image0
_cell_length_a       5.1721
_cell_length_b       9.773
_cell_length_c       9.867
_cell_angle_alpha    90
_cell_angle_beta     102.08
_cell_angle_gamma    90

_symmetry_space_group_name_H-M    "P 1"
_symmetry_int_tables_number       1

loop_
  _symmetry_equiv_pos_as_xyz
  'x, y, z'

loop_
  _atom_site_label
  _atom_site_occupancy
  _atom_site_fract_x
  _atom_site_fract_y
  _atom_site_fract_z
  _atom_site_thermal_displace_type
  _atom_site_B_iso_or_equiv
  _atom_site_type_symbol
  O1       1.0000 0.33620  0.16170  0.03280  Biso   1.000  O
  O2       1.0000 0.66380  0.66170  0.96720  Biso   1.000  O
  Cu1      1.0000 0.48120  0.74690  0.10079  Biso   1.000  Cu
  Cu2      1.0000 0.51880  0.24690  0.89921  Biso   1.000  Cu
  O3       1.0000 0.79870  0.73780  0.24730  Biso   1.000  O
  O4       1.0000 0.20130  0.23780  0.75270  Biso   1.000  O
  N1       1.0000 0.33000  0.85300  0.24140  Biso   1.000  N
  N2       1.0000 0.67000  0.35300  0.75860  Biso   1.000  N
  H1       1.0000 0.18270  0.80800  0.25410  Biso   1.000  H
  H2       1.0000 0.81730  0.30800  0.74590  Biso   1.000  H
  O5       1.0000 0.14620  0.76760  0.95890  Biso   1.000  O
  O6       1.0000 0.85380  0.26760  0.04110  Biso   1.000  O
  O7       1.0000 0.57100  0.96840  0.05260  Biso   1.000  O
  O8       1.0000 0.42900  0.46840  0.94740  Biso   1.000  O
  C1       1.0000 0.24700  0.99210  0.18900  Biso   1.000  C
  C2       1.0000 0.75300  0.49210  0.81100  Biso   1.000  C
  H3       1.0000 0.06000  0.98800  0.14280  Biso   1.000  H
  H4       1.0000 0.94000  0.48800  0.85720  Biso   1.000  H
  O9       1.0000 0.97300  0.79940  0.46100  Biso   1.000  O
  O10      1.0000 0.02700  0.29940  0.53900  Biso   1.000  O
  C3       1.0000 0.40500  0.04470  0.08310  Biso   1.000  C
  C4       1.0000 0.59500  0.54470  0.91690  Biso   1.000  C
  C5       1.0000 0.27200  0.08700  0.31340  Biso   1.000  C
  C6       1.0000 0.72800  0.58700  0.68660  Biso   1.000  C
  H5       1.0000 0.12460  0.07540  0.35900  Biso   1.000  H
  H6       1.0000 0.87540  0.57540  0.64100  Biso   1.000  H
  H7       1.0000 0.28090  0.18200  0.28620  Biso   1.000  H
  H8       1.0000 0.71910  0.68200  0.71380  Biso   1.000  H
  S1       1.0000 0.58280  0.03200  0.42540  Biso   1.000  S
  S2       1.0000 0.41720  0.53200  0.57460  Biso   1.000  S
  O11      1.0000 0.32200  0.53590  0.19960  Biso   1.000  O
  O12      1.0000 0.67800  0.03590  0.80040  Biso   1.000  O
  C7       1.0000 0.51600  0.85480  0.37290  Biso   1.000  C
  C8       1.0000 0.48400  0.35480  0.62710  Biso   1.000  C
  H9       1.0000 0.44320  0.80570  0.44290  Biso   1.000  H
  H10      1.0000 0.55680  0.30570  0.55710  Biso   1.000  H
  C9       1.0000 0.78900  0.79050  0.36030  Biso   1.000  C
  C10      1.0000 0.21100  0.29050  0.63970  Biso   1.000  C
  H11      1.0000 0.14200  0.78900  0.87500  Biso   1.000  H
  H12      1.0000 0.85800  0.28900  0.12500  Biso   1.000  H
  H13      1.0000 0.99900  0.78800  0.97900  Biso   1.000  H
  H14      1.0000 0.00100  0.28800  0.02100  Biso   1.000  H
  H15      1.0000 0.34000  0.52700  0.28700  Biso   1.000  H
  H16      1.0000 0.66000  0.02700  0.71300  Biso   1.000  H
  H17      1.0000 0.18000  0.50000  0.16100  Biso   1.000  H
  H18      1.0000 0.82000  0.00000  0.83900  Biso   1.000  H
  O13      1.0000 0.14000  0.90380  0.72270  Biso   1.000  O
  O14      1.0000 0.86000  0.40380  0.27730  Biso   1.000  O
  H19      1.0000 0.09000  0.87300  0.64100  Biso   1.000  H
  H20      1.0000 0.91000  0.37300  0.35900  Biso   1.000  H
  H21      1.0000 0.19000  0.98600  0.71800  Biso   1.000  H
  H22      1.0000 0.81000  0.48600  0.28200  Biso   1.000  H
