data_image0
_cell_length_a       7.767
_cell_length_b       10.1866
_cell_length_c       10.6547
_cell_angle_alpha    95.967
_cell_angle_beta     100.439
_cell_angle_gamma    111.198

_symmetry_space_group_name_H-M    "P 1"
_symmetry_int_tables_number       1

loop_
  _symmetry_equiv_pos_as_xyz
  'x, y, z'

loop_
  _atom_site_label
  _atom_site_occupancy
  _atom_site_fract_x
  _atom_site_fract_y
  _atom_site_fract_z
  _atom_site_thermal_displace_type
  _atom_site_B_iso_or_equiv
  _atom_site_type_symbol
  Hg1      1.0000 0.92940  0.87510  0.14540  Biso   1.000  Hg
  Hg2      1.0000 0.58450  0.50130  0.93260  Biso   1.000  Hg
  Hg3      1.0000 0.26080  0.18670  0.54300  Biso   1.000  Hg
  Cu1      1.0000 0.73160  0.19650  0.04820  Biso   1.000  Cu
  Cl1      1.0000 0.01970  0.03900  0.00160  Biso   1.000  Cl
  Cl2      1.0000 0.00060  0.86540  0.37190  Biso   1.000  Cl
  Cl3      1.0000 0.56230  0.74180  0.05200  Biso   1.000  Cl
  Cl4      1.0000 0.95780  0.64490  0.02300  Biso   1.000  Cl
  Cl5      1.0000 0.49660  0.35810  0.09120  Biso   1.000  Cl
  Cl6      1.0000 0.53060  0.51050  0.70710  Biso   1.000  Cl
  Cl7      1.0000 0.11680  0.17850  0.71410  Biso   1.000  Cl
  Cl8      1.0000 0.41680  0.19790  0.37830  Biso   1.000  Cl
  O1       1.0000 0.76170  0.14670  0.21850  Biso   1.000  O
  O2       1.0000 0.94940  0.21830  0.41570  Biso   1.000  O
  O3       1.0000 0.70900  0.24480  0.87450  Biso   1.000  O
  O4       1.0000 0.57560  0.14400  0.66890  Biso   1.000  O
  N1       1.0000 0.98510  0.35260  0.11770  Biso   1.000  N
  N2       1.0000 0.66860  0.97570  0.48150  Biso   1.000  N
  N3       1.0000 0.49370  0.02750  0.96720  Biso   1.000  N
  N4       1.0000 0.83810  0.38740  0.59860  Biso   1.000  N
  C1       1.0000 0.91550  0.22910  0.30040  Biso   1.000  C
  C2       1.0000 0.06520  0.33970  0.25140  Biso   1.000  C
  C3       1.0000 0.15360  0.48520  0.34670  Biso   1.000  C
  C4       1.0000 0.30230  0.60340  0.30450  Biso   1.000  C
  C5       1.0000 0.40770  0.73330  0.41540  Biso   1.000  C
  C6       1.0000 0.53670  0.85980  0.37000  Biso   1.000  C
  C7       1.0000 0.59880  0.13790  0.78730  Biso   1.000  C
  C8       1.0000 0.50040  0.99500  0.82870  Biso   1.000  C
  C9       1.0000 0.30800  0.89720  0.74020  Biso   1.000  C
  C10      1.0000 0.23970  0.74720  0.76980  Biso   1.000  C
  C11      1.0000 0.06680  0.64080  0.66900  Biso   1.000  C
  C12      1.0000 0.99350  0.49350  0.70390  Biso   1.000  C
  O5       1.0000 0.77830  0.85080  0.70180  Biso   1.000  O
  O6       1.0000 0.72910  0.53440  0.39720  Biso   1.000  O
