data_image0
_cell_length_a       9.823
_cell_length_b       10.348
_cell_length_c       11.015
_cell_angle_alpha    74.27
_cell_angle_beta     67.58
_cell_angle_gamma    76.32

_symmetry_space_group_name_H-M    "P 1"
_symmetry_int_tables_number       1

loop_
  _symmetry_equiv_pos_as_xyz
  'x, y, z'

loop_
  _atom_site_label
  _atom_site_occupancy
  _atom_site_fract_x
  _atom_site_fract_y
  _atom_site_fract_z
  _atom_site_thermal_displace_type
  _atom_site_B_iso_or_equiv
  _atom_site_type_symbol
  Cu1      1.0000 0.00000  0.00000  0.00000  Biso   1.000  Cu
  Cu2      1.0000 0.22103  0.19639  0.96361  Biso   1.000  Cu
  Cu3      1.0000 0.77897  0.80361  0.03639  Biso   1.000  Cu
  O1       1.0000 0.04300  0.18260  0.93378  Biso   1.000  O
  O2       1.0000 0.95700  0.81740  0.06622  Biso   1.000  O
  O3       1.0000 0.19030  0.01860  0.14079  Biso   1.000  O
  O4       1.0000 0.80970  0.98140  0.85921  Biso   1.000  O
  O5       1.0000 0.30910  0.27740  0.68020  Biso   1.000  O
  O6       1.0000 0.69090  0.72260  0.31980  Biso   1.000  O
  O7       1.0000 0.35470  0.09540  0.82697  Biso   1.000  O
  O8       1.0000 0.64530  0.90460  0.17303  Biso   1.000  O
  O9       1.0000 0.94990  0.01630  0.18560  Biso   1.000  O
  O10      1.0000 0.05010  0.98370  0.81440  Biso   1.000  O
  N1       1.0000 0.10010  0.32530  0.09020  Biso   1.000  N
  N2       1.0000 0.89990  0.67470  0.90980  Biso   1.000  N
  N3       1.0000 0.38810  0.24190  0.00290  Biso   1.000  N
  N4       1.0000 0.61190  0.75810  0.99710  Biso   1.000  N
  N5       1.0000 0.15960  0.59470  0.35500  Biso   1.000  N
  N6       1.0000 0.84040  0.40530  0.64500  Biso   1.000  N
  N7       1.0000 0.46700  0.50000  0.26790  Biso   1.000  N
  N8       1.0000 0.53300  0.50000  0.73210  Biso   1.000  N
  C1       1.0000 0.06060  0.01430  0.21930  Biso   1.000  C
  C2       1.0000 0.93940  0.98570  0.78070  Biso   1.000  C
  C3       1.0000 0.02800  0.00740  0.36510  Biso   1.000  C
  C4       1.0000 0.97200  0.99260  0.63490  Biso   1.000  C
  C5       1.0000 0.88780  0.99240  0.45700  Biso   1.000  C
  C6       1.0000 0.11220  0.00760  0.54300  Biso   1.000  C
  C7       1.0000 0.14070  0.01480  0.40770  Biso   1.000  C
  C8       1.0000 0.85930  0.98520  0.59230  Biso   1.000  C
  C9       1.0000 0.36140  0.15820  0.70860  Biso   1.000  C
  C10      1.0000 0.63860  0.84180  0.29140  Biso   1.000  C
  C11      1.0000 0.43590  0.07590  0.60050  Biso   1.000  C
  C12      1.0000 0.56410  0.92410  0.39950  Biso   1.000  C
  C13      1.0000 0.47740  0.93780  0.63190  Biso   1.000  C
  C14      1.0000 0.52260  0.06220  0.36810  Biso   1.000  C
  C15      1.0000 0.45970  0.13860  0.46760  Biso   1.000  C
  C16      1.0000 0.54030  0.86140  0.53240  Biso   1.000  C
  C17      1.0000 0.18140  0.37260  0.13750  Biso   1.000  C
  C18      1.0000 0.81860  0.62740  0.86250  Biso   1.000  C
  C19      1.0000 0.95230  0.36200  0.13220  Biso   1.000  C
  C20      1.0000 0.04770  0.63800  0.86780  Biso   1.000  C
  H1       1.0000 0.89490  0.32860  0.10070  Biso   1.000  H
  H2       1.0000 0.10510  0.67140  0.89930  Biso   1.000  H
  C21      1.0000 0.88220  0.44930  0.22240  Biso   1.000  C
  C22      1.0000 0.11780  0.55070  0.77760  Biso   1.000  C
  H3       1.0000 0.77920  0.47310  0.25060  Biso   1.000  H
  H4       1.0000 0.22080  0.52690  0.74940  Biso   1.000  H
  C23      1.0000 0.96460  0.49970  0.26880  Biso   1.000  C
  C24      1.0000 0.03540  0.50030  0.73120  Biso   1.000  C
  H5       1.0000 0.91860  0.55940  0.32740  Biso   1.000  H
  H6       1.0000 0.08140  0.44060  0.67260  Biso   1.000  H
  C25      1.0000 0.12010  0.46050  0.22750  Biso   1.000  C
  C26      1.0000 0.87990  0.53950  0.77250  Biso   1.000  C
  C27      1.0000 0.21820  0.50670  0.27260  Biso   1.000  C
  C28      1.0000 0.78180  0.49330  0.72740  Biso   1.000  C
  C29      1.0000 0.25320  0.63190  0.39380  Biso   1.000  C
  C30      1.0000 0.74680  0.36810  0.60620  Biso   1.000  C
  H7       1.0000 0.21590  0.69180  0.45250  Biso   1.000  H
  H8       1.0000 0.78410  0.30820  0.54750  Biso   1.000  H
  C31      1.0000 0.40670  0.58520  0.35040  Biso   1.000  C
  C32      1.0000 0.59330  0.41480  0.64960  Biso   1.000  C
  H9       1.0000 0.46750  0.61540  0.38080  Biso   1.000  H
  H10      1.0000 0.53250  0.38460  0.61920  Biso   1.000  H
  C33      1.0000 0.37420  0.45960  0.22730  Biso   1.000  C
  C34      1.0000 0.62580  0.54040  0.77270  Biso   1.000  C
  C35      1.0000 0.43510  0.36990  0.13310  Biso   1.000  C
  C36      1.0000 0.56490  0.63010  0.86690  Biso   1.000  C
  C37      1.0000 0.58840  0.32230  0.08060  Biso   1.000  C
  C38      1.0000 0.41160  0.67770  0.91940  Biso   1.000  C
  H11      1.0000 0.65680  0.35000  0.10420  Biso   1.000  H
  H12      1.0000 0.34320  0.65000  0.89580  Biso   1.000  H
  C39      1.0000 0.63550  0.23430  0.99390  Biso   1.000  C
  C40      1.0000 0.36450  0.76570  0.00610  Biso   1.000  C
  H13      1.0000 0.73620  0.20090  0.95950  Biso   1.000  H
  H14      1.0000 0.26380  0.79910  0.04050  Biso   1.000  H
  C41      1.0000 0.53340  0.19520  0.95770  Biso   1.000  C
  C42      1.0000 0.46660  0.80480  0.04230  Biso   1.000  C
  H15      1.0000 0.56710  0.13450  0.90010  Biso   1.000  H
  H16      1.0000 0.43290  0.86550  0.09990  Biso   1.000  H
  C43      1.0000 0.34090  0.32690  0.09000  Biso   1.000  C
  C44      1.0000 0.65910  0.67310  0.91000  Biso   1.000  C
