data_image0
_cell_length_a       10.2549
_cell_length_b       14.4208
_cell_length_c       21.6022
_cell_angle_alpha    90
_cell_angle_beta     90
_cell_angle_gamma    90

_symmetry_space_group_name_H-M    "P 1"
_symmetry_int_tables_number       1

loop_
  _symmetry_equiv_pos_as_xyz
  'x, y, z'

loop_
  _atom_site_label
  _atom_site_occupancy
  _atom_site_fract_x
  _atom_site_fract_y
  _atom_site_fract_z
  _atom_site_thermal_displace_type
  _atom_site_B_iso_or_equiv
  _atom_site_type_symbol
  Cu1      1.0000 0.75792  0.97016  0.08210  Biso   1.000  Cu
  Cu2      1.0000 0.24208  0.02984  0.58210  Biso   1.000  Cu
  Cu3      1.0000 0.75792  0.02984  0.91790  Biso   1.000  Cu
  Cu4      1.0000 0.24208  0.97016  0.41790  Biso   1.000  Cu
  Cu5      1.0000 0.25792  0.47016  0.08210  Biso   1.000  Cu
  Cu6      1.0000 0.74208  0.52984  0.58210  Biso   1.000  Cu
  Cu7      1.0000 0.25792  0.52984  0.91790  Biso   1.000  Cu
  Cu8      1.0000 0.74208  0.47016  0.41790  Biso   1.000  Cu
  O1       1.0000 0.64070  0.89200  0.03501  Biso   1.000  O
  O2       1.0000 0.35930  0.10800  0.53501  Biso   1.000  O
  O3       1.0000 0.64070  0.10800  0.96499  Biso   1.000  O
  O4       1.0000 0.35930  0.89200  0.46499  Biso   1.000  O
  O5       1.0000 0.14070  0.39200  0.03501  Biso   1.000  O
  O6       1.0000 0.85930  0.60800  0.53501  Biso   1.000  O
  O7       1.0000 0.14070  0.60800  0.96499  Biso   1.000  O
  O8       1.0000 0.85930  0.39200  0.46499  Biso   1.000  O
  O9       1.0000 0.64340  0.93980  0.17060  Biso   1.000  O
  O10      1.0000 0.35660  0.06020  0.67060  Biso   1.000  O
  O11      1.0000 0.64340  0.06020  0.82940  Biso   1.000  O
  O12      1.0000 0.35660  0.93980  0.32940  Biso   1.000  O
  O13      1.0000 0.14340  0.43980  0.17060  Biso   1.000  O
  O14      1.0000 0.85660  0.56020  0.67060  Biso   1.000  O
  O15      1.0000 0.14340  0.56020  0.82940  Biso   1.000  O
  O16      1.0000 0.85660  0.43980  0.32940  Biso   1.000  O
  H1       1.0000 0.66500  0.90600  0.20900  Biso   1.000  H
  H2       1.0000 0.33500  0.09400  0.70900  Biso   1.000  H
  H3       1.0000 0.66500  0.09400  0.79100  Biso   1.000  H
  H4       1.0000 0.33500  0.90600  0.29100  Biso   1.000  H
  H5       1.0000 0.16500  0.40600  0.20900  Biso   1.000  H
  H6       1.0000 0.83500  0.59400  0.70900  Biso   1.000  H
  H7       1.0000 0.16500  0.59400  0.79100  Biso   1.000  H
  H8       1.0000 0.83500  0.40600  0.29100  Biso   1.000  H
  H9       1.0000 0.61300  0.97300  0.18200  Biso   1.000  H
  H10      1.0000 0.38700  0.02700  0.68200  Biso   1.000  H
  H11      1.0000 0.61300  0.02700  0.81800  Biso   1.000  H
  H12      1.0000 0.38700  0.97300  0.31800  Biso   1.000  H
  H13      1.0000 0.11300  0.47300  0.18200  Biso   1.000  H
  H14      1.0000 0.88700  0.52700  0.68200  Biso   1.000  H
  H15      1.0000 0.11300  0.52700  0.81800  Biso   1.000  H
  H16      1.0000 0.88700  0.47300  0.31800  Biso   1.000  H
  O17      1.0000 0.65300  0.91910  0.93303  Biso   1.000  O
  O18      1.0000 0.34700  0.08090  0.43303  Biso   1.000  O
  O19      1.0000 0.65300  0.08090  0.06697  Biso   1.000  O
  O20      1.0000 0.34700  0.91910  0.56697  Biso   1.000  O
  O21      1.0000 0.15300  0.41910  0.93303  Biso   1.000  O
  O22      1.0000 0.84700  0.58090  0.43303  Biso   1.000  O
  O23      1.0000 0.15300  0.58090  0.06697  Biso   1.000  O
  O24      1.0000 0.84700  0.41910  0.56697  Biso   1.000  O
  O25      1.0000 0.24170  0.32490  0.26160  Biso   1.000  O
  O26      1.0000 0.75830  0.67510  0.76160  Biso   1.000  O
  O27      1.0000 0.24170  0.67510  0.73840  Biso   1.000  O
  O28      1.0000 0.75830  0.32490  0.23840  Biso   1.000  O
  O29      1.0000 0.74170  0.82490  0.26160  Biso   1.000  O
  O30      1.0000 0.25830  0.17510  0.76160  Biso   1.000  O
  O31      1.0000 0.74170  0.17510  0.73840  Biso   1.000  O
  O32      1.0000 0.25830  0.82490  0.23840  Biso   1.000  O
  H17      1.0000 0.29100  0.28900  0.26600  Biso   1.000  H
  H18      1.0000 0.70900  0.71100  0.76600  Biso   1.000  H
  H19      1.0000 0.29100  0.71100  0.73400  Biso   1.000  H
  H20      1.0000 0.70900  0.28900  0.23400  Biso   1.000  H
  H21      1.0000 0.79100  0.78900  0.26600  Biso   1.000  H
  H22      1.0000 0.20900  0.21100  0.76600  Biso   1.000  H
  H23      1.0000 0.79100  0.21100  0.73400  Biso   1.000  H
  H24      1.0000 0.20900  0.78900  0.23400  Biso   1.000  H
  H25      1.0000 0.20700  0.32900  0.28500  Biso   1.000  H
  H26      1.0000 0.79300  0.67100  0.78500  Biso   1.000  H
  H27      1.0000 0.20700  0.67100  0.71500  Biso   1.000  H
  H28      1.0000 0.79300  0.32900  0.21500  Biso   1.000  H
  H29      1.0000 0.70700  0.82900  0.28500  Biso   1.000  H
  H30      1.0000 0.29300  0.17100  0.78500  Biso   1.000  H
  H31      1.0000 0.70700  0.17100  0.71500  Biso   1.000  H
  H32      1.0000 0.29300  0.82900  0.21500  Biso   1.000  H
  O33      1.0000 0.71050  0.49870  0.04880  Biso   1.000  O
  O34      1.0000 0.28950  0.50130  0.54880  Biso   1.000  O
  O35      1.0000 0.71050  0.50130  0.95120  Biso   1.000  O
  O36      1.0000 0.28950  0.49870  0.45120  Biso   1.000  O
  O37      1.0000 0.21050  0.99870  0.04880  Biso   1.000  O
  O38      1.0000 0.78950  0.00130  0.54880  Biso   1.000  O
  O39      1.0000 0.21050  0.00130  0.95120  Biso   1.000  O
  O40      1.0000 0.78950  0.99870  0.45120  Biso   1.000  O
  O41      1.0000 0.87330  0.38660  0.13000  Biso   1.000  O
  O42      1.0000 0.12670  0.61340  0.63000  Biso   1.000  O
  O43      1.0000 0.87330  0.61340  0.87000  Biso   1.000  O
  O44      1.0000 0.12670  0.38660  0.37000  Biso   1.000  O
  O45      1.0000 0.37330  0.88660  0.13000  Biso   1.000  O
  O46      1.0000 0.62670  0.11340  0.63000  Biso   1.000  O
  O47      1.0000 0.37330  0.11340  0.87000  Biso   1.000  O
  O48      1.0000 0.62670  0.88660  0.37000  Biso   1.000  O
  H33      1.0000 0.85500  0.41200  0.11400  Biso   1.000  H
  H34      1.0000 0.14500  0.58800  0.61400  Biso   1.000  H
  H35      1.0000 0.85500  0.58800  0.88600  Biso   1.000  H
  H36      1.0000 0.14500  0.41200  0.38600  Biso   1.000  H
  H37      1.0000 0.35500  0.91200  0.11400  Biso   1.000  H
  H38      1.0000 0.64500  0.08800  0.61400  Biso   1.000  H
  H39      1.0000 0.35500  0.08800  0.88600  Biso   1.000  H
  H40      1.0000 0.64500  0.91200  0.38600  Biso   1.000  H
  H41      1.0000 0.93500  0.41100  0.13500  Biso   1.000  H
  H42      1.0000 0.06500  0.58900  0.63500  Biso   1.000  H
  H43      1.0000 0.93500  0.58900  0.86500  Biso   1.000  H
  H44      1.0000 0.06500  0.41100  0.36500  Biso   1.000  H
  H45      1.0000 0.43500  0.91100  0.13500  Biso   1.000  H
  H46      1.0000 0.56500  0.08900  0.63500  Biso   1.000  H
  H47      1.0000 0.43500  0.08900  0.86500  Biso   1.000  H
  H48      1.0000 0.56500  0.91100  0.36500  Biso   1.000  H
  O49      1.0000 0.88750  0.50000  0.00000  Biso   1.000  O
  O50      1.0000 0.11250  0.50000  0.50000  Biso   1.000  O
  O51      1.0000 0.38750  0.00000  0.00000  Biso   1.000  O
  O52      1.0000 0.61250  0.00000  0.50000  Biso   1.000  O
  O53      1.0000 0.60080  0.89370  0.75780  Biso   1.000  O
  O54      1.0000 0.39920  0.10630  0.25780  Biso   1.000  O
  O55      1.0000 0.60080  0.10630  0.24220  Biso   1.000  O
  O56      1.0000 0.39920  0.89370  0.74220  Biso   1.000  O
  O57      1.0000 0.10080  0.39370  0.75780  Biso   1.000  O
  O58      1.0000 0.89920  0.60630  0.25780  Biso   1.000  O
  O59      1.0000 0.10080  0.60630  0.24220  Biso   1.000  O
  O60      1.0000 0.89920  0.39370  0.74220  Biso   1.000  O
  O61      1.0000 0.50000  0.77080  0.75000  Biso   1.000  O
  O62      1.0000 0.50000  0.22920  0.25000  Biso   1.000  O
  O63      1.0000 0.00000  0.27080  0.75000  Biso   1.000  O
  O64      1.0000 0.00000  0.72920  0.25000  Biso   1.000  O
  N1       1.0000 0.39690  0.45650  0.87457  Biso   1.000  N
  N2       1.0000 0.60310  0.54350  0.37457  Biso   1.000  N
  N3       1.0000 0.39690  0.54350  0.12543  Biso   1.000  N
  N4       1.0000 0.60310  0.45650  0.62543  Biso   1.000  N
  N5       1.0000 0.89690  0.95650  0.87457  Biso   1.000  N
  N6       1.0000 0.10310  0.04350  0.37457  Biso   1.000  N
  N7       1.0000 0.89690  0.04350  0.12543  Biso   1.000  N
  N8       1.0000 0.10310  0.95650  0.62543  Biso   1.000  N
  N9       1.0000 0.39370  0.63510  0.91076  Biso   1.000  N
  N10      1.0000 0.60630  0.36490  0.41076  Biso   1.000  N
  N11      1.0000 0.39370  0.36490  0.08924  Biso   1.000  N
  N12      1.0000 0.60630  0.63510  0.58924  Biso   1.000  N
  N13      1.0000 0.89370  0.13510  0.91076  Biso   1.000  N
  N14      1.0000 0.10630  0.86490  0.41076  Biso   1.000  N
  N15      1.0000 0.89370  0.86490  0.08924  Biso   1.000  N
  N16      1.0000 0.10630  0.13510  0.58924  Biso   1.000  N
  N17      1.0000 0.76900  0.50000  0.00000  Biso   1.000  N
  N18      1.0000 0.23100  0.50000  0.50000  Biso   1.000  N
  N19      1.0000 0.26900  0.00000  0.00000  Biso   1.000  N
  N20      1.0000 0.73100  0.00000  0.50000  Biso   1.000  N
  N21      1.0000 0.50000  0.85410  0.75000  Biso   1.000  N
  N22      1.0000 0.50000  0.14590  0.25000  Biso   1.000  N
  N23      1.0000 0.00000  0.35410  0.75000  Biso   1.000  N
  N24      1.0000 0.00000  0.64590  0.25000  Biso   1.000  N
  C1       1.0000 0.39950  0.36370  0.86650  Biso   1.000  C
  C2       1.0000 0.60050  0.63630  0.36650  Biso   1.000  C
  C3       1.0000 0.39950  0.63630  0.13350  Biso   1.000  C
  C4       1.0000 0.60050  0.36370  0.63350  Biso   1.000  C
  C5       1.0000 0.89950  0.86370  0.86650  Biso   1.000  C
  C6       1.0000 0.10050  0.13630  0.36650  Biso   1.000  C
  C7       1.0000 0.89950  0.13630  0.13350  Biso   1.000  C
  C8       1.0000 0.10050  0.86370  0.63350  Biso   1.000  C
  H49      1.0000 0.33070  0.32820  0.88150  Biso   1.000  H
  H50      1.0000 0.66930  0.67180  0.38150  Biso   1.000  H
  H51      1.0000 0.33070  0.67180  0.11850  Biso   1.000  H
  H52      1.0000 0.66930  0.32820  0.61850  Biso   1.000  H
  H53      1.0000 0.83070  0.82820  0.88150  Biso   1.000  H
  H54      1.0000 0.16930  0.17180  0.38150  Biso   1.000  H
  H55      1.0000 0.83070  0.17180  0.11850  Biso   1.000  H
  H56      1.0000 0.16930  0.82820  0.61850  Biso   1.000  H
  C9       1.0000 0.50130  0.31970  0.83650  Biso   1.000  C
  C10      1.0000 0.49870  0.68030  0.33650  Biso   1.000  C
  C11      1.0000 0.50130  0.68030  0.16350  Biso   1.000  C
  C12      1.0000 0.49870  0.31970  0.66350  Biso   1.000  C
  C13      1.0000 0.00130  0.81970  0.83650  Biso   1.000  C
  C14      1.0000 0.99870  0.18030  0.33650  Biso   1.000  C
  C15      1.0000 0.00130  0.18030  0.16350  Biso   1.000  C
  C16      1.0000 0.99870  0.81970  0.66350  Biso   1.000  C
  H57      1.0000 0.50170  0.25550  0.83200  Biso   1.000  H
  H58      1.0000 0.49830  0.74450  0.33200  Biso   1.000  H
  H59      1.0000 0.50170  0.74450  0.16800  Biso   1.000  H
  H60      1.0000 0.49830  0.25550  0.66800  Biso   1.000  H
  H61      1.0000 0.00170  0.75550  0.83200  Biso   1.000  H
  H62      1.0000 0.99830  0.24450  0.33200  Biso   1.000  H
  H63      1.0000 0.00170  0.24450  0.16800  Biso   1.000  H
  H64      1.0000 0.99830  0.75550  0.66800  Biso   1.000  H
  C17      1.0000 0.60240  0.37280  0.81330  Biso   1.000  C
  C18      1.0000 0.39760  0.62720  0.31330  Biso   1.000  C
  C19      1.0000 0.60240  0.62720  0.18670  Biso   1.000  C
  C20      1.0000 0.39760  0.37280  0.68670  Biso   1.000  C
  C21      1.0000 0.10240  0.87280  0.81330  Biso   1.000  C
  C22      1.0000 0.89760  0.12720  0.31330  Biso   1.000  C
  C23      1.0000 0.10240  0.12720  0.18670  Biso   1.000  C
  C24      1.0000 0.89760  0.87280  0.68670  Biso   1.000  C
  H65      1.0000 0.67160  0.34480  0.79260  Biso   1.000  H
  H66      1.0000 0.32840  0.65520  0.29260  Biso   1.000  H
  H67      1.0000 0.67160  0.65520  0.20740  Biso   1.000  H
  H68      1.0000 0.32840  0.34480  0.70740  Biso   1.000  H
  H69      1.0000 0.17160  0.84480  0.79260  Biso   1.000  H
  H70      1.0000 0.82840  0.15520  0.29260  Biso   1.000  H
  H71      1.0000 0.17160  0.15520  0.20740  Biso   1.000  H
  H72      1.0000 0.82840  0.84480  0.70740  Biso   1.000  H
  C25      1.0000 0.59930  0.46750  0.82110  Biso   1.000  C
  C26      1.0000 0.40070  0.53250  0.32110  Biso   1.000  C
  C27      1.0000 0.59930  0.53250  0.17890  Biso   1.000  C
  C28      1.0000 0.40070  0.46750  0.67890  Biso   1.000  C
  C29      1.0000 0.09930  0.96750  0.82110  Biso   1.000  C
  C30      1.0000 0.90070  0.03250  0.32110  Biso   1.000  C
  C31      1.0000 0.09930  0.03250  0.17890  Biso   1.000  C
  C32      1.0000 0.90070  0.96750  0.67890  Biso   1.000  C
  H73      1.0000 0.66660  0.50430  0.80590  Biso   1.000  H
  H74      1.0000 0.33340  0.49570  0.30590  Biso   1.000  H
  H75      1.0000 0.66660  0.49570  0.19410  Biso   1.000  H
  H76      1.0000 0.33340  0.50430  0.69410  Biso   1.000  H
  H77      1.0000 0.16660  0.00430  0.80590  Biso   1.000  H
  H78      1.0000 0.83340  0.99570  0.30590  Biso   1.000  H
  H79      1.0000 0.16660  0.99570  0.19410  Biso   1.000  H
  H80      1.0000 0.83340  0.00430  0.69410  Biso   1.000  H
  C33      1.0000 0.49550  0.50730  0.85170  Biso   1.000  C
  C34      1.0000 0.50450  0.49270  0.35170  Biso   1.000  C
  C35      1.0000 0.49550  0.49270  0.14830  Biso   1.000  C
  C36      1.0000 0.50450  0.50730  0.64830  Biso   1.000  C
  C37      1.0000 0.99550  0.00730  0.85170  Biso   1.000  C
  C38      1.0000 0.00450  0.99270  0.35170  Biso   1.000  C
  C39      1.0000 0.99550  0.99270  0.14830  Biso   1.000  C
  C40      1.0000 0.00450  0.00730  0.64830  Biso   1.000  C
  C41      1.0000 0.48390  0.61040  0.85980  Biso   1.000  C
  C42      1.0000 0.51610  0.38960  0.35980  Biso   1.000  C
  C43      1.0000 0.48390  0.38960  0.14020  Biso   1.000  C
  C44      1.0000 0.51610  0.61040  0.64020  Biso   1.000  C
  C45      1.0000 0.98390  0.11040  0.85980  Biso   1.000  C
  C46      1.0000 0.01610  0.88960  0.35980  Biso   1.000  C
  C47      1.0000 0.98390  0.88960  0.14020  Biso   1.000  C
  C48      1.0000 0.01610  0.11040  0.64020  Biso   1.000  C
  H81      1.0000 0.56940  0.63610  0.86840  Biso   1.000  H
  H82      1.0000 0.43060  0.36390  0.36840  Biso   1.000  H
  H83      1.0000 0.56940  0.36390  0.13160  Biso   1.000  H
  H84      1.0000 0.43060  0.63610  0.63160  Biso   1.000  H
  H85      1.0000 0.06940  0.13610  0.86840  Biso   1.000  H
  H86      1.0000 0.93060  0.86390  0.36840  Biso   1.000  H
  H87      1.0000 0.06940  0.86390  0.13160  Biso   1.000  H
  H88      1.0000 0.93060  0.13610  0.63160  Biso   1.000  H
  H89      1.0000 0.45270  0.63780  0.82150  Biso   1.000  H
  H90      1.0000 0.54730  0.36220  0.32150  Biso   1.000  H
  H91      1.0000 0.45270  0.36220  0.17850  Biso   1.000  H
  H92      1.0000 0.54730  0.63780  0.67850  Biso   1.000  H
  H93      1.0000 0.95270  0.13780  0.82150  Biso   1.000  H
  H94      1.0000 0.04730  0.86220  0.32150  Biso   1.000  H
  H95      1.0000 0.95270  0.86220  0.17850  Biso   1.000  H
  H96      1.0000 0.04730  0.13780  0.67850  Biso   1.000  H
  C49      1.0000 0.46060  0.63320  0.97160  Biso   1.000  C
  C50      1.0000 0.53940  0.36680  0.47160  Biso   1.000  C
  C51      1.0000 0.46060  0.36680  0.02840  Biso   1.000  C
  C52      1.0000 0.53940  0.63320  0.52840  Biso   1.000  C
  C53      1.0000 0.96060  0.13320  0.97160  Biso   1.000  C
  C54      1.0000 0.03940  0.86680  0.47160  Biso   1.000  C
  C55      1.0000 0.96060  0.86680  0.02840  Biso   1.000  C
  C56      1.0000 0.03940  0.13320  0.52840  Biso   1.000  C
  H97      1.0000 0.50360  0.57370  0.97620  Biso   1.000  H
  H98      1.0000 0.49640  0.42630  0.47620  Biso   1.000  H
  H99      1.0000 0.50360  0.42630  0.02380  Biso   1.000  H
  H100     1.0000 0.49640  0.57370  0.52380  Biso   1.000  H
  H101     1.0000 0.00360  0.07370  0.97620  Biso   1.000  H
  H102     1.0000 0.99640  0.92630  0.47620  Biso   1.000  H
  H103     1.0000 0.00360  0.92630  0.02380  Biso   1.000  H
  H104     1.0000 0.99640  0.07370  0.52380  Biso   1.000  H
  H105     1.0000 0.39520  0.63780  0.00390  Biso   1.000  H
  H106     1.0000 0.60480  0.36220  0.50390  Biso   1.000  H
  H107     1.0000 0.39520  0.36220  0.99610  Biso   1.000  H
  H108     1.0000 0.60480  0.63780  0.49610  Biso   1.000  H
  H109     1.0000 0.89520  0.13780  0.00390  Biso   1.000  H
  H110     1.0000 0.10480  0.86220  0.50390  Biso   1.000  H
  H111     1.0000 0.89520  0.86220  0.99610  Biso   1.000  H
  H112     1.0000 0.10480  0.13780  0.49610  Biso   1.000  H
  C57      1.0000 0.56200  0.71010  0.98160  Biso   1.000  C
  C58      1.0000 0.43800  0.28990  0.48160  Biso   1.000  C
  C59      1.0000 0.56200  0.28990  0.01840  Biso   1.000  C
  C60      1.0000 0.43800  0.71010  0.51840  Biso   1.000  C
  C61      1.0000 0.06200  0.21010  0.98160  Biso   1.000  C
  C62      1.0000 0.93800  0.78990  0.48160  Biso   1.000  C
  C63      1.0000 0.06200  0.78990  0.01840  Biso   1.000  C
  C64      1.0000 0.93800  0.21010  0.51840  Biso   1.000  C
  H113     1.0000 0.59450  0.70720  0.02380  Biso   1.000  H
  H114     1.0000 0.40550  0.29280  0.52380  Biso   1.000  H
  H115     1.0000 0.59450  0.29280  0.97620  Biso   1.000  H
  H116     1.0000 0.40550  0.70720  0.47620  Biso   1.000  H
  H117     1.0000 0.09450  0.20720  0.02380  Biso   1.000  H
  H118     1.0000 0.90550  0.79280  0.52380  Biso   1.000  H
  H119     1.0000 0.09450  0.79280  0.97620  Biso   1.000  H
  H120     1.0000 0.90550  0.20720  0.47620  Biso   1.000  H
  H121     1.0000 0.63500  0.70070  0.95380  Biso   1.000  H
  H122     1.0000 0.36500  0.29930  0.45380  Biso   1.000  H
  H123     1.0000 0.63500  0.29930  0.04620  Biso   1.000  H
  H124     1.0000 0.36500  0.70070  0.54620  Biso   1.000  H
  H125     1.0000 0.13500  0.20070  0.95380  Biso   1.000  H
  H126     1.0000 0.86500  0.79930  0.45380  Biso   1.000  H
  H127     1.0000 0.13500  0.79930  0.04620  Biso   1.000  H
  H128     1.0000 0.86500  0.20070  0.54620  Biso   1.000  H
  C65      1.0000 0.50160  0.80570  0.96980  Biso   1.000  C
  C66      1.0000 0.49840  0.19430  0.46980  Biso   1.000  C
  C67      1.0000 0.50160  0.19430  0.03020  Biso   1.000  C
  C68      1.0000 0.49840  0.80570  0.53020  Biso   1.000  C
  C69      1.0000 0.00160  0.30570  0.96980  Biso   1.000  C
  C70      1.0000 0.99840  0.69430  0.46980  Biso   1.000  C
  C71      1.0000 0.00160  0.69430  0.03020  Biso   1.000  C
  C72      1.0000 0.99840  0.30570  0.53020  Biso   1.000  C
  H129     1.0000 0.43310  0.81560  0.00070  Biso   1.000  H
  H130     1.0000 0.56690  0.18440  0.50070  Biso   1.000  H
  H131     1.0000 0.43310  0.18440  0.99930  Biso   1.000  H
  H132     1.0000 0.56690  0.81560  0.49930  Biso   1.000  H
  H133     1.0000 0.93310  0.31560  0.00070  Biso   1.000  H
  H134     1.0000 0.06690  0.68440  0.50070  Biso   1.000  H
  H135     1.0000 0.93310  0.68440  0.99930  Biso   1.000  H
  H136     1.0000 0.06690  0.31560  0.49930  Biso   1.000  H
  C73      1.0000 0.43900  0.80820  0.90660  Biso   1.000  C
  C74      1.0000 0.56100  0.19180  0.40660  Biso   1.000  C
  C75      1.0000 0.43900  0.19180  0.09340  Biso   1.000  C
  C76      1.0000 0.56100  0.80820  0.59340  Biso   1.000  C
  C77      1.0000 0.93900  0.30820  0.90660  Biso   1.000  C
  C78      1.0000 0.06100  0.69180  0.40660  Biso   1.000  C
  C79      1.0000 0.93900  0.69180  0.09340  Biso   1.000  C
  C80      1.0000 0.06100  0.30820  0.59340  Biso   1.000  C
  H137     1.0000 0.50560  0.80140  0.87510  Biso   1.000  H
  H138     1.0000 0.49440  0.19860  0.37510  Biso   1.000  H
  H139     1.0000 0.50560  0.19860  0.12490  Biso   1.000  H
  H140     1.0000 0.49440  0.80140  0.62490  Biso   1.000  H
  H141     1.0000 0.00560  0.30140  0.87510  Biso   1.000  H
  H142     1.0000 0.99440  0.69860  0.37510  Biso   1.000  H
  H143     1.0000 0.00560  0.69860  0.12490  Biso   1.000  H
  H144     1.0000 0.99440  0.30140  0.62490  Biso   1.000  H
  H145     1.0000 0.39670  0.86770  0.90050  Biso   1.000  H
  H146     1.0000 0.60330  0.13230  0.40050  Biso   1.000  H
  H147     1.0000 0.39670  0.13230  0.09950  Biso   1.000  H
  H148     1.0000 0.60330  0.86770  0.59950  Biso   1.000  H
  H149     1.0000 0.89670  0.36770  0.90050  Biso   1.000  H
  H150     1.0000 0.10330  0.63230  0.40050  Biso   1.000  H
  H151     1.0000 0.89670  0.63230  0.09950  Biso   1.000  H
  H152     1.0000 0.10330  0.36770  0.59950  Biso   1.000  H
  C81      1.0000 0.33810  0.73040  0.89980  Biso   1.000  C
  C82      1.0000 0.66190  0.26960  0.39980  Biso   1.000  C
  C83      1.0000 0.33810  0.26960  0.10020  Biso   1.000  C
  C84      1.0000 0.66190  0.73040  0.60020  Biso   1.000  C
  C85      1.0000 0.83810  0.23040  0.89980  Biso   1.000  C
  C86      1.0000 0.16190  0.76960  0.39980  Biso   1.000  C
  C87      1.0000 0.83810  0.76960  0.10020  Biso   1.000  C
  C88      1.0000 0.16190  0.23040  0.60020  Biso   1.000  C
  H153     1.0000 0.26770  0.74100  0.92890  Biso   1.000  H
  H154     1.0000 0.73230  0.25900  0.42890  Biso   1.000  H
  H155     1.0000 0.26770  0.25900  0.07110  Biso   1.000  H
  H156     1.0000 0.73230  0.74100  0.57110  Biso   1.000  H
  H157     1.0000 0.76770  0.24100  0.92890  Biso   1.000  H
  H158     1.0000 0.23230  0.75900  0.42890  Biso   1.000  H
  H159     1.0000 0.76770  0.75900  0.07110  Biso   1.000  H
  H160     1.0000 0.23230  0.24100  0.57110  Biso   1.000  H
  H161     1.0000 0.30150  0.73270  0.85840  Biso   1.000  H
  H162     1.0000 0.69850  0.26730  0.35840  Biso   1.000  H
  H163     1.0000 0.30150  0.26730  0.14160  Biso   1.000  H
  H164     1.0000 0.69850  0.73270  0.64160  Biso   1.000  H
  H165     1.0000 0.80150  0.23270  0.85840  Biso   1.000  H
  H166     1.0000 0.19850  0.76730  0.35840  Biso   1.000  H
  H167     1.0000 0.80150  0.76730  0.14160  Biso   1.000  H
  H168     1.0000 0.19850  0.23270  0.64160  Biso   1.000  H
  C89      1.0000 0.60670  0.88030  0.97960  Biso   1.000  C
  C90      1.0000 0.39330  0.11970  0.47960  Biso   1.000  C
  C91      1.0000 0.60670  0.11970  0.02040  Biso   1.000  C
  C92      1.0000 0.39330  0.88030  0.52040  Biso   1.000  C
  C93      1.0000 0.10670  0.38030  0.97960  Biso   1.000  C
  C94      1.0000 0.89330  0.61970  0.47960  Biso   1.000  C
  C95      1.0000 0.10670  0.61970  0.02040  Biso   1.000  C
  C96      1.0000 0.89330  0.38030  0.52040  Biso   1.000  C
