data_image0
_cell_length_a       10.635
_cell_length_b       16.717
_cell_length_c       18.705
_cell_angle_alpha    83.78
_cell_angle_beta     84.43
_cell_angle_gamma    79.59

_symmetry_space_group_name_H-M    "P 1"
_symmetry_int_tables_number       1

loop_
  _symmetry_equiv_pos_as_xyz
  'x, y, z'

loop_
  _atom_site_label
  _atom_site_occupancy
  _atom_site_fract_x
  _atom_site_fract_y
  _atom_site_fract_z
  _atom_site_thermal_displace_type
  _atom_site_B_iso_or_equiv
  _atom_site_type_symbol
  Cu1      1.0000 0.12157  0.46874  0.49134  Biso   1.000  Cu
  Cu2      1.0000 0.87843  0.53126  0.50866  Biso   1.000  Cu
  Cu3      1.0000 0.38090  0.52954  0.01820  Biso   1.000  Cu
  Cu4      1.0000 0.61910  0.47046  0.98180  Biso   1.000  Cu
  O1       1.0000 0.83590  0.19040  0.22970  Biso   1.000  O
  O2       1.0000 0.16410  0.80960  0.77030  Biso   1.000  O
  O3       1.0000 0.69940  0.94410  0.03090  Biso   1.000  O
  O4       1.0000 0.30060  0.05590  0.96910  Biso   1.000  O
  O5       1.0000 0.95370  0.23020  0.88880  Biso   1.000  O
  O6       1.0000 0.04630  0.76980  0.11120  Biso   1.000  O
  O7       1.0000 0.06100  0.38980  0.44010  Biso   1.000  O
  O8       1.0000 0.93900  0.61020  0.55990  Biso   1.000  O
  O9       1.0000 0.84690  0.44290  0.45470  Biso   1.000  O
  O10      1.0000 0.15310  0.55710  0.54530  Biso   1.000  O
  O11      1.0000 0.43080  0.63690  0.01630  Biso   1.000  O
  O12      1.0000 0.56920  0.36310  0.98370  Biso   1.000  O
  O13      1.0000 0.63820  0.58490  0.98430  Biso   1.000  O
  O14      1.0000 0.36180  0.41510  0.01570  Biso   1.000  O
  O15      1.0000 0.09810  0.40590  0.58290  Biso   1.000  O
  O16      1.0000 0.90190  0.59410  0.41710  Biso   1.000  O
  O17      1.0000 0.88560  0.45940  0.59840  Biso   1.000  O
  O18      1.0000 0.11440  0.54060  0.40160  Biso   1.000  O
  O19      1.0000 0.17900  0.55430  0.05390  Biso   1.000  O
  O20      1.0000 0.82100  0.44570  0.94610  Biso   1.000  O
  O21      1.0000 0.43460  0.50090  0.11650  Biso   1.000  O
  O22      1.0000 0.56540  0.49910  0.88350  Biso   1.000  O
  O23      1.0000 0.64180  0.44880  0.08270  Biso   1.000  O
  O24      1.0000 0.35820  0.55120  0.91730  Biso   1.000  O
  O25      1.0000 0.33440  0.41760  0.46700  Biso   1.000  O
  O26      1.0000 0.66560  0.58240  0.53300  Biso   1.000  O
  N1       1.0000 0.02330  0.50050  0.12920  Biso   1.000  N
  N2       1.0000 0.97670  0.49950  0.87080  Biso   1.000  N
  C1       1.0000 0.89220  0.12880  0.11910  Biso   1.000  C
  C2       1.0000 0.10780  0.87120  0.88090  Biso   1.000  C
  C3       1.0000 0.86910  0.04830  0.11300  Biso   1.000  C
  C4       1.0000 0.13090  0.95170  0.88700  Biso   1.000  C
  C5       1.0000 0.84250  0.03220  0.05030  Biso   1.000  C
  C6       1.0000 0.15750  0.96780  0.94970  Biso   1.000  C
  C7       1.0000 0.83550  0.09270  0.98690  Biso   1.000  C
  C8       1.0000 0.16450  0.90730  0.01310  Biso   1.000  C
  C9       1.0000 0.84920  0.17410  0.99830  Biso   1.000  C
  C10      1.0000 0.15080  0.82590  0.00170  Biso   1.000  C
  C11      1.0000 0.88120  0.18940  0.05820  Biso   1.000  C
  C12      1.0000 0.11880  0.81060  0.94180  Biso   1.000  C
  C13      1.0000 0.93770  0.14640  0.18560  Biso   1.000  C
  C14      1.0000 0.06230  0.85360  0.81440  Biso   1.000  C
  H1       1.0000 0.97290  0.09560  0.21230  Biso   1.000  H
  H2       1.0000 0.02710  0.90440  0.78770  Biso   1.000  H
  H3       1.0000 0.00560  0.17850  0.17410  Biso   1.000  H
  H4       1.0000 0.99440  0.82150  0.82590  Biso   1.000  H
  C15      1.0000 0.86000  0.98720  0.17660  Biso   1.000  C
  C16      1.0000 0.14000  0.01280  0.82340  Biso   1.000  C
  H5       1.0000 0.84470  0.93720  0.16110  Biso   1.000  H
  H6       1.0000 0.15530  0.06280  0.83890  Biso   1.000  H
  H7       1.0000 0.79050  0.00790  0.21010  Biso   1.000  H
  H8       1.0000 0.20950  0.99210  0.78990  Biso   1.000  H
  H9       1.0000 0.93880  0.97720  0.19970  Biso   1.000  H
  H10      1.0000 0.06120  0.02280  0.80030  Biso   1.000  H
  C17      1.0000 0.83360  0.94550  0.03250  Biso   1.000  C
  C18      1.0000 0.16640  0.05450  0.96750  Biso   1.000  C
  H11      1.0000 0.87880  0.93440  0.98610  Biso   1.000  H
  H12      1.0000 0.12120  0.06560  0.01390  Biso   1.000  H
  H13      1.0000 0.87070  0.90490  0.06910  Biso   1.000  H
  H14      1.0000 0.12930  0.09510  0.93090  Biso   1.000  H
  C19      1.0000 0.80600  0.07480  0.91630  Biso   1.000  C
  C20      1.0000 0.19400  0.92520  0.08370  Biso   1.000  C
  H15      1.0000 0.80560  0.12260  0.88280  Biso   1.000  H
  H16      1.0000 0.19440  0.87740  0.11720  Biso   1.000  H
  H17      1.0000 0.72320  0.05870  0.92030  Biso   1.000  H
  H18      1.0000 0.27680  0.94130  0.07970  Biso   1.000  H
  H19      1.0000 0.86980  0.03120  0.89930  Biso   1.000  H
  H20      1.0000 0.13020  0.96880  0.10070  Biso   1.000  H
  C21      1.0000 0.83720  0.23490  0.93200  Biso   1.000  C
  C22      1.0000 0.16280  0.76510  0.06800  Biso   1.000  C
  H21      1.0000 0.77110  0.22400  0.90400  Biso   1.000  H
  H22      1.0000 0.22890  0.77600  0.09600  Biso   1.000  H
  H23      1.0000 0.81160  0.28970  0.94690  Biso   1.000  H
  H24      1.0000 0.18840  0.71030  0.05310  Biso   1.000  H
  C23      1.0000 0.90960  0.27520  0.07290  Biso   1.000  C
  C24      1.0000 0.09040  0.72480  0.92710  Biso   1.000  C
  H25      1.0000 0.90060  0.31190  0.02970  Biso   1.000  H
  H26      1.0000 0.09940  0.68810  0.97030  Biso   1.000  H
  H27      1.0000 0.99540  0.26920  0.08700  Biso   1.000  H
  H28      1.0000 0.00460  0.73080  0.91300  Biso   1.000  H
  H29      1.0000 0.85000  0.29700  0.11080  Biso   1.000  H
  H30      1.0000 0.15000  0.70300  0.88920  Biso   1.000  H
  C25      1.0000 0.86800  0.23400  0.28430  Biso   1.000  C
  C26      1.0000 0.13200  0.76600  0.71570  Biso   1.000  C
  C27      1.0000 0.99180  0.22750  0.30110  Biso   1.000  C
  C28      1.0000 0.00820  0.77250  0.69890  Biso   1.000  C
  H31      1.0000 0.05950  0.19090  0.28150  Biso   1.000  H
  H32      1.0000 0.94050  0.80910  0.71850  Biso   1.000  H
  C29      1.0000 0.00720  0.28420  0.35360  Biso   1.000  C
  C30      1.0000 0.99280  0.71580  0.64640  Biso   1.000  C
  H33      1.0000 0.08890  0.28260  0.36820  Biso   1.000  H
  H34      1.0000 0.91110  0.71740  0.63180  Biso   1.000  H
  C31      1.0000 0.91210  0.33710  0.38130  Biso   1.000  C
  C32      1.0000 0.08790  0.66290  0.61870  Biso   1.000  C
  C33      1.0000 0.79240  0.33930  0.36060  Biso   1.000  C
  C34      1.0000 0.20760  0.66070  0.63940  Biso   1.000  C
  H35      1.0000 0.72570  0.37790  0.37850  Biso   1.000  H
  H36      1.0000 0.27430  0.62210  0.62150  Biso   1.000  H
  C35      1.0000 0.76590  0.28780  0.31500  Biso   1.000  C
  C36      1.0000 0.23410  0.71220  0.68500  Biso   1.000  C
  H37      1.0000 0.68210  0.28830  0.30450  Biso   1.000  H
  H38      1.0000 0.31790  0.71170  0.69550  Biso   1.000  H
  C37      1.0000 0.94570  0.39470  0.42910  Biso   1.000  C
  C38      1.0000 0.05430  0.60530  0.57090  Biso   1.000  C
  C39      1.0000 0.66980  0.86580  0.01780  Biso   1.000  C
  C40      1.0000 0.33020  0.13420  0.98220  Biso   1.000  C
  C41      1.0000 0.53970  0.86270  0.02350  Biso   1.000  C
  C42      1.0000 0.46030  0.13730  0.97650  Biso   1.000  C
  H39      1.0000 0.47980  0.90910  0.03250  Biso   1.000  H
  H40      1.0000 0.52020  0.09090  0.96750  Biso   1.000  H
  C43      1.0000 0.50010  0.79060  0.01550  Biso   1.000  C
  C44      1.0000 0.49990  0.20940  0.98450  Biso   1.000  C
  H41      1.0000 0.41360  0.78830  0.01410  Biso   1.000  H
  H42      1.0000 0.58640  0.21170  0.98590  Biso   1.000  H
  C45      1.0000 0.59310  0.72150  0.00950  Biso   1.000  C
  C46      1.0000 0.40690  0.27850  0.99050  Biso   1.000  C
  C47      1.0000 0.71680  0.72510  0.00670  Biso   1.000  C
  C48      1.0000 0.28320  0.27490  0.99330  Biso   1.000  C
  H43      1.0000 0.77620  0.67800  0.99920  Biso   1.000  H
  H44      1.0000 0.22380  0.32200  0.00080  Biso   1.000  H
  C49      1.0000 0.76340  0.80070  0.01510  Biso   1.000  C
  C50      1.0000 0.23660  0.19930  0.98490  Biso   1.000  C
  H45      1.0000 0.84930  0.80310  0.01810  Biso   1.000  H
  H46      1.0000 0.15070  0.19690  0.98190  Biso   1.000  H
  C51      1.0000 0.55040  0.63950  0.00210  Biso   1.000  C
  C52      1.0000 0.44960  0.36050  0.99790  Biso   1.000  C
  C53      1.0000 0.94980  0.27870  0.82630  Biso   1.000  C
  C54      1.0000 0.05020  0.72130  0.17370  Biso   1.000  C
  C55      1.0000 0.06720  0.26630  0.78450  Biso   1.000  C
  C56      1.0000 0.93280  0.73370  0.21550  Biso   1.000  C
  H47      1.0000 0.13750  0.23010  0.80120  Biso   1.000  H
  H48      1.0000 0.86250  0.76990  0.19880  Biso   1.000  H
  C57      1.0000 0.07480  0.31140  0.71480  Biso   1.000  C
  C58      1.0000 0.92520  0.68860  0.28520  Biso   1.000  C
  H49      1.0000 0.15120  0.30290  0.68570  Biso   1.000  H
  H50      1.0000 0.84880  0.69710  0.31430  Biso   1.000  H
  C59      1.0000 0.97380  0.36640  0.68990  Biso   1.000  C
  C60      1.0000 0.02620  0.63360  0.31010  Biso   1.000  C
  C61      1.0000 0.86290  0.37370  0.73400  Biso   1.000  C
  C62      1.0000 0.13710  0.62630  0.26600  Biso   1.000  C
  H51      1.0000 0.79210  0.40770  0.71540  Biso   1.000  H
  H52      1.0000 0.20790  0.59230  0.28460  Biso   1.000  H
  C63      1.0000 0.84210  0.33420  0.80700  Biso   1.000  C
  C64      1.0000 0.15790  0.66580  0.19300  Biso   1.000  C
  H53      1.0000 0.76660  0.34490  0.83650  Biso   1.000  H
  H54      1.0000 0.23340  0.65510  0.16350  Biso   1.000  H
  C65      1.0000 0.99170  0.41320  0.61560  Biso   1.000  C
  C66      1.0000 0.00830  0.58680  0.38440  Biso   1.000  C
  C67      1.0000 0.14250  0.50490  0.10660  Biso   1.000  C
  C68      1.0000 0.85750  0.49510  0.89340  Biso   1.000  C
  H55      1.0000 0.20620  0.46960  0.13060  Biso   1.000  H
  H56      1.0000 0.79380  0.53040  0.86940  Biso   1.000  H
  C69      1.0000 0.91830  0.55170  0.09600  Biso   1.000  C
  C70      1.0000 0.08170  0.44830  0.90400  Biso   1.000  C
  H57      1.0000 0.95010  0.58280  0.05410  Biso   1.000  H
  H58      1.0000 0.04990  0.41720  0.94590  Biso   1.000  H
  H59      1.0000 0.87240  0.58830  0.12960  Biso   1.000  H
  H60      1.0000 0.12760  0.41170  0.87040  Biso   1.000  H
  H61      1.0000 0.86170  0.51860  0.08200  Biso   1.000  H
  H62      1.0000 0.13830  0.48140  0.91800  Biso   1.000  H
  C71      1.0000 0.99630  0.44750  0.19570  Biso   1.000  C
  C72      1.0000 0.00370  0.55250  0.80430  Biso   1.000  C
  H63      1.0000 0.07550  0.41790  0.21260  Biso   1.000  H
  H64      1.0000 0.92450  0.58210  0.78740  Biso   1.000  H
  H65      1.0000 0.94400  0.40960  0.18540  Biso   1.000  H
  H66      1.0000 0.05600  0.59040  0.81460  Biso   1.000  H
  H67      1.0000 0.95180  0.48060  0.23220  Biso   1.000  H
  H68      1.0000 0.04820  0.51940  0.76780  Biso   1.000  H
  C73      1.0000 0.54930  0.47270  0.13040  Biso   1.000  C
  C74      1.0000 0.45070  0.52730  0.86960  Biso   1.000  C
  C75      1.0000 0.57560  0.46300  0.21580  Biso   1.000  C
  C76      1.0000 0.42440  0.53700  0.78420  Biso   1.000  C
  H69      1.0000 0.49800  0.48330  0.24370  Biso   1.000  H
  H70      1.0000 0.50200  0.51670  0.75630  Biso   1.000  H
  H71      1.0000 0.64090  0.49360  0.22280  Biso   1.000  H
  H72      1.0000 0.35910  0.50640  0.77720  Biso   1.000  H
  H73      1.0000 0.60340  0.40640  0.23120  Biso   1.000  H
  H74      1.0000 0.39660  0.59360  0.76880  Biso   1.000  H
