data_image0
_cell_length_a       8.9318
_cell_length_b       11.1272
_cell_length_c       11.2538
_cell_angle_alpha    116.636
_cell_angle_beta     100.877
_cell_angle_gamma    94.377

_symmetry_space_group_name_H-M    "P 1"
_symmetry_int_tables_number       1

loop_
  _symmetry_equiv_pos_as_xyz
  'x, y, z'

loop_
  _atom_site_label
  _atom_site_occupancy
  _atom_site_fract_x
  _atom_site_fract_y
  _atom_site_fract_z
  _atom_site_thermal_displace_type
  _atom_site_B_iso_or_equiv
  _atom_site_type_symbol
  Cu1      1.0000 0.68041  0.32503  0.13577  Biso   1.000  Cu
  Cu2      1.0000 0.31959  0.67497  0.86423  Biso   1.000  Cu
  Cu3      1.0000 0.50000  0.00000  0.00000  Biso   1.000  Cu
  Mo1      1.0000 0.96781  0.61272  0.31499  Biso   1.000  Mo
  Mo2      1.0000 0.03219  0.38728  0.68501  Biso   1.000  Mo
  N1       1.0000 0.81060  0.54940  0.09960  Biso   1.000  N
  N2       1.0000 0.18940  0.45060  0.90040  Biso   1.000  N
  N3       1.0000 0.69880  0.43160  0.03480  Biso   1.000  N
  N4       1.0000 0.30120  0.56840  0.96520  Biso   1.000  N
  N5       1.0000 0.66940  0.53750  0.91330  Biso   1.000  N
  N6       1.0000 0.33060  0.46250  0.08670  Biso   1.000  N
  N7       1.0000 0.60250  0.57380  0.81370  Biso   1.000  N
  N8       1.0000 0.39750  0.42620  0.18630  Biso   1.000  N
  H1       1.0000 0.51900  0.52390  0.75240  Biso   1.000  H
  H2       1.0000 0.48100  0.47610  0.24760  Biso   1.000  H
  H3       1.0000 0.64490  0.64600  0.81400  Biso   1.000  H
  H4       1.0000 0.35510  0.35400  0.18600  Biso   1.000  H
  N9       1.0000 0.63310  0.25420  0.25790  Biso   1.000  N
  N10      1.0000 0.36690  0.74580  0.74210  Biso   1.000  N
  N11      1.0000 0.57130  0.11860  0.20780  Biso   1.000  N
  N12      1.0000 0.42870  0.88140  0.79220  Biso   1.000  N
  N13      1.0000 0.57500  0.22980  0.42430  Biso   1.000  N
  N14      1.0000 0.42500  0.77020  0.57570  Biso   1.000  N
  N15      1.0000 0.54990  0.26470  0.55520  Biso   1.000  N
  N16      1.0000 0.45010  0.73530  0.44480  Biso   1.000  N
  H5       1.0000 0.57390  0.34840  0.61870  Biso   1.000  H
  H6       1.0000 0.42610  0.65160  0.38130  Biso   1.000  H
  H7       1.0000 0.51070  0.20210  0.57130  Biso   1.000  H
  H8       1.0000 0.48930  0.79790  0.42870  Biso   1.000  H
  O1       1.0000 0.83310  0.47220  0.28630  Biso   1.000  O
  O2       1.0000 0.16690  0.52780  0.71370  Biso   1.000  O
  C1       1.0000 0.61560  0.42800  0.92470  Biso   1.000  C
  C2       1.0000 0.38440  0.57200  0.07530  Biso   1.000  C
  H9       1.0000 0.53140  0.35990  0.86320  Biso   1.000  H
  H10      1.0000 0.46860  0.64010  0.13680  Biso   1.000  H
  C3       1.0000 0.79160  0.61040  0.02210  Biso   1.000  C
  C4       1.0000 0.20840  0.38960  0.97790  Biso   1.000  C
  H11      1.0000 0.85280  0.69090  0.03980  Biso   1.000  H
  H12      1.0000 0.14720  0.30910  0.96020  Biso   1.000  H
  C5       1.0000 0.53880  0.10560  0.31060  Biso   1.000  C
  C6       1.0000 0.46120  0.89440  0.68940  Biso   1.000  C
  H13      1.0000 0.49750  0.02410  0.30630  Biso   1.000  H
  H14      1.0000 0.50250  0.97590  0.69370  Biso   1.000  H
  C7       1.0000 0.63550  0.31930  0.38830  Biso   1.000  C
  C8       1.0000 0.36450  0.68070  0.61170  Biso   1.000  C
  H15      1.0000 0.67280  0.41210  0.44650  Biso   1.000  H
  H16      1.0000 0.32720  0.58790  0.55350  Biso   1.000  H
  O3       1.0000 0.56940  0.15860  0.98560  Biso   1.000  O
  O4       1.0000 0.43060  0.84140  0.01440  Biso   1.000  O
  H17      1.0000 0.54840  0.15390  0.90660  Biso   1.000  H
  H18      1.0000 0.45160  0.84610  0.09340  Biso   1.000  H
  O5       1.0000 0.25300  0.10810  0.05240  Biso   1.000  O
  O6       1.0000 0.74700  0.89190  0.94760  Biso   1.000  O
  H19      1.0000 0.24060  0.10460  0.12400  Biso   1.000  H
  H20      1.0000 0.75940  0.89540  0.87600  Biso   1.000  H
  H21      1.0000 0.16740  0.11630  0.01120  Biso   1.000  H
  H22      1.0000 0.83260  0.88370  0.98880  Biso   1.000  H
  Mo3      1.0000 0.82528  0.90212  0.38076  Biso   1.000  Mo
  Mo4      1.0000 0.17472  0.09788  0.61924  Biso   1.000  Mo
  Mo5      1.0000 0.14318  0.90837  0.26702  Biso   1.000  Mo
  Mo6      1.0000 0.85682  0.09163  0.73298  Biso   1.000  Mo
  Mo7      1.0000 0.08500  0.22240  0.37784  Biso   1.000  Mo
  Mo8      1.0000 0.91500  0.77760  0.62216  Biso   1.000  Mo
  O7       1.0000 0.00280  0.78500  0.29780  Biso   1.000  O
  O8       1.0000 0.99720  0.21500  0.70220  Biso   1.000  O
  O9       1.0000 0.99480  0.03090  0.39340  Biso   1.000  O
  O10      1.0000 0.00520  0.96910  0.60660  Biso   1.000  O
  O11      1.0000 0.79440  0.74880  0.40740  Biso   1.000  O
  O12      1.0000 0.20560  0.25120  0.59260  Biso   1.000  O
  O13      1.0000 0.70110  0.85140  0.22480  Biso   1.000  O
  O14      1.0000 0.29890  0.14860  0.77520  Biso   1.000  O
  O15      1.0000 0.73570  0.01800  0.49820  Biso   1.000  O
  O16      1.0000 0.26430  0.98200  0.50180  Biso   1.000  O
  O17      1.0000 0.22700  0.09400  0.31990  Biso   1.000  O
  O18      1.0000 0.77300  0.90600  0.68010  Biso   1.000  O
  O19      1.0000 0.03980  0.86210  0.10430  Biso   1.000  O
  O20      1.0000 0.96020  0.13790  0.89570  Biso   1.000  O
  O21      1.0000 0.30380  0.83180  0.24650  Biso   1.000  O
  O22      1.0000 0.69620  0.16820  0.75350  Biso   1.000  O
  O23      1.0000 0.05350  0.69160  0.50160  Biso   1.000  O
  O24      1.0000 0.94650  0.30840  0.49840  Biso   1.000  O
  O25      1.0000 0.11410  0.54490  0.24740  Biso   1.000  O
  O26      1.0000 0.88590  0.45510  0.75260  Biso   1.000  O
  O27      1.0000 0.95550  0.17000  0.22530  Biso   1.000  O
  O28      1.0000 0.04450  0.83000  0.77470  Biso   1.000  O
  O29      1.0000 0.20590  0.36250  0.40320  Biso   1.000  O
  O30      1.0000 0.79410  0.63750  0.59680  Biso   1.000  O
