data_image0
_cell_length_a       11.3853
_cell_length_b       12.0558
_cell_length_c       23.4951
_cell_angle_alpha    93.417
_cell_angle_beta     97.951
_cell_angle_gamma    109.364

_symmetry_space_group_name_H-M    "P 1"
_symmetry_int_tables_number       1

loop_
  _symmetry_equiv_pos_as_xyz
  'x, y, z'

loop_
  _atom_site_label
  _atom_site_occupancy
  _atom_site_fract_x
  _atom_site_fract_y
  _atom_site_fract_z
  _atom_site_thermal_displace_type
  _atom_site_B_iso_or_equiv
  _atom_site_type_symbol
  Cu1      1.0000 0.69818  0.53854  0.81149  Biso   1.000  Cu
  Cu2      1.0000 0.30182  0.46146  0.18851  Biso   1.000  Cu
  Cu3      1.0000 0.98617  0.71439  0.79644  Biso   1.000  Cu
  Cu4      1.0000 0.01383  0.28561  0.20356  Biso   1.000  Cu
  Cu5      1.0000 0.80408  0.48850  0.70630  Biso   1.000  Cu
  Cu6      1.0000 0.19592  0.51150  0.29370  Biso   1.000  Cu
  Cu7      1.0000 0.51908  0.29339  0.70951  Biso   1.000  Cu
  Cu8      1.0000 0.48092  0.70661  0.29049  Biso   1.000  Cu
  O1       1.0000 0.81150  0.62470  0.76102  Biso   1.000  O
  O2       1.0000 0.18850  0.37530  0.23898  Biso   1.000  O
  H1       1.0000 0.77440  0.67660  0.74040  Biso   1.000  H
  H2       1.0000 0.22560  0.32340  0.25960  Biso   1.000  H
  O3       1.0000 0.68280  0.40050  0.75392  Biso   1.000  O
  O4       1.0000 0.31720  0.59950  0.24608  Biso   1.000  O
  H3       1.0000 0.72200  0.35030  0.77490  Biso   1.000  H
  H4       1.0000 0.27800  0.64970  0.22510  Biso   1.000  H
  O5       1.0000 0.68200  0.68720  0.84476  Biso   1.000  O
  O6       1.0000 0.31800  0.31280  0.15524  Biso   1.000  O
  O7       1.0000 0.51900  0.62910  0.77344  Biso   1.000  O
  O8       1.0000 0.48100  0.37090  0.22656  Biso   1.000  O
  O9       1.0000 0.52830  0.17510  0.75847  Biso   1.000  O
  O10      1.0000 0.47170  0.82490  0.24153  Biso   1.000  O
  O11      1.0000 0.56130  0.04220  0.69763  Biso   1.000  O
  O12      1.0000 0.43870  0.95780  0.30237  Biso   1.000  O
  O13      1.0000 0.16880  0.77320  0.81670  Biso   1.000  O
  O14      1.0000 0.83120  0.22680  0.18330  Biso   1.000  O
  O15      1.0000 0.20070  0.87810  0.90176  Biso   1.000  O
  O16      1.0000 0.79930  0.12190  0.09824  Biso   1.000  O
  O17      1.0000 0.69960  0.00460  0.99757  Biso   1.000  O
  O18      1.0000 0.30040  0.99540  0.00243  Biso   1.000  O
  H5       1.0000 0.73180  0.04850  0.02780  Biso   1.000  H
  H6       1.0000 0.26820  0.95150  0.97220  Biso   1.000  H
  O19      1.0000 0.73800  0.17210  0.95989  Biso   1.000  O
  O20      1.0000 0.26200  0.82790  0.04011  Biso   1.000  O
  O21      1.0000 0.84130  0.34790  0.68218  Biso   1.000  O
  O22      1.0000 0.15870  0.65210  0.31782  Biso   1.000  O
  O23      1.0000 0.84100  0.27590  0.76775  Biso   1.000  O
  O24      1.0000 0.15900  0.72410  0.23225  Biso   1.000  O
  O25      1.0000 0.31050  0.30650  0.74621  Biso   1.000  O
  O26      1.0000 0.68950  0.69350  0.25379  Biso   1.000  O
  O27      1.0000 0.34170  0.20100  0.67434  Biso   1.000  O
  O28      1.0000 0.65830  0.79900  0.32566  Biso   1.000  O
  O29      1.0000 0.99830  0.84210  0.74971  Biso   1.000  O
  O30      1.0000 0.00170  0.15790  0.25029  Biso   1.000  O
  O31      1.0000 0.79430  0.81270  0.71991  Biso   1.000  O
  O32      1.0000 0.20570  0.18730  0.28009  Biso   1.000  O
  O33      1.0000 0.78970  0.96380  0.52705  Biso   1.000  O
  O34      1.0000 0.21030  0.03620  0.47295  Biso   1.000  O
  H7       1.0000 0.76390  0.95590  0.49220  Biso   1.000  H
  H8       1.0000 0.23610  0.04410  0.50780  Biso   1.000  H
  O35      1.0000 0.94820  0.11120  0.50442  Biso   1.000  O
  O36      1.0000 0.05180  0.88880  0.49558  Biso   1.000  O
  N1       1.0000 0.87830  0.51290  0.86079  Biso   1.000  N
  N2       1.0000 0.12170  0.48710  0.13921  Biso   1.000  N
  N3       1.0000 0.98260  0.57380  0.83717  Biso   1.000  N
  N4       1.0000 0.01740  0.42620  0.16283  Biso   1.000  N
  N5       1.0000 0.02640  0.43680  0.88363  Biso   1.000  N
  N6       1.0000 0.97360  0.56320  0.11637  Biso   1.000  N
  N7       1.0000 0.58560  0.44200  0.86134  Biso   1.000  N
  N8       1.0000 0.41440  0.55800  0.13866  Biso   1.000  N
  N9       1.0000 0.62340  0.37720  0.90133  Biso   1.000  N
  N10      1.0000 0.37660  0.62280  0.09867  Biso   1.000  N
  N11      1.0000 0.42540  0.36040  0.90367  Biso   1.000  N
  N12      1.0000 0.57460  0.63960  0.09633  Biso   1.000  N
  N13      1.0000 0.63060  0.50040  0.65001  Biso   1.000  N
  N14      1.0000 0.36940  0.49960  0.34999  Biso   1.000  N
  N15      1.0000 0.51920  0.42490  0.66283  Biso   1.000  N
  N16      1.0000 0.48080  0.57510  0.33717  Biso   1.000  N
  N17      1.0000 0.47620  0.56390  0.61879  Biso   1.000  N
  N18      1.0000 0.52380  0.43610  0.38121  Biso   1.000  N
  N19      1.0000 0.92890  0.58260  0.65959  Biso   1.000  N
  N20      1.0000 0.07110  0.41740  0.34041  Biso   1.000  N
  N21      1.0000 0.89190  0.64780  0.61924  Biso   1.000  N
  N22      1.0000 0.10810  0.35220  0.38076  Biso   1.000  N
  N23      1.0000 0.08500  0.65270  0.61229  Biso   1.000  N
  N24      1.0000 0.91500  0.34730  0.38771  Biso   1.000  N
  C1       1.0000 0.90670  0.43210  0.88785  Biso   1.000  C
  C2       1.0000 0.09330  0.56790  0.11215  Biso   1.000  C
  H9       1.0000 0.85250  0.37820  0.90750  Biso   1.000  H
  H10      1.0000 0.14750  0.62180  0.09250  Biso   1.000  H
  C3       1.0000 0.06850  0.52600  0.85119  Biso   1.000  C
  C4       1.0000 0.93150  0.47400  0.14881  Biso   1.000  C
  H11      1.0000 0.14790  0.55020  0.84030  Biso   1.000  H
  H12      1.0000 0.85210  0.44980  0.15970  Biso   1.000  H
  C5       1.0000 0.46840  0.42990  0.86314  Biso   1.000  C
  C6       1.0000 0.53160  0.57010  0.13686  Biso   1.000  C
  H13      1.0000 0.42100  0.46450  0.83960  Biso   1.000  H
  H14      1.0000 0.57900  0.53550  0.16040  Biso   1.000  H
  C7       1.0000 0.52560  0.32930  0.92520  Biso   1.000  C
  C8       1.0000 0.47440  0.67070  0.07480  Biso   1.000  C
  H15      1.0000 0.52410  0.27920  0.95390  Biso   1.000  H
  H16      1.0000 0.47590  0.72080  0.04610  Biso   1.000  H
  C9       1.0000 0.09370  0.36110  0.91043  Biso   1.000  C
  C10      1.0000 0.90630  0.63890  0.08957  Biso   1.000  C
  C11      1.0000 0.22560  0.39770  0.89342  Biso   1.000  C
  C12      1.0000 0.77440  0.60230  0.10658  Biso   1.000  C
  H17      1.0000 0.21800  0.38710  0.85170  Biso   1.000  H
  H18      1.0000 0.78200  0.61290  0.14830  Biso   1.000  H
  H19      1.0000 0.27140  0.48060  0.90680  Biso   1.000  H
  H20      1.0000 0.72860  0.51940  0.09320  Biso   1.000  H
  C13      1.0000 0.29720  0.32240  0.92041  Biso   1.000  C
  C14      1.0000 0.70280  0.67760  0.07959  Biso   1.000  C
  C15      1.0000 0.31000  0.33930  0.98576  Biso   1.000  C
  C16      1.0000 0.69000  0.66070  0.01424  Biso   1.000  C
  H21      1.0000 0.35710  0.42150  0.00010  Biso   1.000  H
  H22      1.0000 0.64290  0.57850  0.99990  Biso   1.000  H
  H23      1.0000 0.35580  0.29120  0.00290  Biso   1.000  H
  H24      1.0000 0.64420  0.70880  0.99710  Biso   1.000  H
  C17      1.0000 0.17740  0.30310  0.00292  Biso   1.000  C
  C18      1.0000 0.82260  0.69690  0.99708  Biso   1.000  C
  H25      1.0000 0.18520  0.31420  0.04510  Biso   1.000  H
  H26      1.0000 0.81480  0.68580  0.95490  Biso   1.000  H
  C19      1.0000 0.10600  0.37980  0.97565  Biso   1.000  C
  C20      1.0000 0.89400  0.62020  0.02435  Biso   1.000  C
  H27      1.0000 0.02280  0.35820  0.98650  Biso   1.000  H
  H28      1.0000 0.97720  0.64180  0.01350  Biso   1.000  H
  H29      1.0000 0.15150  0.46250  0.98950  Biso   1.000  H
  H30      1.0000 0.84850  0.53750  0.01050  Biso   1.000  H
  C21      1.0000 0.02230  0.23190  0.88770  Biso   1.000  C
  C22      1.0000 0.97770  0.76810  0.11230  Biso   1.000  C
  H31      1.0000 0.01520  0.22120  0.84590  Biso   1.000  H
  H32      1.0000 0.98480  0.77880  0.15410  Biso   1.000  H
  H33      1.0000 0.93790  0.20800  0.89720  Biso   1.000  H
  H34      1.0000 0.06210  0.79200  0.10280  Biso   1.000  H
  C23      1.0000 0.09370  0.15610  0.91520  Biso   1.000  C
  C24      1.0000 0.90630  0.84390  0.08480  Biso   1.000  C
  H35      1.0000 0.04740  0.07260  0.90110  Biso   1.000  H
  H36      1.0000 0.95260  0.92740  0.09890  Biso   1.000  H
  C25      1.0000 0.22680  0.19280  0.89780  Biso   1.000  C
  C26      1.0000 0.77320  0.80720  0.10220  Biso   1.000  C
  H37      1.0000 0.27270  0.14410  0.91420  Biso   1.000  H
  H38      1.0000 0.72730  0.85590  0.08580  Biso   1.000  H
  H39      1.0000 0.21930  0.18190  0.85600  Biso   1.000  H
  H40      1.0000 0.78070  0.81810  0.14400  Biso   1.000  H
  C27      1.0000 0.10530  0.17300  0.98050  Biso   1.000  C
  C28      1.0000 0.89470  0.82700  0.01950  Biso   1.000  C
  H41      1.0000 0.14980  0.12410  0.99790  Biso   1.000  H
  H42      1.0000 0.85020  0.87590  0.00210  Biso   1.000  H
  H43      1.0000 0.02190  0.14910  0.99120  Biso   1.000  H
  H44      1.0000 0.97810  0.85090  0.00880  Biso   1.000  H
  C29      1.0000 0.60160  0.58190  0.62379  Biso   1.000  C
  C30      1.0000 0.39840  0.41810  0.37621  Biso   1.000  C
  H45      1.0000 0.65930  0.64470  0.61020  Biso   1.000  H
  H46      1.0000 0.34070  0.35530  0.38980  Biso   1.000  H
  C31      1.0000 0.43040  0.46490  0.64388  Biso   1.000  C
  C32      1.0000 0.56960  0.53510  0.35612  Biso   1.000  C
  H47      1.0000 0.34600  0.42960  0.64720  Biso   1.000  H
  H48      1.0000 0.65400  0.57040  0.35280  Biso   1.000  H
  C33      1.0000 0.04480  0.58860  0.65502  Biso   1.000  C
  C34      1.0000 0.95520  0.41140  0.34498  Biso   1.000  C
  H49      1.0000 0.09210  0.55340  0.67820  Biso   1.000  H
  H50      1.0000 0.90790  0.44660  0.32180  Biso   1.000  H
  C35      1.0000 0.98700  0.68880  0.59220  Biso   1.000  C
  C36      1.0000 0.01300  0.31120  0.40780  Biso   1.000  C
  H51      1.0000 0.98800  0.73700  0.56270  Biso   1.000  H
  H52      1.0000 0.01200  0.26300  0.43730  Biso   1.000  H
  C37      1.0000 0.40570  0.63680  0.59203  Biso   1.000  C
  C38      1.0000 0.59430  0.36320  0.40797  Biso   1.000  C
  C39      1.0000 0.28110  0.60840  0.61586  Biso   1.000  C
  C40      1.0000 0.71890  0.39160  0.38414  Biso   1.000  C
  H53      1.0000 0.23170  0.52500  0.60620  Biso   1.000  H
  H54      1.0000 0.76830  0.47500  0.39380  Biso   1.000  H
  H55      1.0000 0.29860  0.62570  0.65760  Biso   1.000  H
  H56      1.0000 0.70140  0.37430  0.34240  Biso   1.000  H
  C41      1.0000 0.20720  0.68270  0.58962  Biso   1.000  C
  C42      1.0000 0.79280  0.31730  0.41038  Biso   1.000  C
  C43      1.0000 0.28370  0.81390  0.60627  Biso   1.000  C
  C44      1.0000 0.71630  0.18610  0.39373  Biso   1.000  C
  H57      1.0000 0.30090  0.83190  0.64800  Biso   1.000  H
  H58      1.0000 0.69910  0.16810  0.35200  Biso   1.000  H
  H59      1.0000 0.23620  0.86160  0.59020  Biso   1.000  H
  H60      1.0000 0.76380  0.13840  0.40980  Biso   1.000  H
  C45      1.0000 0.40770  0.84230  0.58270  Biso   1.000  C
  C46      1.0000 0.59230  0.15770  0.41730  Biso   1.000  C
  H61      1.0000 0.45700  0.92660  0.59290  Biso   1.000  H
  H62      1.0000 0.54300  0.07340  0.40710  Biso   1.000  H
  C47      1.0000 0.48380  0.76940  0.60820  Biso   1.000  C
  C48      1.0000 0.51620  0.23060  0.39180  Biso   1.000  C
  H63      1.0000 0.50370  0.78760  0.64990  Biso   1.000  H
  H64      1.0000 0.49630  0.21240  0.35010  Biso   1.000  H
  H65      1.0000 0.56250  0.78830  0.59310  Biso   1.000  H
  H66      1.0000 0.43750  0.21170  0.40690  Biso   1.000  H
  C49      1.0000 0.17800  0.65250  0.52402  Biso   1.000  C
  C50      1.0000 0.82200  0.34750  0.47598  Biso   1.000  C
  H67      1.0000 0.12830  0.69750  0.50700  Biso   1.000  H
  H68      1.0000 0.87170  0.30250  0.49300  Biso   1.000  H
  H69      1.0000 0.12930  0.56900  0.51420  Biso   1.000  H
  H70      1.0000 0.87070  0.43100  0.48580  Biso   1.000  H
  C51      1.0000 0.30280  0.68250  0.49981  Biso   1.000  C
  C52      1.0000 0.69720  0.31750  0.50019  Biso   1.000  C
  H71      1.0000 0.28520  0.66510  0.45760  Biso   1.000  H
  H72      1.0000 0.71480  0.33490  0.54240  Biso   1.000  H
  C53      1.0000 0.37850  0.60750  0.52664  Biso   1.000  C
  C54      1.0000 0.62150  0.39250  0.47336  Biso   1.000  C
  H73      1.0000 0.33020  0.52400  0.51650  Biso   1.000  H
  H74      1.0000 0.66980  0.47600  0.48350  Biso   1.000  H
  H75      1.0000 0.45720  0.62470  0.51170  Biso   1.000  H
  H76      1.0000 0.54280  0.37530  0.48830  Biso   1.000  H
  C55      1.0000 0.38010  0.81420  0.51720  Biso   1.000  C
  C56      1.0000 0.61990  0.18580  0.48280  Biso   1.000  C
  H77      1.0000 0.45900  0.83370  0.50230  Biso   1.000  H
  H78      1.0000 0.54100  0.16630  0.49770  Biso   1.000  H
  H79      1.0000 0.33350  0.86190  0.50040  Biso   1.000  H
  H80      1.0000 0.66650  0.13810  0.49960  Biso   1.000  H
  C57      1.0000 0.58670  0.70200  0.81450  Biso   1.000  C
  C58      1.0000 0.41330  0.29800  0.18550  Biso   1.000  C
  C59      1.0000 0.54350  0.07730  0.74500  Biso   1.000  C
  C60      1.0000 0.45650  0.92270  0.25500  Biso   1.000  C
  C61      1.0000 0.23950  0.84220  0.85962  Biso   1.000  C
  C62      1.0000 0.76050  0.15780  0.14038  Biso   1.000  C
  C63      1.0000 0.68780  0.06780  0.95538  Biso   1.000  C
  C64      1.0000 0.31220  0.93220  0.04462  Biso   1.000  C
  C65      1.0000 0.55520  0.81210  0.83063  Biso   1.000  C
  C66      1.0000 0.44480  0.18790  0.16937  Biso   1.000  C
  C67      1.0000 0.56870  0.88930  0.78005  Biso   1.000  C
  C68      1.0000 0.43130  0.11070  0.21995  Biso   1.000  C
  H81      1.0000 0.65480  0.91330  0.77260  Biso   1.000  H
  H82      1.0000 0.34520  0.08670  0.22740  Biso   1.000  H
  H83      1.0000 0.51320  0.84380  0.74530  Biso   1.000  H
  H84      1.0000 0.48680  0.15620  0.25470  Biso   1.000  H
  C69      1.0000 0.53490  0.99860  0.79500  Biso   1.000  C
  C70      1.0000 0.46510  0.00140  0.20500  Biso   1.000  C
  C71      1.0000 0.39710  0.95980  0.80527  Biso   1.000  C
  C72      1.0000 0.60290  0.04020  0.19473  Biso   1.000  C
  H85      1.0000 0.37500  0.02910  0.81430  Biso   1.000  H
  H86      1.0000 0.62500  0.97090  0.18570  Biso   1.000  H
  H87      1.0000 0.34130  0.91530  0.77040  Biso   1.000  H
  H88      1.0000 0.65870  0.08470  0.22960  Biso   1.000  H
  C73      1.0000 0.37980  0.88300  0.85522  Biso   1.000  C
  C74      1.0000 0.62020  0.11700  0.14478  Biso   1.000  C
  C75      1.0000 0.41760  0.77450  0.84068  Biso   1.000  C
  C76      1.0000 0.58240  0.22550  0.15932  Biso   1.000  C
  H89      1.0000 0.40730  0.72570  0.87220  Biso   1.000  H
  H90      1.0000 0.59270  0.27430  0.12780  Biso   1.000  H
  H91      1.0000 0.36230  0.72760  0.80620  Biso   1.000  H
  H92      1.0000 0.63770  0.27240  0.19380  Biso   1.000  H
  C77      1.0000 0.64290  0.88580  0.88538  Biso   1.000  C
  C78      1.0000 0.35710  0.11420  0.11462  Biso   1.000  C
  H93      1.0000 0.72990  0.91070  0.87910  Biso   1.000  H
  H94      1.0000 0.27010  0.08930  0.12090  Biso   1.000  H
  H95      1.0000 0.63560  0.83800  0.91740  Biso   1.000  H
  H96      1.0000 0.36440  0.16200  0.08260  Biso   1.000  H
  C79      1.0000 0.60680  0.99540  0.90026  Biso   1.000  C
  C80      1.0000 0.39320  0.00460  0.09974  Biso   1.000  C
  C81      1.0000 0.62140  0.07130  0.84953  Biso   1.000  C
  C82      1.0000 0.37860  0.92870  0.15047  Biso   1.000  C
  H97      1.0000 0.59960  0.14090  0.85860  Biso   1.000  H
  H98      1.0000 0.40040  0.85910  0.14140  Biso   1.000  H
  H99      1.0000 0.70840  0.09730  0.84330  Biso   1.000  H
  H100     1.0000 0.29160  0.90270  0.15670  Biso   1.000  H
  C83      1.0000 0.46770  0.95500  0.91003  Biso   1.000  C
  C84      1.0000 0.53230  0.04500  0.08997  Biso   1.000  C
  H101     1.0000 0.45800  0.90710  0.94200  Biso   1.000  H
  H102     1.0000 0.54200  0.09290  0.05800  Biso   1.000  H
  H103     1.0000 0.44520  0.02380  0.91990  Biso   1.000  H
  H104     1.0000 0.55480  0.97620  0.08010  Biso   1.000  H
  C85      1.0000 0.85890  0.27490  0.71734  Biso   1.000  C
  C86      1.0000 0.14110  0.72510  0.28266  Biso   1.000  C
  C87      1.0000 0.26800  0.23100  0.70363  Biso   1.000  C
  C88      1.0000 0.73200  0.76900  0.29637  Biso   1.000  C
  C89      1.0000 0.90810  0.87160  0.72519  Biso   1.000  C
  C90      1.0000 0.09190  0.12840  0.27481  Biso   1.000  C
  C91      1.0000 0.89880  0.05280  0.53983  Biso   1.000  C
  C92      1.0000 0.10120  0.94720  0.46017  Biso   1.000  C
  C93      1.0000 0.91370  0.18530  0.69273  Biso   1.000  C
  C94      1.0000 0.08630  0.81470  0.30727  Biso   1.000  C
  C95      1.0000 0.05740  0.24790  0.70692  Biso   1.000  C
  C96      1.0000 0.94260  0.75210  0.29308  Biso   1.000  C
  H105     1.0000 0.08050  0.32130  0.68940  Biso   1.000  H
  H106     1.0000 0.91950  0.67870  0.31060  Biso   1.000  H
  H107     1.0000 0.08310  0.26700  0.74850  Biso   1.000  H
  H108     1.0000 0.91690  0.73300  0.25150  Biso   1.000  H
  C97      1.0000 0.12630  0.16970  0.68459  Biso   1.000  C
  C98      1.0000 0.87370  0.83030  0.31541  Biso   1.000  C
  C99      1.0000 0.09020  0.05350  0.71316  Biso   1.000  C
  C100     1.0000 0.90980  0.94650  0.28684  Biso   1.000  C
  H109     1.0000 0.13320  0.00290  0.69900  Biso   1.000  H
  H110     1.0000 0.86680  0.99710  0.30100  Biso   1.000  H
  H111     1.0000 0.11650  0.07100  0.75470  Biso   1.000  H
  H112     1.0000 0.88350  0.92900  0.24530  Biso   1.000  H
  C101     1.0000 0.94770  0.99000  0.69907  Biso   1.000  C
  C102     1.0000 0.05230  0.01000  0.30093  Biso   1.000  C
  C103     1.0000 0.87800  0.06900  0.72074  Biso   1.000  C
  C104     1.0000 0.12200  0.93100  0.27926  Biso   1.000  C
  H113     1.0000 0.90020  0.08630  0.76250  Biso   1.000  H
  H114     1.0000 0.09980  0.91370  0.23750  Biso   1.000  H
  H115     1.0000 0.78760  0.02790  0.71110  Biso   1.000  H
  H116     1.0000 0.21240  0.97210  0.28890  Biso   1.000  H
  C105     1.0000 0.87410  0.15650  0.62711  Biso   1.000  C
  C106     1.0000 0.12590  0.84350  0.37289  Biso   1.000  C
  H117     1.0000 0.89540  0.22900  0.60890  Biso   1.000  H
  H118     1.0000 0.10460  0.77100  0.39110  Biso   1.000  H
  H119     1.0000 0.78350  0.11630  0.61770  Biso   1.000  H
  H120     1.0000 0.21650  0.88370  0.38230  Biso   1.000  H
  C107     1.0000 0.94320  0.07600  0.60424  Biso   1.000  C
  C108     1.0000 0.05680  0.92400  0.39576  Biso   1.000  C
  C109     1.0000 0.90850  0.96110  0.63331  Biso   1.000  C
  C110     1.0000 0.09150  0.03890  0.36669  Biso   1.000  C
  H121     1.0000 0.81820  0.91920  0.62380  Biso   1.000  H
  H122     1.0000 0.18180  0.08080  0.37620  Biso   1.000  H
  H123     1.0000 0.95110  0.91030  0.61900  Biso   1.000  H
  H124     1.0000 0.04890  0.08970  0.38100  Biso   1.000  H
  C111     1.0000 0.08690  0.14010  0.61911  Biso   1.000  C
  C112     1.0000 0.91310  0.85990  0.38089  Biso   1.000  C
  H125     1.0000 0.13020  0.09000  0.60480  Biso   1.000  H
  H126     1.0000 0.86980  0.91000  0.39520  Biso   1.000  H
  H127     1.0000 0.11030  0.21230  0.60060  Biso   1.000  H
  H128     1.0000 0.88970  0.78770  0.39940  Biso   1.000  H
  O37      1.0000 0.94180  0.81950  0.86929  Biso   1.000  O
  O38      1.0000 0.05820  0.18050  0.13071  Biso   1.000  O
  H129     1.0000 0.00100  0.82310  0.89650  Biso   1.000  H
  H130     1.0000 0.99900  0.17690  0.10350  Biso   1.000  H
  H131     1.0000 0.87310  0.77180  0.87660  Biso   1.000  H
  H132     1.0000 0.12690  0.22820  0.12340  Biso   1.000  H
  O39      1.0000 0.58810  0.20600  0.62824  Biso   1.000  O
  O40      1.0000 0.41190  0.79400  0.37176  Biso   1.000  O
  H133     1.0000 0.58190  0.13940  0.64010  Biso   1.000  H
  H134     1.0000 0.41810  0.86060  0.35990  Biso   1.000  H
  H135     1.0000 0.66590  0.24770  0.63220  Biso   1.000  H
  H136     1.0000 0.33410  0.75230  0.36780  Biso   1.000  H
  O41      1.0000 0.25850  0.51700  0.75327  Biso   1.000  O
  O42      1.0000 0.74150  0.48300  0.24673  Biso   1.000  O
  H137     1.0000 0.33460  0.56020  0.75330  Biso   1.000  H
  H138     1.0000 0.66540  0.43980  0.24670  Biso   1.000  H
  H139     1.0000 0.25250  0.44490  0.74770  Biso   1.000  H
  H140     1.0000 0.74750  0.55510  0.25230  Biso   1.000  H
  O43      1.0000 0.65030  0.88490  0.42988  Biso   1.000  O
  O44      1.0000 0.34970  0.11510  0.57012  Biso   1.000  O
  H141     1.0000 0.66880  0.84260  0.40480  Biso   1.000  H
  H142     1.0000 0.33120  0.15740  0.59520  Biso   1.000  H
  H143     1.0000 0.57080  0.85880  0.42870  Biso   1.000  H
  H144     1.0000 0.42920  0.14120  0.57130  Biso   1.000  H
  O45      1.0000 0.73370  0.69650  0.48840  Biso   1.000  O
  O46      1.0000 0.26630  0.30350  0.51160  Biso   1.000  O
  H145     1.0000 0.73300  0.76670  0.48820  Biso   1.000  H
  H146     1.0000 0.26700  0.23330  0.51180  Biso   1.000  H
  H147     1.0000 0.77320  0.69060  0.52090  Biso   1.000  H
  H148     1.0000 0.22680  0.30940  0.47910  Biso   1.000  H
  O47      1.0000 0.75150  0.33690  0.03980  Biso   1.000  O
  O48      1.0000 0.24850  0.66310  0.96020  Biso   1.000  O
  H149     1.0000 0.74240  0.30020  0.00500  Biso   1.000  H
  H150     1.0000 0.25760  0.69980  0.99500  Biso   1.000  H
  H151     1.0000 0.76790  0.28410  0.06260  Biso   1.000  H
  H152     1.0000 0.23210  0.71590  0.93740  Biso   1.000  H
