data_image0
_cell_length_a       12.129
_cell_length_b       13.152
_cell_length_c       20.57
_cell_angle_alpha    90
_cell_angle_beta     90
_cell_angle_gamma    90

_symmetry_space_group_name_H-M    "P 1"
_symmetry_int_tables_number       1

loop_
  _symmetry_equiv_pos_as_xyz
  'x, y, z'

loop_
  _atom_site_label
  _atom_site_occupancy
  _atom_site_fract_x
  _atom_site_fract_y
  _atom_site_fract_z
  _atom_site_thermal_displace_type
  _atom_site_B_iso_or_equiv
  _atom_site_type_symbol
  Cu1      1.0000 0.00000  0.55100  0.25000  Biso   1.000  Cu
  Cu2      1.0000 0.00000  0.44900  0.75000  Biso   1.000  Cu
  Cu3      1.0000 0.50000  0.05100  0.25000  Biso   1.000  Cu
  Cu4      1.0000 0.50000  0.94900  0.75000  Biso   1.000  Cu
  O1       1.0000 0.11300  0.54900  0.31780  Biso   1.000  O
  O2       1.0000 0.88700  0.45100  0.81780  Biso   1.000  O
  O3       1.0000 0.88700  0.54900  0.18220  Biso   1.000  O
  O4       1.0000 0.11300  0.45100  0.68220  Biso   1.000  O
  O5       1.0000 0.61300  0.04900  0.31780  Biso   1.000  O
  O6       1.0000 0.38700  0.95100  0.81780  Biso   1.000  O
  O7       1.0000 0.38700  0.04900  0.18220  Biso   1.000  O
  O8       1.0000 0.61300  0.95100  0.68220  Biso   1.000  O
  C1       1.0000 0.16980  0.63300  0.32770  Biso   1.000  C
  C2       1.0000 0.83020  0.36700  0.82770  Biso   1.000  C
  C3       1.0000 0.83020  0.63300  0.17230  Biso   1.000  C
  C4       1.0000 0.16980  0.36700  0.67230  Biso   1.000  C
  C5       1.0000 0.66980  0.13300  0.32770  Biso   1.000  C
  C6       1.0000 0.33020  0.86700  0.82770  Biso   1.000  C
  C7       1.0000 0.33020  0.13300  0.17230  Biso   1.000  C
  C8       1.0000 0.66980  0.86700  0.67230  Biso   1.000  C
  O9       1.0000 0.15640  0.71180  0.29720  Biso   1.000  O
  O10      1.0000 0.84360  0.28820  0.79720  Biso   1.000  O
  O11      1.0000 0.84360  0.71180  0.20280  Biso   1.000  O
  O12      1.0000 0.15640  0.28820  0.70280  Biso   1.000  O
  O13      1.0000 0.65640  0.21180  0.29720  Biso   1.000  O
  O14      1.0000 0.34360  0.78820  0.79720  Biso   1.000  O
  O15      1.0000 0.34360  0.21180  0.20280  Biso   1.000  O
  O16      1.0000 0.65640  0.78820  0.70280  Biso   1.000  O
  C9       1.0000 0.25370  0.62680  0.38110  Biso   1.000  C
  C10      1.0000 0.74630  0.37320  0.88110  Biso   1.000  C
  C11      1.0000 0.74630  0.62680  0.11890  Biso   1.000  C
  C12      1.0000 0.25370  0.37320  0.61890  Biso   1.000  C
  C13      1.0000 0.75370  0.12680  0.38110  Biso   1.000  C
  C14      1.0000 0.24630  0.87320  0.88110  Biso   1.000  C
  C15      1.0000 0.24630  0.12680  0.11890  Biso   1.000  C
  C16      1.0000 0.75370  0.87320  0.61890  Biso   1.000  C
  C17      1.0000 0.25780  0.54310  0.42510  Biso   1.000  C
  C18      1.0000 0.74220  0.45690  0.92510  Biso   1.000  C
  C19      1.0000 0.74220  0.54310  0.07490  Biso   1.000  C
  C20      1.0000 0.25780  0.45690  0.57490  Biso   1.000  C
  C21      1.0000 0.75780  0.04310  0.42510  Biso   1.000  C
  C22      1.0000 0.24220  0.95690  0.92510  Biso   1.000  C
  C23      1.0000 0.24220  0.04310  0.07490  Biso   1.000  C
  C24      1.0000 0.75780  0.95690  0.57490  Biso   1.000  C
  C25      1.0000 0.32920  0.54380  0.47670  Biso   1.000  C
  C26      1.0000 0.67080  0.45620  0.97670  Biso   1.000  C
  C27      1.0000 0.67080  0.54380  0.02330  Biso   1.000  C
  C28      1.0000 0.32920  0.45620  0.52330  Biso   1.000  C
  C29      1.0000 0.82920  0.04380  0.47670  Biso   1.000  C
  C30      1.0000 0.17080  0.95620  0.97670  Biso   1.000  C
  C31      1.0000 0.17080  0.04380  0.02330  Biso   1.000  C
  C32      1.0000 0.82920  0.95620  0.52330  Biso   1.000  C
  C33      1.0000 0.40380  0.62650  0.48500  Biso   1.000  C
  C34      1.0000 0.59620  0.37350  0.98500  Biso   1.000  C
  C35      1.0000 0.59620  0.62650  0.01500  Biso   1.000  C
  C36      1.0000 0.40380  0.37350  0.51500  Biso   1.000  C
  C37      1.0000 0.90380  0.12650  0.48500  Biso   1.000  C
  C38      1.0000 0.09620  0.87350  0.98500  Biso   1.000  C
  C39      1.0000 0.09620  0.12650  0.01500  Biso   1.000  C
  C40      1.0000 0.90380  0.87350  0.51500  Biso   1.000  C
  C41      1.0000 0.40290  0.70700  0.43970  Biso   1.000  C
  C42      1.0000 0.59710  0.29300  0.93970  Biso   1.000  C
  C43      1.0000 0.59710  0.70700  0.06030  Biso   1.000  C
  C44      1.0000 0.40290  0.29300  0.56030  Biso   1.000  C
  C45      1.0000 0.90290  0.20700  0.43970  Biso   1.000  C
  C46      1.0000 0.09710  0.79300  0.93970  Biso   1.000  C
  C47      1.0000 0.09710  0.20700  0.06030  Biso   1.000  C
  C48      1.0000 0.90290  0.79300  0.56030  Biso   1.000  C
  C49      1.0000 0.32590  0.70560  0.39030  Biso   1.000  C
  C50      1.0000 0.67410  0.29440  0.89030  Biso   1.000  C
  C51      1.0000 0.67410  0.70560  0.10970  Biso   1.000  C
  C52      1.0000 0.32590  0.29440  0.60970  Biso   1.000  C
  C53      1.0000 0.82590  0.20560  0.39030  Biso   1.000  C
  C54      1.0000 0.17410  0.79440  0.89030  Biso   1.000  C
  C55      1.0000 0.17410  0.20560  0.10970  Biso   1.000  C
  C56      1.0000 0.82590  0.79440  0.60970  Biso   1.000  C
  H1       1.0000 0.32288  0.76061  0.36195  Biso   1.000  H
  H2       1.0000 0.67712  0.23939  0.86195  Biso   1.000  H
  H3       1.0000 0.67712  0.76061  0.13805  Biso   1.000  H
  H4       1.0000 0.32288  0.23939  0.63805  Biso   1.000  H
  H5       1.0000 0.82288  0.26061  0.36195  Biso   1.000  H
  H6       1.0000 0.17712  0.73939  0.86195  Biso   1.000  H
  H7       1.0000 0.17712  0.26061  0.13805  Biso   1.000  H
  H8       1.0000 0.82288  0.73939  0.63805  Biso   1.000  H
  O17      1.0000 0.19060  0.46230  0.41700  Biso   1.000  O
  O18      1.0000 0.80940  0.53770  0.91700  Biso   1.000  O
  O19      1.0000 0.80940  0.46230  0.08300  Biso   1.000  O
  O20      1.0000 0.19060  0.53770  0.58300  Biso   1.000  O
  O21      1.0000 0.69060  0.96230  0.41700  Biso   1.000  O
  O22      1.0000 0.30940  0.03770  0.91700  Biso   1.000  O
  O23      1.0000 0.30940  0.96230  0.08300  Biso   1.000  O
  O24      1.0000 0.69060  0.03770  0.58300  Biso   1.000  O
  H9       1.0000 0.15619  0.46862  0.38296  Biso   1.000  H
  H10      1.0000 0.84381  0.53138  0.88296  Biso   1.000  H
  H11      1.0000 0.84381  0.46862  0.11704  Biso   1.000  H
  H12      1.0000 0.15619  0.53138  0.61704  Biso   1.000  H
  H13      1.0000 0.65619  0.96862  0.38296  Biso   1.000  H
  H14      1.0000 0.34381  0.03138  0.88296  Biso   1.000  H
  H15      1.0000 0.34381  0.96862  0.11704  Biso   1.000  H
  H16      1.0000 0.65619  0.03138  0.61704  Biso   1.000  H
  C57      1.0000 0.47780  0.78770  0.44840  Biso   1.000  C
  C58      1.0000 0.52220  0.21230  0.94840  Biso   1.000  C
  C59      1.0000 0.52220  0.78770  0.05160  Biso   1.000  C
  C60      1.0000 0.47780  0.21230  0.55160  Biso   1.000  C
  C61      1.0000 0.97780  0.28770  0.44840  Biso   1.000  C
  C62      1.0000 0.02220  0.71230  0.94840  Biso   1.000  C
  C63      1.0000 0.02220  0.28770  0.05160  Biso   1.000  C
  C64      1.0000 0.97780  0.71230  0.55160  Biso   1.000  C
  H17      1.0000 0.47775  0.84131  0.41894  Biso   1.000  H
  H18      1.0000 0.52225  0.15869  0.91894  Biso   1.000  H
  H19      1.0000 0.52225  0.84131  0.08106  Biso   1.000  H
  H20      1.0000 0.47775  0.15869  0.58106  Biso   1.000  H
  H21      1.0000 0.97775  0.34131  0.41894  Biso   1.000  H
  H22      1.0000 0.02225  0.65869  0.91894  Biso   1.000  H
  H23      1.0000 0.02225  0.34131  0.08106  Biso   1.000  H
  H24      1.0000 0.97775  0.65869  0.58106  Biso   1.000  H
  C65      1.0000 0.54970  0.78900  0.49840  Biso   1.000  C
  C66      1.0000 0.45030  0.21100  0.99840  Biso   1.000  C
  C67      1.0000 0.45030  0.78900  0.00160  Biso   1.000  C
  C68      1.0000 0.54970  0.21100  0.50160  Biso   1.000  C
  C69      1.0000 0.04970  0.28900  0.49840  Biso   1.000  C
  C70      1.0000 0.95030  0.71100  0.99840  Biso   1.000  C
  C71      1.0000 0.95030  0.28900  0.00160  Biso   1.000  C
  C72      1.0000 0.04970  0.71100  0.50160  Biso   1.000  C
  H25      1.0000 0.59845  0.84308  0.50319  Biso   1.000  H
  H26      1.0000 0.40155  0.15692  0.00319  Biso   1.000  H
  H27      1.0000 0.40155  0.84308  0.99681  Biso   1.000  H
  H28      1.0000 0.59845  0.15692  0.49681  Biso   1.000  H
  H29      1.0000 0.09845  0.34308  0.50319  Biso   1.000  H
  H30      1.0000 0.90155  0.65692  0.00319  Biso   1.000  H
  H31      1.0000 0.90155  0.34308  0.99681  Biso   1.000  H
  H32      1.0000 0.09845  0.65692  0.49681  Biso   1.000  H
  C73      1.0000 0.55060  0.70940  0.54290  Biso   1.000  C
  C74      1.0000 0.44940  0.29060  0.04290  Biso   1.000  C
  C75      1.0000 0.44940  0.70940  0.95710  Biso   1.000  C
  C76      1.0000 0.55060  0.29060  0.45710  Biso   1.000  C
  C77      1.0000 0.05060  0.20940  0.54290  Biso   1.000  C
  C78      1.0000 0.94940  0.79060  0.04290  Biso   1.000  C
  C79      1.0000 0.94940  0.20940  0.95710  Biso   1.000  C
  C80      1.0000 0.05060  0.79060  0.45710  Biso   1.000  C
  H33      1.0000 0.60080  0.71015  0.57703  Biso   1.000  H
  H34      1.0000 0.39920  0.28985  0.07703  Biso   1.000  H
  H35      1.0000 0.39920  0.71015  0.92297  Biso   1.000  H
  H36      1.0000 0.60080  0.28985  0.42297  Biso   1.000  H
  H37      1.0000 0.10080  0.21015  0.57703  Biso   1.000  H
  H38      1.0000 0.89920  0.78985  0.07703  Biso   1.000  H
  H39      1.0000 0.89920  0.21015  0.92297  Biso   1.000  H
  H40      1.0000 0.10080  0.78985  0.42297  Biso   1.000  H
  C81      1.0000 0.47880  0.63000  0.53700  Biso   1.000  C
  C82      1.0000 0.52120  0.37000  0.03700  Biso   1.000  C
  C83      1.0000 0.52120  0.63000  0.96300  Biso   1.000  C
  C84      1.0000 0.47880  0.37000  0.46300  Biso   1.000  C
  C85      1.0000 0.97880  0.13000  0.53700  Biso   1.000  C
  C86      1.0000 0.02120  0.87000  0.03700  Biso   1.000  C
  C87      1.0000 0.02120  0.13000  0.96300  Biso   1.000  C
  C88      1.0000 0.97880  0.87000  0.46300  Biso   1.000  C
  H41      1.0000 0.47945  0.57801  0.56761  Biso   1.000  H
  H42      1.0000 0.52055  0.42199  0.06761  Biso   1.000  H
  H43      1.0000 0.52055  0.57801  0.93239  Biso   1.000  H
  H44      1.0000 0.47945  0.42199  0.43239  Biso   1.000  H
  H45      1.0000 0.97945  0.07801  0.56761  Biso   1.000  H
  H46      1.0000 0.02055  0.92199  0.06761  Biso   1.000  H
  H47      1.0000 0.02055  0.07801  0.93239  Biso   1.000  H
  H48      1.0000 0.97945  0.92199  0.43239  Biso   1.000  H
  N1       1.0000 0.11760  0.56190  0.18090  Biso   1.000  N
  N2       1.0000 0.88240  0.43810  0.68090  Biso   1.000  N
  N3       1.0000 0.88240  0.56190  0.31910  Biso   1.000  N
  N4       1.0000 0.11760  0.43810  0.81910  Biso   1.000  N
  N5       1.0000 0.61760  0.06190  0.18090  Biso   1.000  N
  N6       1.0000 0.38240  0.93810  0.68090  Biso   1.000  N
  N7       1.0000 0.38240  0.06190  0.31910  Biso   1.000  N
  N8       1.0000 0.61760  0.93810  0.81910  Biso   1.000  N
  C89      1.0000 0.20160  0.61920  0.09040  Biso   1.000  C
  C90      1.0000 0.79840  0.38080  0.59040  Biso   1.000  C
  C91      1.0000 0.79840  0.61920  0.40960  Biso   1.000  C
  C92      1.0000 0.20160  0.38080  0.90960  Biso   1.000  C
  C93      1.0000 0.70160  0.11920  0.09040  Biso   1.000  C
  C94      1.0000 0.29840  0.88080  0.59040  Biso   1.000  C
  C95      1.0000 0.29840  0.11920  0.40960  Biso   1.000  C
  C96      1.0000 0.70160  0.88080  0.90960  Biso   1.000  C
  H49      1.0000 0.19980  0.66759  0.05750  Biso   1.000  H
  H50      1.0000 0.80020  0.33241  0.55750  Biso   1.000  H
  H51      1.0000 0.80020  0.66759  0.44250  Biso   1.000  H
  H52      1.0000 0.19980  0.33241  0.94250  Biso   1.000  H
  H53      1.0000 0.69980  0.16759  0.05750  Biso   1.000  H
  H54      1.0000 0.30020  0.83241  0.55750  Biso   1.000  H
  H55      1.0000 0.30020  0.16759  0.44250  Biso   1.000  H
  H56      1.0000 0.69980  0.83241  0.94250  Biso   1.000  H
  C97      1.0000 0.28390  0.55160  0.09250  Biso   1.000  C
  C98      1.0000 0.71610  0.44840  0.59250  Biso   1.000  C
  C99      1.0000 0.71610  0.55160  0.40750  Biso   1.000  C
  C100     1.0000 0.28390  0.44840  0.90750  Biso   1.000  C
  C101     1.0000 0.78390  0.05160  0.09250  Biso   1.000  C
  C102     1.0000 0.21610  0.94840  0.59250  Biso   1.000  C
  C103     1.0000 0.21610  0.05160  0.40750  Biso   1.000  C
  C104     1.0000 0.78390  0.94840  0.90750  Biso   1.000  C
  H57      1.0000 0.33654  0.54976  0.05967  Biso   1.000  H
  H58      1.0000 0.66346  0.45024  0.55967  Biso   1.000  H
  H59      1.0000 0.66346  0.54976  0.44033  Biso   1.000  H
  H60      1.0000 0.33654  0.45024  0.94033  Biso   1.000  H
  H61      1.0000 0.83654  0.04976  0.05967  Biso   1.000  H
  H62      1.0000 0.16346  0.95024  0.55967  Biso   1.000  H
  H63      1.0000 0.16346  0.04976  0.44033  Biso   1.000  H
  H64      1.0000 0.83654  0.95024  0.94033  Biso   1.000  H
  C105     1.0000 0.12080  0.61770  0.13580  Biso   1.000  C
  C106     1.0000 0.87920  0.38230  0.63580  Biso   1.000  C
  C107     1.0000 0.87920  0.61770  0.36420  Biso   1.000  C
  C108     1.0000 0.12080  0.38230  0.86420  Biso   1.000  C
  C109     1.0000 0.62080  0.11770  0.13580  Biso   1.000  C
  C110     1.0000 0.37920  0.88230  0.63580  Biso   1.000  C
  C111     1.0000 0.37920  0.11770  0.36420  Biso   1.000  C
  C112     1.0000 0.62080  0.88230  0.86420  Biso   1.000  C
  H65      1.0000 0.06341  0.66397  0.13114  Biso   1.000  H
  H66      1.0000 0.93659  0.33603  0.63114  Biso   1.000  H
  H67      1.0000 0.93659  0.66397  0.36886  Biso   1.000  H
  H68      1.0000 0.06341  0.33603  0.86886  Biso   1.000  H
  H69      1.0000 0.56341  0.16397  0.13114  Biso   1.000  H
  H70      1.0000 0.43659  0.83603  0.63114  Biso   1.000  H
  H71      1.0000 0.43659  0.16397  0.36886  Biso   1.000  H
  H72      1.0000 0.56341  0.83603  0.86886  Biso   1.000  H
  C113     1.0000 0.28940  0.48590  0.14320  Biso   1.000  C
  C114     1.0000 0.71060  0.51410  0.64320  Biso   1.000  C
  C115     1.0000 0.71060  0.48590  0.35680  Biso   1.000  C
  C116     1.0000 0.28940  0.51410  0.85680  Biso   1.000  C
  C117     1.0000 0.78940  0.98590  0.14320  Biso   1.000  C
  C118     1.0000 0.21060  0.01410  0.64320  Biso   1.000  C
  C119     1.0000 0.21060  0.98590  0.35680  Biso   1.000  C
  C120     1.0000 0.78940  0.01410  0.85680  Biso   1.000  C
  H73      1.0000 0.34898  0.44233  0.14905  Biso   1.000  H
  H74      1.0000 0.65102  0.55767  0.64905  Biso   1.000  H
  H75      1.0000 0.65102  0.44233  0.35095  Biso   1.000  H
  H76      1.0000 0.34898  0.55767  0.85095  Biso   1.000  H
  H77      1.0000 0.84898  0.94233  0.14905  Biso   1.000  H
  H78      1.0000 0.15102  0.05767  0.64905  Biso   1.000  H
  H79      1.0000 0.15102  0.94233  0.35095  Biso   1.000  H
  H80      1.0000 0.84898  0.05767  0.85095  Biso   1.000  H
  C121     1.0000 0.20160  0.48760  0.18550  Biso   1.000  C
  C122     1.0000 0.79840  0.51240  0.68550  Biso   1.000  C
  C123     1.0000 0.79840  0.48760  0.31450  Biso   1.000  C
  C124     1.0000 0.20160  0.51240  0.81450  Biso   1.000  C
  C125     1.0000 0.70160  0.98760  0.18550  Biso   1.000  C
  C126     1.0000 0.29840  0.01240  0.68550  Biso   1.000  C
  C127     1.0000 0.29840  0.98760  0.31450  Biso   1.000  C
  C128     1.0000 0.70160  0.01240  0.81450  Biso   1.000  C
  H81      1.0000 0.19739  0.43859  0.21802  Biso   1.000  H
  H82      1.0000 0.80261  0.56141  0.71802  Biso   1.000  H
  H83      1.0000 0.80261  0.43859  0.28198  Biso   1.000  H
  H84      1.0000 0.19739  0.56141  0.78198  Biso   1.000  H
  H85      1.0000 0.69739  0.93859  0.21802  Biso   1.000  H
  H86      1.0000 0.30261  0.06141  0.71802  Biso   1.000  H
  H87      1.0000 0.30261  0.93859  0.28198  Biso   1.000  H
  H88      1.0000 0.69739  0.06141  0.78198  Biso   1.000  H
  C129     1.0000 0.96090  0.11590  0.22570  Biso   1.000  C
  C130     1.0000 0.03910  0.88410  0.72570  Biso   1.000  C
  C131     1.0000 0.03910  0.11590  0.27430  Biso   1.000  C
  C132     1.0000 0.96090  0.88410  0.77430  Biso   1.000  C
  C133     1.0000 0.46090  0.61590  0.22570  Biso   1.000  C
  C134     1.0000 0.53910  0.38410  0.72570  Biso   1.000  C
  C135     1.0000 0.53910  0.61590  0.27430  Biso   1.000  C
  C136     1.0000 0.46090  0.38410  0.77430  Biso   1.000  C
  H89      1.0000 0.00437  0.05980  0.24098  Biso   1.000  H
  H90      1.0000 0.99563  0.94020  0.74098  Biso   1.000  H
  H91      1.0000 0.99563  0.05980  0.25902  Biso   1.000  H
  H92      1.0000 0.00437  0.94020  0.75902  Biso   1.000  H
  H93      1.0000 0.50437  0.55980  0.24098  Biso   1.000  H
  H94      1.0000 0.49563  0.44020  0.74098  Biso   1.000  H
  H95      1.0000 0.49563  0.55980  0.25902  Biso   1.000  H
  H96      1.0000 0.50437  0.44020  0.75902  Biso   1.000  H
  H97      1.0000 0.88593  0.10748  0.23966  Biso   1.000  H
  H98      1.0000 0.11407  0.89252  0.73966  Biso   1.000  H
  H99      1.0000 0.11407  0.10748  0.26034  Biso   1.000  H
  H100     1.0000 0.88593  0.89252  0.76034  Biso   1.000  H
  H101     1.0000 0.38593  0.60748  0.23966  Biso   1.000  H
  H102     1.0000 0.61407  0.39252  0.73966  Biso   1.000  H
  H103     1.0000 0.61407  0.60748  0.26034  Biso   1.000  H
  H104     1.0000 0.38593  0.39252  0.76034  Biso   1.000  H
  H105     1.0000 0.96348  0.11822  0.17908  Biso   1.000  H
  H106     1.0000 0.03652  0.88178  0.67908  Biso   1.000  H
  H107     1.0000 0.03652  0.11822  0.32092  Biso   1.000  H
  H108     1.0000 0.96348  0.88178  0.82092  Biso   1.000  H
  H109     1.0000 0.46348  0.61822  0.17908  Biso   1.000  H
  H110     1.0000 0.53652  0.38178  0.67908  Biso   1.000  H
  H111     1.0000 0.53652  0.61822  0.32092  Biso   1.000  H
  H112     1.0000 0.46348  0.38178  0.82092  Biso   1.000  H
  C137     1.0000 0.10120  0.20340  0.29350  Biso   1.000  C
  C138     1.0000 0.89880  0.79660  0.79350  Biso   1.000  C
  C139     1.0000 0.89880  0.20340  0.20650  Biso   1.000  C
  C140     1.0000 0.10120  0.79660  0.70650  Biso   1.000  C
  C141     1.0000 0.60120  0.70340  0.29350  Biso   1.000  C
  C142     1.0000 0.39880  0.29660  0.79350  Biso   1.000  C
  C143     1.0000 0.39880  0.70340  0.20650  Biso   1.000  C
  C144     1.0000 0.60120  0.29660  0.70650  Biso   1.000  C
  H113     1.0000 0.12242  0.13341  0.29805  Biso   1.000  H
  H114     1.0000 0.87758  0.86659  0.79805  Biso   1.000  H
  H115     1.0000 0.87758  0.13341  0.20195  Biso   1.000  H
  H116     1.0000 0.12242  0.86659  0.70195  Biso   1.000  H
  H117     1.0000 0.62242  0.63341  0.29805  Biso   1.000  H
  H118     1.0000 0.37758  0.36659  0.79805  Biso   1.000  H
  H119     1.0000 0.37758  0.63341  0.20195  Biso   1.000  H
  H120     1.0000 0.62242  0.36659  0.70195  Biso   1.000  H
  H121     1.0000 0.16068  0.24110  0.27443  Biso   1.000  H
  H122     1.0000 0.83932  0.75890  0.77443  Biso   1.000  H
  H123     1.0000 0.83932  0.24110  0.22557  Biso   1.000  H
  H124     1.0000 0.16068  0.75890  0.72557  Biso   1.000  H
  H125     1.0000 0.66068  0.74110  0.27443  Biso   1.000  H
  H126     1.0000 0.33932  0.25890  0.77443  Biso   1.000  H
  H127     1.0000 0.33932  0.74110  0.22557  Biso   1.000  H
  H128     1.0000 0.66068  0.25890  0.72557  Biso   1.000  H
  H129     1.0000 0.08424  0.23103  0.33554  Biso   1.000  H
  H130     1.0000 0.91576  0.76897  0.83554  Biso   1.000  H
  H131     1.0000 0.91576  0.23103  0.16446  Biso   1.000  H
  H132     1.0000 0.08424  0.76897  0.66446  Biso   1.000  H
  H133     1.0000 0.58424  0.73103  0.33554  Biso   1.000  H
  H134     1.0000 0.41576  0.26897  0.83554  Biso   1.000  H
  H135     1.0000 0.41576  0.73103  0.16446  Biso   1.000  H
  H136     1.0000 0.58424  0.26897  0.66446  Biso   1.000  H
  C145     1.0000 0.96090  0.29850  0.23900  Biso   1.000  C
  C146     1.0000 0.03910  0.70150  0.73900  Biso   1.000  C
  C147     1.0000 0.03910  0.29850  0.26100  Biso   1.000  C
  C148     1.0000 0.96090  0.70150  0.76100  Biso   1.000  C
  C149     1.0000 0.46090  0.79850  0.23900  Biso   1.000  C
  C150     1.0000 0.53910  0.20150  0.73900  Biso   1.000  C
  C151     1.0000 0.53910  0.79850  0.26100  Biso   1.000  C
  C152     1.0000 0.46090  0.20150  0.76100  Biso   1.000  C
  H137     1.0000 0.89884  0.30023  0.21247  Biso   1.000  H
  H138     1.0000 0.10116  0.69977  0.71247  Biso   1.000  H
  H139     1.0000 0.10116  0.30023  0.28753  Biso   1.000  H
  H140     1.0000 0.89884  0.69977  0.78753  Biso   1.000  H
  H141     1.0000 0.39884  0.80023  0.21247  Biso   1.000  H
  H142     1.0000 0.60116  0.19977  0.71247  Biso   1.000  H
  H143     1.0000 0.60116  0.80023  0.28753  Biso   1.000  H
  H144     1.0000 0.39884  0.19977  0.78753  Biso   1.000  H
  N9       1.0000 0.00470  0.21030  0.25200  Biso   1.000  N
  N10      1.0000 0.99530  0.78970  0.75200  Biso   1.000  N
  N11      1.0000 0.99530  0.21030  0.24800  Biso   1.000  N
  N12      1.0000 0.00470  0.78970  0.74800  Biso   1.000  N
  N13      1.0000 0.50470  0.71030  0.25200  Biso   1.000  N
  N14      1.0000 0.49530  0.28970  0.75200  Biso   1.000  N
  N15      1.0000 0.49530  0.71030  0.24800  Biso   1.000  N
  N16      1.0000 0.50470  0.28970  0.74800  Biso   1.000  N
  O25      1.0000 0.99800  0.38050  0.26000  Biso   1.000  O
  O26      1.0000 0.00200  0.61950  0.76000  Biso   1.000  O
  O27      1.0000 0.00200  0.38050  0.24000  Biso   1.000  O
  O28      1.0000 0.99800  0.61950  0.74000  Biso   1.000  O
  O29      1.0000 0.49800  0.88050  0.26000  Biso   1.000  O
  O30      1.0000 0.50200  0.11950  0.76000  Biso   1.000  O
  O31      1.0000 0.50200  0.88050  0.24000  Biso   1.000  O
  O32      1.0000 0.49800  0.11950  0.74000  Biso   1.000  O
  O33      1.0000 0.50000  0.36490  0.25000  Biso   1.000  O
  O34      1.0000 0.50000  0.63510  0.75000  Biso   1.000  O
  O35      1.0000 0.00000  0.86490  0.25000  Biso   1.000  O
  O36      1.0000 0.00000  0.13510  0.75000  Biso   1.000  O
  H145     1.0000 0.45220  0.31791  0.23540  Biso   1.000  H
  H146     1.0000 0.54780  0.68209  0.73540  Biso   1.000  H
  H147     1.0000 0.54780  0.31791  0.26460  Biso   1.000  H
  H148     1.0000 0.45220  0.68209  0.76460  Biso   1.000  H
  H149     1.0000 0.95220  0.81791  0.23540  Biso   1.000  H
  H150     1.0000 0.04780  0.18209  0.73540  Biso   1.000  H
  H151     1.0000 0.04780  0.81791  0.26460  Biso   1.000  H
  H152     1.0000 0.95220  0.18209  0.76460  Biso   1.000  H
  C153     1.0000 0.18510  0.48330  0.15950  Biso   1.000  C
  C154     1.0000 0.81490  0.51670  0.65950  Biso   1.000  C
  C155     1.0000 0.81490  0.48330  0.34050  Biso   1.000  C
  C156     1.0000 0.18510  0.51670  0.84050  Biso   1.000  C
  C157     1.0000 0.68510  0.98330  0.15950  Biso   1.000  C
  C158     1.0000 0.31490  0.01670  0.65950  Biso   1.000  C
  C159     1.0000 0.31490  0.98330  0.34050  Biso   1.000  C
  C160     1.0000 0.68510  0.01670  0.84050  Biso   1.000  C
  H153     1.0000 0.18044  0.41947  0.17881  Biso   1.000  H
  H154     1.0000 0.81956  0.58053  0.67881  Biso   1.000  H
  H155     1.0000 0.81956  0.41947  0.32119  Biso   1.000  H
  H156     1.0000 0.18044  0.58053  0.82119  Biso   1.000  H
  H157     1.0000 0.68044  0.91947  0.17881  Biso   1.000  H
  H158     1.0000 0.31956  0.08053  0.67881  Biso   1.000  H
  H159     1.0000 0.31956  0.91947  0.32119  Biso   1.000  H
  H160     1.0000 0.68044  0.08053  0.82119  Biso   1.000  H
  C161     1.0000 0.12450  0.65720  0.15210  Biso   1.000  C
  C162     1.0000 0.87550  0.34280  0.65210  Biso   1.000  C
  C163     1.0000 0.87550  0.65720  0.34790  Biso   1.000  C
  C164     1.0000 0.12450  0.34280  0.84790  Biso   1.000  C
  C165     1.0000 0.62450  0.15720  0.15210  Biso   1.000  C
  C166     1.0000 0.37550  0.84280  0.65210  Biso   1.000  C
  C167     1.0000 0.37550  0.15720  0.34790  Biso   1.000  C
  C168     1.0000 0.62450  0.84280  0.84790  Biso   1.000  C
  H161     1.0000 0.07939  0.70978  0.16642  Biso   1.000  H
  H162     1.0000 0.92061  0.29022  0.66642  Biso   1.000  H
  H163     1.0000 0.92061  0.70978  0.33358  Biso   1.000  H
  H164     1.0000 0.07939  0.29022  0.83358  Biso   1.000  H
  H165     1.0000 0.57939  0.20978  0.16642  Biso   1.000  H
  H166     1.0000 0.42061  0.79022  0.66642  Biso   1.000  H
  H167     1.0000 0.42061  0.20978  0.33358  Biso   1.000  H
  H168     1.0000 0.57939  0.79022  0.83358  Biso   1.000  H
  C169     1.0000 0.19880  0.67400  0.10180  Biso   1.000  C
  C170     1.0000 0.80120  0.32600  0.60180  Biso   1.000  C
  C171     1.0000 0.80120  0.67400  0.39820  Biso   1.000  C
  C172     1.0000 0.19880  0.32600  0.89820  Biso   1.000  C
  C173     1.0000 0.69880  0.17400  0.10180  Biso   1.000  C
  C174     1.0000 0.30120  0.82600  0.60180  Biso   1.000  C
  C175     1.0000 0.30120  0.17400  0.39820  Biso   1.000  C
  C176     1.0000 0.69880  0.82600  0.89820  Biso   1.000  C
  H169     1.0000 0.20345  0.73774  0.08246  Biso   1.000  H
  H170     1.0000 0.79655  0.26226  0.58246  Biso   1.000  H
  H171     1.0000 0.79655  0.73774  0.41754  Biso   1.000  H
  H172     1.0000 0.20345  0.26226  0.91754  Biso   1.000  H
  H173     1.0000 0.70345  0.23774  0.08246  Biso   1.000  H
  H174     1.0000 0.29655  0.76226  0.58246  Biso   1.000  H
  H175     1.0000 0.29655  0.23774  0.41754  Biso   1.000  H
  H176     1.0000 0.70345  0.76226  0.91754  Biso   1.000  H
  C177     1.0000 0.26630  0.59500  0.08030  Biso   1.000  C
  C178     1.0000 0.73370  0.40500  0.58030  Biso   1.000  C
  C179     1.0000 0.73370  0.59500  0.41970  Biso   1.000  C
  C180     1.0000 0.26630  0.40500  0.91970  Biso   1.000  C
  C181     1.0000 0.76630  0.09500  0.08030  Biso   1.000  C
  C182     1.0000 0.23370  0.90500  0.58030  Biso   1.000  C
  C183     1.0000 0.23370  0.09500  0.41970  Biso   1.000  C
  C184     1.0000 0.76630  0.90500  0.91970  Biso   1.000  C
  H177     1.0000 0.31601  0.60657  0.04668  Biso   1.000  H
  H178     1.0000 0.68399  0.39343  0.54668  Biso   1.000  H
  H179     1.0000 0.68399  0.60657  0.45332  Biso   1.000  H
  H180     1.0000 0.31601  0.39343  0.95332  Biso   1.000  H
  H181     1.0000 0.81601  0.10657  0.04668  Biso   1.000  H
  H182     1.0000 0.18399  0.89343  0.54668  Biso   1.000  H
  H183     1.0000 0.18399  0.10657  0.45332  Biso   1.000  H
  H184     1.0000 0.81601  0.89343  0.95332  Biso   1.000  H
  C185     1.0000 0.25940  0.50000  0.10920  Biso   1.000  C
  C186     1.0000 0.74060  0.50000  0.60920  Biso   1.000  C
  C187     1.0000 0.74060  0.50000  0.39080  Biso   1.000  C
  C188     1.0000 0.25940  0.50000  0.89080  Biso   1.000  C
  C189     1.0000 0.75940  0.00000  0.10920  Biso   1.000  C
  C190     1.0000 0.24060  0.00000  0.60920  Biso   1.000  C
  C191     1.0000 0.24060  0.00000  0.39080  Biso   1.000  C
  C192     1.0000 0.75940  0.00000  0.89080  Biso   1.000  C
  H185     1.0000 0.30450  0.44743  0.09485  Biso   1.000  H
  H186     1.0000 0.69550  0.55257  0.59485  Biso   1.000  H
  H187     1.0000 0.69550  0.44743  0.40515  Biso   1.000  H
  H188     1.0000 0.30450  0.55257  0.90515  Biso   1.000  H
  H189     1.0000 0.80450  0.94743  0.09485  Biso   1.000  H
  H190     1.0000 0.19550  0.05257  0.59485  Biso   1.000  H
  H191     1.0000 0.19550  0.94743  0.40515  Biso   1.000  H
  H192     1.0000 0.80450  0.05257  0.90515  Biso   1.000  H
