data_image0
_cell_length_a       13.189
_cell_length_b       18.059
_cell_length_c       11.436
_cell_angle_alpha    90
_cell_angle_beta     102.319
_cell_angle_gamma    90

_symmetry_space_group_name_H-M    "P 1"
_symmetry_int_tables_number       1

loop_
  _symmetry_equiv_pos_as_xyz
  'x, y, z'

loop_
  _atom_site_label
  _atom_site_occupancy
  _atom_site_fract_x
  _atom_site_fract_y
  _atom_site_fract_z
  _atom_site_thermal_displace_type
  _atom_site_B_iso_or_equiv
  _atom_site_type_symbol
  Cu1      1.0000 0.00000  0.50000  0.00000  Biso   1.000  Cu
  Cu2      1.0000 0.00000  0.00000  0.50000  Biso   1.000  Cu
  O1       1.0000 0.12050  0.55743  0.69570  Biso   1.000  O
  O2       1.0000 0.87950  0.05743  0.80430  Biso   1.000  O
  O3       1.0000 0.87950  0.44257  0.30430  Biso   1.000  O
  O4       1.0000 0.12050  0.94257  0.19570  Biso   1.000  O
  H1       1.0000 0.09162  0.55350  0.75211  Biso   1.000  H
  H2       1.0000 0.90838  0.05350  0.74789  Biso   1.000  H
  H3       1.0000 0.90838  0.44650  0.24789  Biso   1.000  H
  H4       1.0000 0.09162  0.94650  0.25211  Biso   1.000  H
  O5       1.0000 0.07650  0.56417  0.12630  Biso   1.000  O
  O6       1.0000 0.92350  0.06417  0.37370  Biso   1.000  O
  O7       1.0000 0.92350  0.43583  0.87370  Biso   1.000  O
  O8       1.0000 0.07650  0.93583  0.62630  Biso   1.000  O
  O9       1.0000 0.10680  0.46301  0.24050  Biso   1.000  O
  O10      1.0000 0.89320  0.96301  0.25950  Biso   1.000  O
  O11      1.0000 0.89320  0.53699  0.75950  Biso   1.000  O
  O12      1.0000 0.10680  0.03699  0.74050  Biso   1.000  O
  O13      1.0000 0.10000  0.51853  0.90200  Biso   1.000  O
  O14      1.0000 0.90000  0.01853  0.59800  Biso   1.000  O
  O15      1.0000 0.90000  0.48147  0.09800  Biso   1.000  O
  O16      1.0000 0.10000  0.98147  0.40200  Biso   1.000  O
  O17      1.0000 0.19710  0.47185  0.45800  Biso   1.000  O
  O18      1.0000 0.80290  0.97185  0.04200  Biso   1.000  O
  O19      1.0000 0.80290  0.52815  0.54200  Biso   1.000  O
  O20      1.0000 0.19710  0.02815  0.95800  Biso   1.000  O
  H5       1.0000 0.17110  0.45231  0.39390  Biso   1.000  H
  H6       1.0000 0.82890  0.95231  0.10610  Biso   1.000  H
  H7       1.0000 0.82890  0.54769  0.60610  Biso   1.000  H
  H8       1.0000 0.17110  0.04769  0.89390  Biso   1.000  H
  O21      1.0000 0.19880  0.42700  0.99300  Biso   1.000  O
  O22      1.0000 0.80120  0.92700  0.50700  Biso   1.000  O
  O23      1.0000 0.80120  0.57300  0.00700  Biso   1.000  O
  O24      1.0000 0.19880  0.07300  0.49300  Biso   1.000  O
  C1       1.0000 0.22230  0.53450  0.73060  Biso   1.000  C
  C2       1.0000 0.77770  0.03450  0.76940  Biso   1.000  C
  C3       1.0000 0.77770  0.46550  0.26940  Biso   1.000  C
  C4       1.0000 0.22230  0.96550  0.23060  Biso   1.000  C
  C5       1.0000 0.25690  0.66570  0.52740  Biso   1.000  C
  C6       1.0000 0.74310  0.16570  0.97260  Biso   1.000  C
  C7       1.0000 0.74310  0.33430  0.47260  Biso   1.000  C
  C8       1.0000 0.25690  0.83430  0.02740  Biso   1.000  C
  C9       1.0000 0.16240  0.57870  0.32950  Biso   1.000  C
  C10      1.0000 0.83760  0.07870  0.17050  Biso   1.000  C
  C11      1.0000 0.83760  0.42130  0.67050  Biso   1.000  C
  C12      1.0000 0.16240  0.92130  0.82950  Biso   1.000  C
  C13      1.0000 0.25340  0.49350  0.83810  Biso   1.000  C
  C14      1.0000 0.74660  0.99350  0.66190  Biso   1.000  C
  C15      1.0000 0.74660  0.50650  0.16190  Biso   1.000  C
  C16      1.0000 0.25340  0.00650  0.33810  Biso   1.000  C
  C17      1.0000 0.11180  0.53220  0.22470  Biso   1.000  C
  C18      1.0000 0.88820  0.03220  0.27530  Biso   1.000  C
  C19      1.0000 0.88820  0.46780  0.77530  Biso   1.000  C
  C20      1.0000 0.11180  0.96780  0.72470  Biso   1.000  C
  C21      1.0000 0.20330  0.54580  0.44250  Biso   1.000  C
  C22      1.0000 0.79670  0.04580  0.05750  Biso   1.000  C
  C23      1.0000 0.79670  0.45420  0.55750  Biso   1.000  C
  C24      1.0000 0.20330  0.95420  0.94250  Biso   1.000  C
  C25      1.0000 0.30400  0.71210  0.62220  Biso   1.000  C
  C26      1.0000 0.69600  0.21210  0.87780  Biso   1.000  C
  C27      1.0000 0.69600  0.28790  0.37780  Biso   1.000  C
  C28      1.0000 0.30400  0.78790  0.12220  Biso   1.000  C
  H9       1.0000 0.33290  0.69127  0.69623  Biso   1.000  H
  H10      1.0000 0.66710  0.19127  0.80377  Biso   1.000  H
  H11      1.0000 0.66710  0.30873  0.30377  Biso   1.000  H
  H12      1.0000 0.33290  0.80873  0.19623  Biso   1.000  H
  C29      1.0000 0.25000  0.58820  0.53990  Biso   1.000  C
  C30      1.0000 0.75000  0.08820  0.96010  Biso   1.000  C
  C31      1.0000 0.75000  0.41180  0.46010  Biso   1.000  C
  C32      1.0000 0.25000  0.91180  0.03990  Biso   1.000  C
  C33      1.0000 0.18110  0.47640  0.91840  Biso   1.000  C
  C34      1.0000 0.81890  0.97640  0.58160  Biso   1.000  C
  C35      1.0000 0.81890  0.52360  0.08160  Biso   1.000  C
  C36      1.0000 0.18110  0.02360  0.41840  Biso   1.000  C
  C37      1.0000 0.21410  0.69960  0.41400  Biso   1.000  C
  C38      1.0000 0.78590  0.19960  0.08600  Biso   1.000  C
  C39      1.0000 0.78590  0.30040  0.58600  Biso   1.000  C
  C40      1.0000 0.21410  0.80040  0.91400  Biso   1.000  C
  C41      1.0000 0.39420  0.52930  0.69400  Biso   1.000  C
  C42      1.0000 0.60580  0.02930  0.80600  Biso   1.000  C
  C43      1.0000 0.60580  0.47070  0.30600  Biso   1.000  C
  C44      1.0000 0.39420  0.97070  0.19400  Biso   1.000  C
  C45      1.0000 0.28870  0.55060  0.65730  Biso   1.000  C
  C46      1.0000 0.71130  0.05060  0.84270  Biso   1.000  C
  C47      1.0000 0.71130  0.44940  0.34270  Biso   1.000  C
  C48      1.0000 0.28870  0.94940  0.15730  Biso   1.000  C
  C49      1.0000 0.42790  0.48870  0.80270  Biso   1.000  C
  C50      1.0000 0.57210  0.98870  0.69730  Biso   1.000  C
  C51      1.0000 0.57210  0.51130  0.19730  Biso   1.000  C
  C52      1.0000 0.42790  0.01130  0.30270  Biso   1.000  C
  C53      1.0000 0.35460  0.47110  0.87020  Biso   1.000  C
  C54      1.0000 0.64540  0.97110  0.62980  Biso   1.000  C
  C55      1.0000 0.64540  0.52890  0.12980  Biso   1.000  C
  C56      1.0000 0.35460  0.02890  0.37020  Biso   1.000  C
  H13      1.0000 0.37531  0.44310  0.93945  Biso   1.000  H
  H14      1.0000 0.62469  0.94310  0.56055  Biso   1.000  H
  H15      1.0000 0.62469  0.55690  0.06055  Biso   1.000  H
  H16      1.0000 0.37531  0.05690  0.43945  Biso   1.000  H
  C57      1.0000 0.16890  0.65360  0.31850  Biso   1.000  C
  C58      1.0000 0.83110  0.15360  0.18150  Biso   1.000  C
  C59      1.0000 0.83110  0.34640  0.68150  Biso   1.000  C
  C60      1.0000 0.16890  0.84640  0.81850  Biso   1.000  C
  H17      1.0000 0.14210  0.67504  0.24440  Biso   1.000  H
  H18      1.0000 0.85790  0.17504  0.25560  Biso   1.000  H
  H19      1.0000 0.85790  0.32496  0.75560  Biso   1.000  H
  H20      1.0000 0.14210  0.82496  0.74440  Biso   1.000  H
  C61      1.0000 0.47050  0.54810  0.62760  Biso   1.000  C
  C62      1.0000 0.52950  0.04810  0.87240  Biso   1.000  C
  C63      1.0000 0.52950  0.45190  0.37240  Biso   1.000  C
  C64      1.0000 0.47050  0.95190  0.12760  Biso   1.000  C
  H21      1.0000 0.45067  0.57418  0.55620  Biso   1.000  H
  H22      1.0000 0.54933  0.07418  0.94380  Biso   1.000  H
  H23      1.0000 0.54933  0.42582  0.44380  Biso   1.000  H
  H24      1.0000 0.45067  0.92582  0.05620  Biso   1.000  H
  C65      1.0000 0.26440  0.82020  0.49830  Biso   1.000  C
  C66      1.0000 0.73560  0.32020  0.00170  Biso   1.000  C
  C67      1.0000 0.73560  0.17980  0.50170  Biso   1.000  C
  C68      1.0000 0.26440  0.67980  0.99830  Biso   1.000  C
  H25      1.0000 0.26626  0.87137  0.49052  Biso   1.000  H
  H26      1.0000 0.73374  0.37137  0.00948  Biso   1.000  H
  H27      1.0000 0.73374  0.12863  0.50948  Biso   1.000  H
  H28      1.0000 0.26626  0.62863  0.99052  Biso   1.000  H
  C69      1.0000 0.53300  0.46900  0.83830  Biso   1.000  C
  C70      1.0000 0.46700  0.96900  0.66170  Biso   1.000  C
  C71      1.0000 0.46700  0.53100  0.16170  Biso   1.000  C
  C72      1.0000 0.53300  0.03100  0.33830  Biso   1.000  C
  H29      1.0000 0.55463  0.44149  0.90789  Biso   1.000  H
  H30      1.0000 0.44537  0.94149  0.59211  Biso   1.000  H
  H31      1.0000 0.44537  0.55851  0.09211  Biso   1.000  H
  H32      1.0000 0.55463  0.05851  0.40789  Biso   1.000  H
  C73      1.0000 0.30820  0.78700  0.60780  Biso   1.000  C
  C74      1.0000 0.69180  0.28700  0.89220  Biso   1.000  C
  C75      1.0000 0.69180  0.21300  0.39220  Biso   1.000  C
  C76      1.0000 0.30820  0.71300  0.10780  Biso   1.000  C
  H33      1.0000 0.34072  0.81632  0.67178  Biso   1.000  H
  H34      1.0000 0.65928  0.31632  0.82822  Biso   1.000  H
  H35      1.0000 0.65928  0.18368  0.32822  Biso   1.000  H
  H36      1.0000 0.34072  0.68368  0.17178  Biso   1.000  H
  C77      1.0000 0.21950  0.77820  0.40400  Biso   1.000  C
  C78      1.0000 0.78050  0.27820  0.09600  Biso   1.000  C
  C79      1.0000 0.78050  0.22180  0.59600  Biso   1.000  C
  C80      1.0000 0.21950  0.72180  0.90400  Biso   1.000  C
  H37      1.0000 0.19162  0.80088  0.33123  Biso   1.000  H
  H38      1.0000 0.80838  0.30088  0.16877  Biso   1.000  H
  H39      1.0000 0.80838  0.19912  0.66877  Biso   1.000  H
  H40      1.0000 0.19162  0.69912  0.83123  Biso   1.000  H
  C81      1.0000 0.60330  0.48870  0.77440  Biso   1.000  C
  C82      1.0000 0.39670  0.98870  0.72560  Biso   1.000  C
  C83      1.0000 0.39670  0.51130  0.22560  Biso   1.000  C
  C84      1.0000 0.60330  0.01130  0.27440  Biso   1.000  C
  H41      1.0000 0.67270  0.47601  0.80138  Biso   1.000  H
  H42      1.0000 0.32730  0.97601  0.69862  Biso   1.000  H
  H43      1.0000 0.32730  0.52399  0.19862  Biso   1.000  H
  H44      1.0000 0.67270  0.02399  0.30138  Biso   1.000  H
  C85      1.0000 0.57240  0.52860  0.66700  Biso   1.000  C
  C86      1.0000 0.42760  0.02860  0.83300  Biso   1.000  C
  C87      1.0000 0.42760  0.47140  0.33300  Biso   1.000  C
  C88      1.0000 0.57240  0.97140  0.16700  Biso   1.000  C
  H45      1.0000 0.62120  0.54168  0.62273  Biso   1.000  H
  H46      1.0000 0.37880  0.04168  0.87727  Biso   1.000  H
  H47      1.0000 0.37880  0.45832  0.37727  Biso   1.000  H
  H48      1.0000 0.62120  0.95832  0.12273  Biso   1.000  H
  N1       1.0000 0.00930  0.14390  0.98420  Biso   1.000  N
  N2       1.0000 0.99070  0.64390  0.51580  Biso   1.000  N
  N3       1.0000 0.99070  0.85610  0.01580  Biso   1.000  N
  N4       1.0000 0.00930  0.35610  0.48420  Biso   1.000  N
  C89      1.0000 0.06820  0.13120  0.09190  Biso   1.000  C
  C90      1.0000 0.93180  0.63120  0.40810  Biso   1.000  C
  C91      1.0000 0.93180  0.86880  0.90810  Biso   1.000  C
  C92      1.0000 0.06820  0.36880  0.59190  Biso   1.000  C
  H49      1.0000 0.07469  0.08304  0.12132  Biso   1.000  H
  H50      1.0000 0.92531  0.58304  0.37868  Biso   1.000  H
  H51      1.0000 0.92531  0.91696  0.87868  Biso   1.000  H
  H52      1.0000 0.07469  0.41696  0.62132  Biso   1.000  H
  C93      1.0000 0.11840  0.18590  0.15910  Biso   1.000  C
  C94      1.0000 0.88160  0.68590  0.34090  Biso   1.000  C
  C95      1.0000 0.88160  0.81410  0.84090  Biso   1.000  C
  C96      1.0000 0.11840  0.31410  0.65910  Biso   1.000  C
  H53      1.0000 0.15891  0.17550  0.23432  Biso   1.000  H
  H54      1.0000 0.84109  0.67550  0.26568  Biso   1.000  H
  H55      1.0000 0.84109  0.82450  0.76568  Biso   1.000  H
  H56      1.0000 0.15891  0.32450  0.73432  Biso   1.000  H
  C97      1.0000 0.10980  0.25930  0.11580  Biso   1.000  C
  C98      1.0000 0.89020  0.75930  0.38420  Biso   1.000  C
  C99      1.0000 0.89020  0.74070  0.88420  Biso   1.000  C
  C100     1.0000 0.10980  0.24070  0.61580  Biso   1.000  C
  C101     1.0000 0.04640  0.27030  0.00270  Biso   1.000  C
  C102     1.0000 0.95360  0.77030  0.49730  Biso   1.000  C
  C103     1.0000 0.95360  0.72970  0.99730  Biso   1.000  C
  C104     1.0000 0.04640  0.22970  0.50270  Biso   1.000  C
  H57      1.0000 0.03734  0.31777  0.97057  Biso   1.000  H
  H58      1.0000 0.96266  0.81777  0.52943  Biso   1.000  H
  H59      1.0000 0.96266  0.68223  0.02943  Biso   1.000  H
  H60      1.0000 0.03734  0.18223  0.47057  Biso   1.000  H
  N5       1.0000 0.15860  0.31390  0.17940  Biso   1.000  N
  N6       1.0000 0.84140  0.81390  0.32060  Biso   1.000  N
  N7       1.0000 0.84140  0.68610  0.82060  Biso   1.000  N
  N8       1.0000 0.15860  0.18610  0.67940  Biso   1.000  N
  H61      1.0000 0.15209  0.35832  0.15180  Biso   1.000  H
  H62      1.0000 0.84791  0.85832  0.34820  Biso   1.000  H
  H63      1.0000 0.84791  0.64168  0.84820  Biso   1.000  H
  H64      1.0000 0.15209  0.14168  0.65180  Biso   1.000  H
  H65      1.0000 0.19704  0.30527  0.24879  Biso   1.000  H
  H66      1.0000 0.80296  0.80527  0.25121  Biso   1.000  H
  H67      1.0000 0.80296  0.69473  0.75121  Biso   1.000  H
  H68      1.0000 0.19704  0.19473  0.74879  Biso   1.000  H
  C105     1.0000 0.99890  0.21300  0.94040  Biso   1.000  C
  C106     1.0000 0.00110  0.71300  0.55960  Biso   1.000  C
  C107     1.0000 0.00110  0.78700  0.05960  Biso   1.000  C
  C108     1.0000 0.99890  0.28700  0.44040  Biso   1.000  C
  H69      1.0000 0.95748  0.22122  0.86489  Biso   1.000  H
  H70      1.0000 0.04252  0.72122  0.63511  Biso   1.000  H
  H71      1.0000 0.04252  0.77878  0.13511  Biso   1.000  H
  H72      1.0000 0.95748  0.27878  0.36489  Biso   1.000  H
  H73      1.0000 0.96200  0.11200  0.93300  Biso   1.000  H
  H74      1.0000 0.03800  0.61200  0.56700  Biso   1.000  H
  H75      1.0000 0.03800  0.88800  0.06700  Biso   1.000  H
  H76      1.0000 0.96200  0.38800  0.43300  Biso   1.000  H
  O25      1.0000 0.28280  0.28760  0.40570  Biso   1.000  O
  O26      1.0000 0.71720  0.78760  0.09430  Biso   1.000  O
  O27      1.0000 0.71720  0.71240  0.59430  Biso   1.000  O
  O28      1.0000 0.28280  0.21240  0.90570  Biso   1.000  O
  C109     1.0000 0.31780  0.24680  0.47160  Biso   1.000  C
  C110     1.0000 0.68220  0.74680  0.02840  Biso   1.000  C
  C111     1.0000 0.68220  0.75320  0.52840  Biso   1.000  C
  C112     1.0000 0.31780  0.25320  0.97160  Biso   1.000  C
  H77      1.0000 0.29337  0.20782  0.46754  Biso   1.000  H
  H78      1.0000 0.70663  0.70782  0.03246  Biso   1.000  H
  H79      1.0000 0.70663  0.79218  0.53246  Biso   1.000  H
  H80      1.0000 0.29337  0.29218  0.96754  Biso   1.000  H
  C113     1.0000 0.42510  0.32410  0.62160  Biso   1.000  C
  C114     1.0000 0.57490  0.82410  0.87840  Biso   1.000  C
  C115     1.0000 0.57490  0.67590  0.37840  Biso   1.000  C
  C116     1.0000 0.42510  0.17590  0.12160  Biso   1.000  C
  H81      1.0000 0.38158  0.36257  0.58009  Biso   1.000  H
  H82      1.0000 0.61842  0.86257  0.91991  Biso   1.000  H
  H83      1.0000 0.61842  0.63743  0.41991  Biso   1.000  H
  H84      1.0000 0.38158  0.13743  0.08009  Biso   1.000  H
  H85      1.0000 0.49583  0.33323  0.61689  Biso   1.000  H
  H86      1.0000 0.50417  0.83323  0.88311  Biso   1.000  H
  H87      1.0000 0.50417  0.66677  0.38311  Biso   1.000  H
  H88      1.0000 0.49583  0.16677  0.11689  Biso   1.000  H
  H89      1.0000 0.41971  0.32332  0.70394  Biso   1.000  H
  H90      1.0000 0.58029  0.82332  0.79606  Biso   1.000  H
  H91      1.0000 0.58029  0.67668  0.29606  Biso   1.000  H
  H92      1.0000 0.41971  0.17668  0.20394  Biso   1.000  H
  C117     1.0000 0.42280  0.19310  0.65210  Biso   1.000  C
  C118     1.0000 0.57720  0.69310  0.84790  Biso   1.000  C
  C119     1.0000 0.57720  0.80690  0.34790  Biso   1.000  C
  C120     1.0000 0.42280  0.30690  0.15210  Biso   1.000  C
  H93      1.0000 0.36982  0.15591  0.63373  Biso   1.000  H
  H94      1.0000 0.63018  0.65591  0.86627  Biso   1.000  H
  H95      1.0000 0.63018  0.84409  0.36627  Biso   1.000  H
  H96      1.0000 0.36982  0.34409  0.13373  Biso   1.000  H
  H97      1.0000 0.42936  0.20910  0.73345  Biso   1.000  H
  H98      1.0000 0.57064  0.70910  0.76655  Biso   1.000  H
  H99      1.0000 0.57064  0.79090  0.26655  Biso   1.000  H
  H100     1.0000 0.42936  0.29090  0.23345  Biso   1.000  H
  H101     1.0000 0.48769  0.17291  0.64194  Biso   1.000  H
  H102     1.0000 0.51231  0.67291  0.85806  Biso   1.000  H
  H103     1.0000 0.51231  0.82709  0.35806  Biso   1.000  H
  H104     1.0000 0.48769  0.32709  0.14194  Biso   1.000  H
  N9       1.0000 0.39420  0.25750  0.57010  Biso   1.000  N
  N10      1.0000 0.60580  0.75750  0.92990  Biso   1.000  N
  N11      1.0000 0.60580  0.74250  0.42990  Biso   1.000  N
  N12      1.0000 0.39420  0.24250  0.07010  Biso   1.000  N
