data_image0
_cell_length_a       8.6
_cell_length_b       13.1848
_cell_length_c       18.3098
_cell_angle_alpha    97.207
_cell_angle_beta     101.911
_cell_angle_gamma    107.2

_symmetry_space_group_name_H-M    "P 1"
_symmetry_int_tables_number       1

loop_
  _symmetry_equiv_pos_as_xyz
  'x, y, z'

loop_
  _atom_site_label
  _atom_site_occupancy
  _atom_site_fract_x
  _atom_site_fract_y
  _atom_site_fract_z
  _atom_site_thermal_displace_type
  _atom_site_B_iso_or_equiv
  _atom_site_type_symbol
  Cu1      1.0000 0.87850  0.56349  0.46771  Biso   1.000  Cu
  Cu2      1.0000 0.12150  0.43651  0.53229  Biso   1.000  Cu
  Cu3      1.0000 0.71181  0.34014  0.53664  Biso   1.000  Cu
  Cu4      1.0000 0.28819  0.65986  0.46336  Biso   1.000  Cu
  Cu5      1.0000 0.33110  0.15796  0.97123  Biso   1.000  Cu
  Cu6      1.0000 0.66890  0.84204  0.02877  Biso   1.000  Cu
  Cu7      1.0000 0.34661  0.91735  0.02370  Biso   1.000  Cu
  Cu8      1.0000 0.65339  0.08265  0.97630  Biso   1.000  Cu
  O1       1.0000 0.83450  0.41463  0.47219  Biso   1.000  O
  O2       1.0000 0.16550  0.58537  0.52781  Biso   1.000  O
  H1       1.0000 0.78400  0.37970  0.42700  Biso   1.000  H
  H2       1.0000 0.21600  0.62030  0.57300  Biso   1.000  H
  O3       1.0000 0.42720  0.07443  0.03764  Biso   1.000  O
  O4       1.0000 0.57280  0.92557  0.96236  Biso   1.000  O
  H3       1.0000 0.42260  0.09830  0.08220  Biso   1.000  H
  H4       1.0000 0.57740  0.90170  0.91780  Biso   1.000  H
  O5       1.0000 0.92500  0.71870  0.47680  Biso   1.000  O
  O6       1.0000 0.07500  0.28130  0.52320  Biso   1.000  O
  H5       1.0000 0.01940  0.75870  0.47290  Biso   1.000  H
  H6       1.0000 0.98060  0.24130  0.52710  Biso   1.000  H
  H7       1.0000 0.84820  0.74020  0.45370  Biso   1.000  H
  H8       1.0000 0.15180  0.25980  0.54630  Biso   1.000  H
  O7       1.0000 0.92120  0.55480  0.36806  Biso   1.000  O
  O8       1.0000 0.07880  0.44520  0.63194  Biso   1.000  O
  O9       1.0000 0.78940  0.37880  0.32279  Biso   1.000  O
  O10      1.0000 0.21060  0.62120  0.67721  Biso   1.000  O
  O11      1.0000 0.51480  0.28934  0.02260  Biso   1.000  O
  O12      1.0000 0.48520  0.71066  0.97740  Biso   1.000  O
  O13      1.0000 0.74290  0.24043  0.02062  Biso   1.000  O
  O14      1.0000 0.25710  0.75957  0.97938  Biso   1.000  O
  O15      1.0000 0.80720  0.75570  0.07028  Biso   1.000  O
  O16      1.0000 0.19280  0.24430  0.92972  Biso   1.000  O
  O17      1.0000 0.63370  0.71300  0.14257  Biso   1.000  O
  O18      1.0000 0.36630  0.28700  0.85743  Biso   1.000  O
  O19      1.0000 0.31000  0.63330  0.11256  Biso   1.000  O
  O20      1.0000 0.69000  0.36670  0.88744  Biso   1.000  O
  H9       1.0000 0.41350  0.64200  0.11630  Biso   1.000  H
  H10      1.0000 0.58650  0.35800  0.88370  Biso   1.000  H
  O21      1.0000 0.34460  0.52970  0.19710  Biso   1.000  O
  O22      1.0000 0.65540  0.47030  0.80290  Biso   1.000  O
  O23      1.0000 0.73330  0.20767  0.48654  Biso   1.000  O
  O24      1.0000 0.26670  0.79233  0.51346  Biso   1.000  O
  O25      1.0000 0.47150  0.16440  0.41813  Biso   1.000  O
  O26      1.0000 0.52850  0.83560  0.58187  Biso   1.000  O
  O27      1.0000 0.52480  0.91987  0.11086  Biso   1.000  O
  O28      1.0000 0.47520  0.08013  0.88914  Biso   1.000  O
  O29      1.0000 0.31000  0.92740  0.15577  Biso   1.000  O
  O30      1.0000 0.69000  0.07260  0.84423  Biso   1.000  O
  O31      1.0000 0.37590  0.73124  0.38842  Biso   1.000  O
  O32      1.0000 0.62410  0.26876  0.61158  Biso   1.000  O
  O33      1.0000 0.62810  0.71920  0.42924  Biso   1.000  O
  O34      1.0000 0.37190  0.28080  0.57076  Biso   1.000  O
  O35      1.0000 0.14240  0.05980  0.40449  Biso   1.000  O
  O36      1.0000 0.85760  0.94020  0.59551  Biso   1.000  O
  H11      1.0000 0.24350  0.07280  0.40140  Biso   1.000  H
  H12      1.0000 0.75650  0.92720  0.59860  Biso   1.000  H
  O37      1.0000 0.09320  0.00640  0.28311  Biso   1.000  O
  O38      1.0000 0.90680  0.99360  0.71689  Biso   1.000  O
  N1       1.0000 0.76080  0.57150  0.55122  Biso   1.000  N
  N2       1.0000 0.23920  0.42850  0.44878  Biso   1.000  N
  N3       1.0000 0.69430  0.48150  0.57912  Biso   1.000  N
  N4       1.0000 0.30570  0.51850  0.42088  Biso   1.000  N
  N5       1.0000 0.65230  0.61730  0.64180  Biso   1.000  N
  N6       1.0000 0.34770  0.38270  0.35820  Biso   1.000  N
  N7       1.0000 0.13370  0.02170  0.93324  Biso   1.000  N
  N8       1.0000 0.86630  0.97830  0.06676  Biso   1.000  N
  N9       1.0000 0.14320  0.92770  0.95513  Biso   1.000  N
  N10      1.0000 0.85680  0.07230  0.04487  Biso   1.000  N
  N11      1.0000 0.90030  0.89220  0.87534  Biso   1.000  N
  N12      1.0000 0.09970  0.10780  0.12466  Biso   1.000  N
  C1       1.0000 0.73400  0.65250  0.58950  Biso   1.000  C
  C2       1.0000 0.26600  0.34750  0.41050  Biso   1.000  C
  H13      1.0000 0.76650  0.72410  0.58180  Biso   1.000  H
  H14      1.0000 0.23350  0.27590  0.41820  Biso   1.000  H
  C3       1.0000 0.63050  0.51060  0.63370  Biso   1.000  C
  C4       1.0000 0.36950  0.48940  0.36630  Biso   1.000  C
  H15      1.0000 0.57750  0.46430  0.66290  Biso   1.000  H
  H16      1.0000 0.42250  0.53570  0.33710  Biso   1.000  H
  C5       1.0000 0.98680  0.99840  0.88494  Biso   1.000  C
  C6       1.0000 0.01320  0.00160  0.11506  Biso   1.000  C
  H17      1.0000 0.94780  0.04820  0.86070  Biso   1.000  H
  H18      1.0000 0.05220  0.95180  0.13930  Biso   1.000  H
  C7       1.0000 0.00180  0.85060  0.92040  Biso   1.000  C
  C8       1.0000 0.99820  0.14940  0.07960  Biso   1.000  C
  H19      1.0000 0.97460  0.77790  0.92570  Biso   1.000  H
  H20      1.0000 0.02540  0.22210  0.07430  Biso   1.000  H
  C9       1.0000 0.61290  0.68530  0.70125  Biso   1.000  C
  C10      1.0000 0.38710  0.31470  0.29875  Biso   1.000  C
  H21      1.0000 0.53180  0.63920  0.72400  Biso   1.000  H
  H22      1.0000 0.46820  0.36080  0.27600  Biso   1.000  H
  H23      1.0000 0.56200  0.73510  0.67840  Biso   1.000  H
  H24      1.0000 0.43800  0.26490  0.32160  Biso   1.000  H
  C11      1.0000 0.77120  0.74850  0.76160  Biso   1.000  C
  C12      1.0000 0.22880  0.25150  0.23840  Biso   1.000  C
  H25      1.0000 0.85560  0.78890  0.73790  Biso   1.000  H
  H26      1.0000 0.14440  0.21110  0.26210  Biso   1.000  H
  H27      1.0000 0.81620  0.69840  0.78720  Biso   1.000  H
  H28      1.0000 0.18380  0.30160  0.21280  Biso   1.000  H
  C13      1.0000 0.73880  0.82740  0.82040  Biso   1.000  C
  C14      1.0000 0.26120  0.17260  0.17960  Biso   1.000  C
  H29      1.0000 0.68790  0.87530  0.79490  Biso   1.000  H
  H30      1.0000 0.31210  0.12470  0.20510  Biso   1.000  H
  H31      1.0000 0.66070  0.78720  0.84710  Biso   1.000  H
  H32      1.0000 0.33930  0.21280  0.15290  Biso   1.000  H
  C15      1.0000 0.85190  0.47540  0.31440  Biso   1.000  C
  C16      1.0000 0.14810  0.52460  0.68560  Biso   1.000  C
  C17      1.0000 0.67120  0.30600  0.04015  Biso   1.000  C
  C18      1.0000 0.32880  0.69400  0.95985  Biso   1.000  C
  C19      1.0000 0.74820  0.70040  0.11600  Biso   1.000  C
  C20      1.0000 0.25180  0.29960  0.88400  Biso   1.000  C
  C21      1.0000 0.25630  0.56910  0.15703  Biso   1.000  C
  C22      1.0000 0.74370  0.43090  0.84297  Biso   1.000  C
  C23      1.0000 0.86350  0.49840  0.23483  Biso   1.000  C
  C24      1.0000 0.13650  0.50160  0.76517  Biso   1.000  C
  C25      1.0000 0.75920  0.39590  0.17458  Biso   1.000  C
  C26      1.0000 0.24080  0.60410  0.82542  Biso   1.000  C
  H33      1.0000 0.64010  0.37770  0.17460  Biso   1.000  H
  H34      1.0000 0.35990  0.62230  0.82540  Biso   1.000  H
  H35      1.0000 0.79620  0.33520  0.18700  Biso   1.000  H
  H36      1.0000 0.20380  0.66480  0.81300  Biso   1.000  H
  C27      1.0000 0.77930  0.41330  0.09526  Biso   1.000  C
  C28      1.0000 0.22070  0.58670  0.90474  Biso   1.000  C
  C29      1.0000 0.71800  0.50750  0.07582  Biso   1.000  C
  C30      1.0000 0.28200  0.49250  0.92418  Biso   1.000  C
  H37      1.0000 0.59850  0.48950  0.07500  Biso   1.000  H
  H38      1.0000 0.40150  0.51050  0.92500  Biso   1.000  H
  H39      1.0000 0.73010  0.51900  0.02520  Biso   1.000  H
  H40      1.0000 0.26990  0.48100  0.97480  Biso   1.000  H
  C31      1.0000 0.82220  0.61210  0.13580  Biso   1.000  C
  C32      1.0000 0.17780  0.38790  0.86420  Biso   1.000  C
  C33      1.0000 0.80190  0.59220  0.21500  Biso   1.000  C
  C34      1.0000 0.19810  0.40780  0.78500  Biso   1.000  C
  H41      1.0000 0.86690  0.65820  0.25350  Biso   1.000  H
  H42      1.0000 0.13310  0.34180  0.74650  Biso   1.000  H
  H43      1.0000 0.68310  0.57480  0.21540  Biso   1.000  H
  H44      1.0000 0.31690  0.42520  0.78460  Biso   1.000  H
  C35      1.0000 0.04940  0.52830  0.23415  Biso   1.000  C
  C36      1.0000 0.95060  0.47170  0.76585  Biso   1.000  C
  H45      1.0000 0.11550  0.59430  0.27230  Biso   1.000  H
  H46      1.0000 0.88450  0.40570  0.72770  Biso   1.000  H
  H47      1.0000 0.09150  0.46990  0.24740  Biso   1.000  H
  H48      1.0000 0.90850  0.53010  0.75260  Biso   1.000  H
  C37      1.0000 0.96630  0.44220  0.09672  Biso   1.000  C
  C38      1.0000 0.03370  0.55780  0.90328  Biso   1.000  C
  H49      1.0000 0.98100  0.45210  0.04610  Biso   1.000  H
  H50      1.0000 0.01900  0.54790  0.95390  Biso   1.000  H
  H51      1.0000 0.00610  0.38280  0.10970  Biso   1.000  H
  H52      1.0000 0.99390  0.61720  0.89030  Biso   1.000  H
  C39      1.0000 0.00940  0.64020  0.13517  Biso   1.000  C
  C40      1.0000 0.99060  0.35980  0.86483  Biso   1.000  C
  H53      1.0000 0.02240  0.65160  0.08460  Biso   1.000  H
  H54      1.0000 0.97760  0.34840  0.91540  Biso   1.000  H
  H55      1.0000 0.07680  0.70720  0.17220  Biso   1.000  H
  H56      1.0000 0.92320  0.29280  0.82780  Biso   1.000  H
  C41      1.0000 0.07060  0.54670  0.15547  Biso   1.000  C
  C42      1.0000 0.92940  0.45330  0.84453  Biso   1.000  C
  C43      1.0000 0.61050  0.15100  0.43064  Biso   1.000  C
  C44      1.0000 0.38950  0.84900  0.56936  Biso   1.000  C
  C45      1.0000 0.45810  0.93030  0.16693  Biso   1.000  C
  C46      1.0000 0.54190  0.06970  0.83307  Biso   1.000  C
  C47      1.0000 0.53440  0.76240  0.39519  Biso   1.000  C
  C48      1.0000 0.46560  0.23760  0.60481  Biso   1.000  C
  C49      1.0000 0.04100  0.01900  0.33691  Biso   1.000  C
  C50      1.0000 0.95900  0.98100  0.66309  Biso   1.000  C
  C51      1.0000 0.64070  0.06040  0.38017  Biso   1.000  C
  C52      1.0000 0.35930  0.93960  0.61983  Biso   1.000  C
  C53      1.0000 0.57770  0.95630  0.41046  Biso   1.000  C
  C54      1.0000 0.42230  0.04370  0.58954  Biso   1.000  C
  H57      1.0000 0.45800  0.93990  0.40860  Biso   1.000  H
  H58      1.0000 0.54200  0.06010  0.59140  Biso   1.000  H
  H59      1.0000 0.63980  0.96680  0.46370  Biso   1.000  H
  H60      1.0000 0.36020  0.03320  0.53630  Biso   1.000  H
  C55      1.0000 0.60310  0.86110  0.36224  Biso   1.000  C
  C56      1.0000 0.39690  0.13890  0.63776  Biso   1.000  C
  C57      1.0000 0.50280  0.84510  0.27878  Biso   1.000  C
  C58      1.0000 0.49720  0.15490  0.72122  Biso   1.000  C
  H61      1.0000 0.51740  0.78430  0.24750  Biso   1.000  H
  H62      1.0000 0.48260  0.21570  0.75250  Biso   1.000  H
  H63      1.0000 0.38270  0.82790  0.27620  Biso   1.000  H
  H64      1.0000 0.61730  0.17210  0.72380  Biso   1.000  H
  C59      1.0000 0.56500  0.94840  0.24782  Biso   1.000  C
  C60      1.0000 0.43500  0.05160  0.75218  Biso   1.000  C
  C61      1.0000 0.54040  0.04330  0.29737  Biso   1.000  C
  C62      1.0000 0.45960  0.95670  0.70263  Biso   1.000  C
  H65      1.0000 0.57870  0.10960  0.27770  Biso   1.000  H
  H66      1.0000 0.42130  0.89040  0.72230  Biso   1.000  H
  H67      1.0000 0.42060  0.02750  0.29510  Biso   1.000  H
  H68      1.0000 0.57940  0.97250  0.70490  Biso   1.000  H
  C63      1.0000 0.75290  0.97460  0.25098  Biso   1.000  C
  C64      1.0000 0.24710  0.02540  0.74902  Biso   1.000  C
  H69      1.0000 0.79270  0.04040  0.23100  Biso   1.000  H
  H70      1.0000 0.20730  0.95960  0.76900  Biso   1.000  H
  H71      1.0000 0.76960  0.91490  0.21950  Biso   1.000  H
  H72      1.0000 0.23040  0.08510  0.78050  Biso   1.000  H
  C65      1.0000 0.79140  0.88810  0.36528  Biso   1.000  C
  C66      1.0000 0.20860  0.11190  0.63472  Biso   1.000  C
  H73      1.0000 0.85620  0.89880  0.41800  Biso   1.000  H
  H74      1.0000 0.14380  0.10120  0.58200  Biso   1.000  H
  H75      1.0000 0.80880  0.82760  0.33500  Biso   1.000  H
  H76      1.0000 0.19120  0.17240  0.66500  Biso   1.000  H
  C67      1.0000 0.82800  0.08540  0.38323  Biso   1.000  C
  C68      1.0000 0.17200  0.91460  0.61677  Biso   1.000  C
  H77      1.0000 0.89270  0.09630  0.43600  Biso   1.000  H
  H78      1.0000 0.10730  0.90370  0.56400  Biso   1.000  H
  H79      1.0000 0.86920  0.15230  0.36450  Biso   1.000  H
  H80      1.0000 0.13080  0.84770  0.63550  Biso   1.000  H
  C69      1.0000 0.85340  0.99130  0.33398  Biso   1.000  C
  C70      1.0000 0.14660  0.00870  0.66602  Biso   1.000  C
  O39      1.0000 0.29690  0.35050  0.09870  Biso   1.000  O
  O40      1.0000 0.70310  0.64950  0.90130  Biso   1.000  O
  H81      1.0000 0.37670  0.34370  0.08000  Biso   1.000  H
  H82      1.0000 0.62330  0.65630  0.92000  Biso   1.000  H
  H83      1.0000 0.33100  0.41160  0.12880  Biso   1.000  H
  H84      1.0000 0.66900  0.58840  0.87120  Biso   1.000  H
  O41      1.0000 0.88800  0.19580  0.63800  Biso   1.000  O
  O42      1.0000 0.11200  0.80420  0.36200  Biso   1.000  O
