data_image0
_cell_length_a       10.2635
_cell_length_b       10.5075
_cell_length_c       14.634
_cell_angle_alpha    87.673
_cell_angle_beta     72.241
_cell_angle_gamma    87.878

_symmetry_space_group_name_H-M    "P 1"
_symmetry_int_tables_number       1

loop_
  _symmetry_equiv_pos_as_xyz
  'x, y, z'

loop_
  _atom_site_label
  _atom_site_occupancy
  _atom_site_fract_x
  _atom_site_fract_y
  _atom_site_fract_z
  _atom_site_thermal_displace_type
  _atom_site_B_iso_or_equiv
  _atom_site_type_symbol
  Cu1      1.0000 0.94918  0.10254  0.96733  Biso   1.000  Cu
  Cu2      1.0000 0.05082  0.89746  0.03267  Biso   1.000  Cu
  O1       1.0000 0.06830  0.06200  0.83770  Biso   1.000  O
  O2       1.0000 0.93170  0.93800  0.16230  Biso   1.000  O
  O3       1.0000 0.10120  0.19030  0.99160  Biso   1.000  O
  O4       1.0000 0.89880  0.80970  0.00840  Biso   1.000  O
  O5       1.0000 0.18590  0.01590  0.04810  Biso   1.000  O
  O6       1.0000 0.81410  0.98410  0.95190  Biso   1.000  O
  O7       1.0000 0.15030  0.88870  0.89540  Biso   1.000  O
  O8       1.0000 0.84970  0.11130  0.10460  Biso   1.000  O
  N1       1.0000 0.70280  0.40100  0.09650  Biso   1.000  N
  N2       1.0000 0.29720  0.59900  0.90350  Biso   1.000  N
  O9       1.0000 0.84540  0.26530  0.93290  Biso   1.000  O
  O10      1.0000 0.15460  0.73470  0.06710  Biso   1.000  O
  H1       1.0000 0.89305  0.30144  0.87862  Biso   1.000  H
  H2       1.0000 0.10695  0.69856  0.12138  Biso   1.000  H
  H3       1.0000 0.83009  0.32170  0.97764  Biso   1.000  H
  H4       1.0000 0.16991  0.67830  0.02236  Biso   1.000  H
  N3       1.0000 0.56630  0.42990  0.13120  Biso   1.000  N
  N4       1.0000 0.43370  0.57010  0.86880  Biso   1.000  N
  C1       1.0000 0.22420  0.92530  0.72940  Biso   1.000  C
  C2       1.0000 0.77580  0.07470  0.27060  Biso   1.000  C
  N5       1.0000 0.42520  0.87830  0.37470  Biso   1.000  N
  N6       1.0000 0.57480  0.12170  0.62530  Biso   1.000  N
  C3       1.0000 0.14180  0.96130  0.82850  Biso   1.000  C
  C4       1.0000 0.85820  0.03870  0.17150  Biso   1.000  C
  C5       1.0000 0.18380  0.13250  0.02790  Biso   1.000  C
  C6       1.0000 0.81620  0.86750  0.97210  Biso   1.000  C
  N7       1.0000 0.45380  0.81180  0.45290  Biso   1.000  N
  N8       1.0000 0.54620  0.18820  0.54710  Biso   1.000  N
  C7       1.0000 0.49660  0.22540  0.09360  Biso   1.000  C
  C8       1.0000 0.50340  0.77460  0.90640  Biso   1.000  C
  H5       1.0000 0.57456  0.18684  0.10333  Biso   1.000  H
  H6       1.0000 0.42544  0.81316  0.89667  Biso   1.000  H
  C9       1.0000 0.76290  0.48000  0.13780  Biso   1.000  C
  C10      1.0000 0.23710  0.52000  0.86220  Biso   1.000  C
  C11      1.0000 0.47310  0.35590  0.10250  Biso   1.000  C
  C12      1.0000 0.52690  0.64410  0.89750  Biso   1.000  C
  C13      1.0000 0.28900  0.21110  0.05040  Biso   1.000  C
  C14      1.0000 0.71100  0.78890  0.94960  Biso   1.000  C
  C15      1.0000 0.91260  0.47400  0.12130  Biso   1.000  C
  C16      1.0000 0.08740  0.52600  0.87870  Biso   1.000  C
  H7       1.0000 0.95177  0.40188  0.08311  Biso   1.000  H
  H8       1.0000 0.04823  0.59812  0.91689  Biso   1.000  H
  H9       1.0000 0.93087  0.46548  0.18181  Biso   1.000  H
  H10      1.0000 0.06913  0.53452  0.81819  Biso   1.000  H
  H11      1.0000 0.95240  0.55059  0.08815  Biso   1.000  H
  H12      1.0000 0.04760  0.44941  0.91185  Biso   1.000  H
  C17      1.0000 0.40180  0.15370  0.06990  Biso   1.000  C
  C18      1.0000 0.59820  0.84630  0.93010  Biso   1.000  C
  H13      1.0000 0.41392  0.06568  0.06701  Biso   1.000  H
  H14      1.0000 0.58608  0.93432  0.93299  Biso   1.000  H
  C19      1.0000 0.23670  0.00390  0.64940  Biso   1.000  C
  C20      1.0000 0.76330  0.99610  0.35060  Biso   1.000  C
  H15      1.0000 0.19201  0.08316  0.65645  Biso   1.000  H
  H16      1.0000 0.80799  0.91684  0.34355  Biso   1.000  H
  C21      1.0000 0.36130  0.41430  0.08210  Biso   1.000  C
  C22      1.0000 0.63870  0.58570  0.91790  Biso   1.000  C
  H17      1.0000 0.34789  0.50210  0.08651  Biso   1.000  H
  H18      1.0000 0.65211  0.49790  0.91349  Biso   1.000  H
  C23      1.0000 0.28750  0.80430  0.71700  Biso   1.000  C
  C24      1.0000 0.71250  0.19570  0.28300  Biso   1.000  C
  H19      1.0000 0.27920  0.74961  0.76996  Biso   1.000  H
  H20      1.0000 0.72080  0.25039  0.23004  Biso   1.000  H
  C25      1.0000 0.60060  0.73120  0.32490  Biso   1.000  C
  C26      1.0000 0.39940  0.26880  0.67510  Biso   1.000  C
  C27      1.0000 0.66660  0.55930  0.20070  Biso   1.000  C
  C28      1.0000 0.33340  0.44070  0.79930  Biso   1.000  C
  C29      1.0000 0.31390  0.96720  0.55990  Biso   1.000  C
  C30      1.0000 0.68610  0.03280  0.44010  Biso   1.000  C
  H21      1.0000 0.32403  0.02307  0.50737  Biso   1.000  H
  H22      1.0000 0.67597  0.97693  0.49263  Biso   1.000  H
  C31      1.0000 0.37700  0.84730  0.54710  Biso   1.000  C
  C32      1.0000 0.62300  0.15270  0.45290  Biso   1.000  C
  C33      1.0000 0.27100  0.34320  0.05550  Biso   1.000  C
  C34      1.0000 0.72900  0.65680  0.94450  Biso   1.000  C
  H23      1.0000 0.19714  0.38303  0.04078  Biso   1.000  H
  H24      1.0000 0.80286  0.61697  0.95922  Biso   1.000  H
  C35      1.0000 0.55690  0.72630  0.42290  Biso   1.000  C
  C36      1.0000 0.44310  0.27370  0.57710  Biso   1.000  C
  C37      1.0000 0.54160  0.52400  0.19650  Biso   1.000  C
  C38      1.0000 0.45840  0.47600  0.80350  Biso   1.000  C
  C39      1.0000 0.51540  0.82940  0.29950  Biso   1.000  C
  C40      1.0000 0.48460  0.17060  0.70050  Biso   1.000  C
  C41      1.0000 0.36220  0.76610  0.62690  Biso   1.000  C
  C42      1.0000 0.63780  0.23390  0.37310  Biso   1.000  C
  H25      1.0000 0.40307  0.68511  0.61925  Biso   1.000  H
  H26      1.0000 0.59693  0.31489  0.38075  Biso   1.000  H
  C43      1.0000 0.71040  0.65950  0.25530  Biso   1.000  C
  C44      1.0000 0.28960  0.34050  0.74470  Biso   1.000  C
  H27      1.0000 0.76883  0.61848  0.28941  Biso   1.000  H
  H28      1.0000 0.23117  0.38152  0.71059  Biso   1.000  H
  H29      1.0000 0.76559  0.72001  0.20906  Biso   1.000  H
  H30      1.0000 0.23441  0.27999  0.79094  Biso   1.000  H
  C45      1.0000 0.51930  0.87750  0.20040  Biso   1.000  C
  C46      1.0000 0.48070  0.12250  0.79960  Biso   1.000  C
  H31      1.0000 0.44743  0.94038  0.20507  Biso   1.000  H
  H32      1.0000 0.55257  0.05962  0.79493  Biso   1.000  H
  H33      1.0000 0.50676  0.80783  0.16372  Biso   1.000  H
  H34      1.0000 0.49324  0.19217  0.83628  Biso   1.000  H
  H35      1.0000 0.60614  0.91503  0.16920  Biso   1.000  H
  H36      1.0000 0.39386  0.08497  0.83080  Biso   1.000  H
  C47      1.0000 0.61380  0.65240  0.48580  Biso   1.000  C
  C48      1.0000 0.38620  0.34760  0.51420  Biso   1.000  C
  H37      1.0000 0.62681  0.70598  0.53376  Biso   1.000  H
  H38      1.0000 0.37319  0.29402  0.46624  Biso   1.000  H
  H39      1.0000 0.70040  0.61569  0.44973  Biso   1.000  H
  H40      1.0000 0.29960  0.38431  0.55027  Biso   1.000  H
  H41      1.0000 0.55272  0.58561  0.51640  Biso   1.000  H
  H42      1.0000 0.44728  0.41439  0.48360  Biso   1.000  H
  C49      1.0000 0.39970  0.56270  0.25430  Biso   1.000  C
  C50      1.0000 0.60030  0.43730  0.74570  Biso   1.000  C
  H43      1.0000 0.36436  0.62743  0.21942  Biso   1.000  H
  H44      1.0000 0.63564  0.37257  0.78058  Biso   1.000  H
  H45      1.0000 0.40141  0.59538  0.31424  Biso   1.000  H
  H46      1.0000 0.59859  0.40462  0.68576  Biso   1.000  H
  H47      1.0000 0.34205  0.49005  0.26646  Biso   1.000  H
  H48      1.0000 0.65795  0.50995  0.73354  Biso   1.000  H
  O11      1.0000 0.92040  0.35480  0.74400  Biso   1.000  O
  O12      1.0000 0.07960  0.64520  0.25600  Biso   1.000  O
  C51      1.0000 0.91300  0.24240  0.71790  Biso   1.000  C
  C52      1.0000 0.08700  0.75760  0.28210  Biso   1.000  C
  C53      1.0000 0.94100  0.32400  0.51700  Biso   1.000  C
  C54      1.0000 0.05900  0.67600  0.48300  Biso   1.000  C
  C55      1.0000 0.95900  0.10700  0.57600  Biso   1.000  C
  C56      1.0000 0.04100  0.89300  0.42400  Biso   1.000  C
  N9       1.0000 0.93400  0.24200  0.60720  Biso   1.000  N
  N10      1.0000 0.06600  0.75800  0.39280  Biso   1.000  N
  N11      1.0000 0.16200  0.15900  0.30910  Biso   1.000  N
  N12      1.0000 0.83800  0.84100  0.69090  Biso   1.000  N
  C57      1.0000 0.06300  0.28000  0.30200  Biso   1.000  C
  C58      1.0000 0.93700  0.72000  0.69800  Biso   1.000  C
  C59      1.0000 0.14000  0.02000  0.29900  Biso   1.000  C
  C60      1.0000 0.86000  0.98000  0.70100  Biso   1.000  C
  C61      1.0000 0.28000  0.19900  0.34050  Biso   1.000  C
  C62      1.0000 0.72000  0.80100  0.65950  Biso   1.000  C
  O13      1.0000 0.01800  0.32100  0.38400  Biso   1.000  O
  O14      1.0000 0.98200  0.67900  0.61600  Biso   1.000  O
