data_image0
_cell_length_a       11.9456
_cell_length_b       11.9456
_cell_length_c       16.2905
_cell_angle_alpha    90
_cell_angle_beta     90
_cell_angle_gamma    90

_symmetry_space_group_name_H-M    "P 1"
_symmetry_int_tables_number       1

loop_
  _symmetry_equiv_pos_as_xyz
  'x, y, z'

loop_
  _atom_site_label
  _atom_site_occupancy
  _atom_site_fract_x
  _atom_site_fract_y
  _atom_site_fract_z
  _atom_site_thermal_displace_type
  _atom_site_B_iso_or_equiv
  _atom_site_type_symbol
  Cu1      1.0000 0.45551  0.16225  0.12746  Biso   1.000  Cu
  Cu2      1.0000 0.54449  0.83775  0.62746  Biso   1.000  Cu
  Cu3      1.0000 0.83775  0.45551  0.37746  Biso   1.000  Cu
  Cu4      1.0000 0.16225  0.54449  0.87746  Biso   1.000  Cu
  Si1      1.0000 0.32922  0.65014  0.27472  Biso   1.000  Si
  Si2      1.0000 0.67078  0.34986  0.77472  Biso   1.000  Si
  Si3      1.0000 0.34986  0.32922  0.52472  Biso   1.000  Si
  Si4      1.0000 0.65014  0.67078  0.02472  Biso   1.000  Si
  Br1      1.0000 0.29611  0.23777  0.20400  Biso   1.000  Br
  Br2      1.0000 0.70389  0.76223  0.70400  Biso   1.000  Br
  Br3      1.0000 0.76223  0.29611  0.45400  Biso   1.000  Br
  Br4      1.0000 0.23777  0.70389  0.95400  Biso   1.000  Br
  Br5      1.0000 0.50879  0.10129  0.99076  Biso   1.000  Br
  Br6      1.0000 0.49121  0.89871  0.49076  Biso   1.000  Br
  Br7      1.0000 0.89871  0.50879  0.24076  Biso   1.000  Br
  Br8      1.0000 0.10129  0.49121  0.74076  Biso   1.000  Br
  S1       1.0000 0.68520  0.06580  0.22043  Biso   1.000  S
  S2       1.0000 0.31480  0.93420  0.72043  Biso   1.000  S
  S3       1.0000 0.93420  0.68520  0.47043  Biso   1.000  S
  S4       1.0000 0.06580  0.31480  0.97043  Biso   1.000  S
  O1       1.0000 0.59420  0.15270  0.21720  Biso   1.000  O
  O2       1.0000 0.40580  0.84730  0.71720  Biso   1.000  O
  O3       1.0000 0.84730  0.59420  0.46720  Biso   1.000  O
  O4       1.0000 0.15270  0.40580  0.96720  Biso   1.000  O
  N1       1.0000 0.41170  0.00530  0.16370  Biso   1.000  N
  N2       1.0000 0.58830  0.99470  0.66370  Biso   1.000  N
  N3       1.0000 0.99470  0.41170  0.41370  Biso   1.000  N
  N4       1.0000 0.00530  0.58830  0.91370  Biso   1.000  N
  N5       1.0000 0.68330  0.50640  0.34650  Biso   1.000  N
  N6       1.0000 0.31670  0.49360  0.84650  Biso   1.000  N
  N7       1.0000 0.49360  0.68330  0.59650  Biso   1.000  N
  N8       1.0000 0.50640  0.31670  0.09650  Biso   1.000  N
  C1       1.0000 0.40940  0.98690  0.24530  Biso   1.000  C
  C2       1.0000 0.59060  0.01310  0.74530  Biso   1.000  C
  C3       1.0000 0.01310  0.40940  0.49530  Biso   1.000  C
  C4       1.0000 0.98690  0.59060  0.99530  Biso   1.000  C
  H1       1.0000 0.42720  0.04670  0.28150  Biso   1.000  H
  H2       1.0000 0.57280  0.95330  0.78150  Biso   1.000  H
  H3       1.0000 0.95330  0.42720  0.53150  Biso   1.000  H
  H4       1.0000 0.04670  0.57280  0.03150  Biso   1.000  H
  C5       1.0000 0.38190  0.88380  0.27800  Biso   1.000  C
  C6       1.0000 0.61810  0.11620  0.77800  Biso   1.000  C
  C7       1.0000 0.11620  0.38190  0.52800  Biso   1.000  C
  C8       1.0000 0.88380  0.61810  0.02800  Biso   1.000  C
  H5       1.0000 0.37930  0.87570  0.33600  Biso   1.000  H
  H6       1.0000 0.62070  0.12430  0.83600  Biso   1.000  H
  H7       1.0000 0.12430  0.37930  0.58600  Biso   1.000  H
  H8       1.0000 0.87570  0.62070  0.08600  Biso   1.000  H
  C9       1.0000 0.35800  0.79200  0.22960  Biso   1.000  C
  C10      1.0000 0.64200  0.20800  0.72960  Biso   1.000  C
  C11      1.0000 0.20800  0.35800  0.47960  Biso   1.000  C
  C12      1.0000 0.79200  0.64200  0.97960  Biso   1.000  C
  C13      1.0000 0.36050  0.81390  0.14370  Biso   1.000  C
  C14      1.0000 0.63950  0.18610  0.64370  Biso   1.000  C
  C15      1.0000 0.18610  0.36050  0.39370  Biso   1.000  C
  C16      1.0000 0.81390  0.63950  0.89370  Biso   1.000  C
  H9       1.0000 0.34320  0.75570  0.10600  Biso   1.000  H
  H10      1.0000 0.65680  0.24430  0.60600  Biso   1.000  H
  H11      1.0000 0.24430  0.34320  0.35600  Biso   1.000  H
  H12      1.0000 0.75570  0.65680  0.85600  Biso   1.000  H
  C17      1.0000 0.38760  0.91860  0.11490  Biso   1.000  C
  C18      1.0000 0.61240  0.08140  0.61490  Biso   1.000  C
  C19      1.0000 0.08140  0.38760  0.36490  Biso   1.000  C
  C20      1.0000 0.91860  0.61240  0.86490  Biso   1.000  C
  H13      1.0000 0.38930  0.93000  0.05720  Biso   1.000  H
  H14      1.0000 0.61070  0.07000  0.55720  Biso   1.000  H
  H15      1.0000 0.07000  0.38930  0.30720  Biso   1.000  H
  H16      1.0000 0.93000  0.61070  0.80720  Biso   1.000  H
  C21      1.0000 0.25400  0.67000  0.37370  Biso   1.000  C
  C22      1.0000 0.74600  0.33000  0.87370  Biso   1.000  C
  C23      1.0000 0.33000  0.25400  0.62370  Biso   1.000  C
  C24      1.0000 0.67000  0.74600  0.12370  Biso   1.000  C
  H17      1.0000 0.23890  0.59680  0.39860  Biso   1.000  H
  H18      1.0000 0.76110  0.40320  0.89860  Biso   1.000  H
  H19      1.0000 0.40320  0.23890  0.64860  Biso   1.000  H
  H20      1.0000 0.59680  0.76110  0.14860  Biso   1.000  H
  H21      1.0000 0.18320  0.70900  0.36370  Biso   1.000  H
  H22      1.0000 0.81680  0.29100  0.86370  Biso   1.000  H
  H23      1.0000 0.29100  0.18320  0.61370  Biso   1.000  H
  H24      1.0000 0.70900  0.81680  0.11370  Biso   1.000  H
  H25      1.0000 0.30050  0.71460  0.41100  Biso   1.000  H
  H26      1.0000 0.69950  0.28540  0.91100  Biso   1.000  H
  H27      1.0000 0.28540  0.30050  0.66100  Biso   1.000  H
  H28      1.0000 0.71460  0.69950  0.16100  Biso   1.000  H
  C25      1.0000 0.24860  0.56240  0.20180  Biso   1.000  C
  C26      1.0000 0.75140  0.43760  0.70180  Biso   1.000  C
  C27      1.0000 0.43760  0.24860  0.45180  Biso   1.000  C
  C28      1.0000 0.56240  0.75140  0.95180  Biso   1.000  C
  H29      1.0000 0.23430  0.48900  0.22660  Biso   1.000  H
  H30      1.0000 0.76570  0.51100  0.72660  Biso   1.000  H
  H31      1.0000 0.51100  0.23430  0.47660  Biso   1.000  H
  H32      1.0000 0.48900  0.76570  0.97660  Biso   1.000  H
  H33      1.0000 0.29180  0.55270  0.15110  Biso   1.000  H
  H34      1.0000 0.70820  0.44730  0.65110  Biso   1.000  H
  H35      1.0000 0.44730  0.29180  0.40110  Biso   1.000  H
  H36      1.0000 0.55270  0.70820  0.90110  Biso   1.000  H
  H37      1.0000 0.17730  0.59900  0.18920  Biso   1.000  H
  H38      1.0000 0.82270  0.40100  0.68920  Biso   1.000  H
  H39      1.0000 0.40100  0.17730  0.43920  Biso   1.000  H
  H40      1.0000 0.59900  0.82270  0.93920  Biso   1.000  H
  C29      1.0000 0.47230  0.58930  0.29790  Biso   1.000  C
  C30      1.0000 0.52770  0.41070  0.79790  Biso   1.000  C
  C31      1.0000 0.41070  0.47230  0.54790  Biso   1.000  C
  C32      1.0000 0.58930  0.52770  0.04790  Biso   1.000  C
  C33      1.0000 0.50270  0.47870  0.28710  Biso   1.000  C
  C34      1.0000 0.49730  0.52130  0.78710  Biso   1.000  C
  C35      1.0000 0.52130  0.50270  0.53710  Biso   1.000  C
  C36      1.0000 0.47870  0.49730  0.03710  Biso   1.000  C
  H41      1.0000 0.45130  0.42860  0.26200  Biso   1.000  H
  H42      1.0000 0.54870  0.57140  0.76200  Biso   1.000  H
  H43      1.0000 0.57140  0.45130  0.51200  Biso   1.000  H
  H44      1.0000 0.42860  0.54870  0.01200  Biso   1.000  H
  C37      1.0000 0.60560  0.43910  0.31190  Biso   1.000  C
  C38      1.0000 0.39440  0.56090  0.81190  Biso   1.000  C
  C39      1.0000 0.56090  0.60560  0.56190  Biso   1.000  C
  C40      1.0000 0.43910  0.39440  0.06190  Biso   1.000  C
  H45      1.0000 0.62250  0.36200  0.30430  Biso   1.000  H
  H46      1.0000 0.37750  0.63800  0.80430  Biso   1.000  H
  H47      1.0000 0.63800  0.62250  0.55430  Biso   1.000  H
  H48      1.0000 0.36200  0.37750  0.05430  Biso   1.000  H
  C41      1.0000 0.65440  0.61480  0.35590  Biso   1.000  C
  C42      1.0000 0.34560  0.38520  0.85590  Biso   1.000  C
  C43      1.0000 0.38520  0.65440  0.60590  Biso   1.000  C
  C44      1.0000 0.61480  0.34560  0.10590  Biso   1.000  C
  H49      1.0000 0.70720  0.66410  0.38030  Biso   1.000  H
  H50      1.0000 0.29280  0.33590  0.88030  Biso   1.000  H
  H51      1.0000 0.33590  0.70720  0.63030  Biso   1.000  H
  H52      1.0000 0.66410  0.29280  0.13030  Biso   1.000  H
  C45      1.0000 0.55360  0.65750  0.33260  Biso   1.000  C
  C46      1.0000 0.44640  0.34250  0.83260  Biso   1.000  C
  C47      1.0000 0.34250  0.55360  0.58260  Biso   1.000  C
  C48      1.0000 0.65750  0.44640  0.08260  Biso   1.000  C
  H53      1.0000 0.53870  0.73490  0.34010  Biso   1.000  H
  H54      1.0000 0.46130  0.26510  0.84010  Biso   1.000  H
  H55      1.0000 0.26510  0.53870  0.59010  Biso   1.000  H
  H56      1.0000 0.73490  0.46130  0.09010  Biso   1.000  H
  C49      1.0000 0.69200  0.02050  0.32410  Biso   1.000  C
  C50      1.0000 0.30800  0.97950  0.82410  Biso   1.000  C
  C51      1.0000 0.97950  0.69200  0.57410  Biso   1.000  C
  C52      1.0000 0.02050  0.30800  0.07410  Biso   1.000  C
  H57      1.0000 0.62540  0.97590  0.33710  Biso   1.000  H
  H58      1.0000 0.37460  0.02410  0.83710  Biso   1.000  H
  H59      1.0000 0.02410  0.62540  0.58710  Biso   1.000  H
  H60      1.0000 0.97590  0.37460  0.08710  Biso   1.000  H
  H61      1.0000 0.69500  0.08590  0.36040  Biso   1.000  H
  H62      1.0000 0.30500  0.91410  0.86040  Biso   1.000  H
  H63      1.0000 0.91410  0.69500  0.61040  Biso   1.000  H
  H64      1.0000 0.08590  0.30500  0.11040  Biso   1.000  H
  H65      1.0000 0.75920  0.97480  0.33210  Biso   1.000  H
  H66      1.0000 0.24080  0.02520  0.83210  Biso   1.000  H
  H67      1.0000 0.02520  0.75920  0.58210  Biso   1.000  H
  H68      1.0000 0.97480  0.24080  0.08210  Biso   1.000  H
  C53      1.0000 0.81030  0.14240  0.21980  Biso   1.000  C
  C54      1.0000 0.18970  0.85760  0.71980  Biso   1.000  C
  C55      1.0000 0.85760  0.81030  0.46980  Biso   1.000  C
  C56      1.0000 0.14240  0.18970  0.96980  Biso   1.000  C
  H69      1.0000 0.82330  0.17280  0.16480  Biso   1.000  H
  H70      1.0000 0.17670  0.82720  0.66480  Biso   1.000  H
  H71      1.0000 0.82720  0.82330  0.41480  Biso   1.000  H
  H72      1.0000 0.17280  0.17670  0.91480  Biso   1.000  H
  H73      1.0000 0.87260  0.09330  0.23510  Biso   1.000  H
  H74      1.0000 0.12740  0.90670  0.73510  Biso   1.000  H
  H75      1.0000 0.90670  0.87260  0.48510  Biso   1.000  H
  H76      1.0000 0.09330  0.12740  0.98510  Biso   1.000  H
  H77      1.0000 0.80500  0.20410  0.25930  Biso   1.000  H
  H78      1.0000 0.19500  0.79590  0.75930  Biso   1.000  H
  H79      1.0000 0.79590  0.80500  0.50930  Biso   1.000  H
  H80      1.0000 0.20410  0.19500  0.00930  Biso   1.000  H
  S5       1.0000 0.05760  0.87810  0.24640  Biso   1.000  S
  S6       1.0000 0.94240  0.12190  0.74640  Biso   1.000  S
  S7       1.0000 0.12190  0.05760  0.49640  Biso   1.000  S
  S8       1.0000 0.87810  0.94240  0.99640  Biso   1.000  S
  O5       1.0000 0.95010  0.91390  0.28590  Biso   1.000  O
  O6       1.0000 0.04990  0.08610  0.78590  Biso   1.000  O
  O7       1.0000 0.08610  0.95010  0.53590  Biso   1.000  O
  O8       1.0000 0.91390  0.04990  0.03590  Biso   1.000  O
  C57      1.0000 0.01930  0.78680  0.16590  Biso   1.000  C
  C58      1.0000 0.98070  0.21320  0.66590  Biso   1.000  C
  C59      1.0000 0.21320  0.01930  0.41590  Biso   1.000  C
  C60      1.0000 0.78680  0.98070  0.91590  Biso   1.000  C
  H81      1.0000 0.99310  0.71570  0.18900  Biso   1.000  H
  H82      1.0000 0.00690  0.28430  0.68900  Biso   1.000  H
  H83      1.0000 0.28430  0.99310  0.43900  Biso   1.000  H
  H84      1.0000 0.71570  0.00690  0.93900  Biso   1.000  H
  H85      1.0000 0.08430  0.77320  0.13060  Biso   1.000  H
  H86      1.0000 0.91570  0.22680  0.63060  Biso   1.000  H
  H87      1.0000 0.22680  0.08430  0.38060  Biso   1.000  H
  H88      1.0000 0.77320  0.91570  0.88060  Biso   1.000  H
  H89      1.0000 0.95910  0.82090  0.13350  Biso   1.000  H
  H90      1.0000 0.04090  0.17910  0.63350  Biso   1.000  H
  H91      1.0000 0.17910  0.95910  0.38350  Biso   1.000  H
  H92      1.0000 0.82090  0.04090  0.88350  Biso   1.000  H
  C61      1.0000 0.09940  0.99370  0.18630  Biso   1.000  C
  C62      1.0000 0.90060  0.00630  0.68630  Biso   1.000  C
  C63      1.0000 0.00630  0.09940  0.43630  Biso   1.000  C
  C64      1.0000 0.99370  0.90060  0.93630  Biso   1.000  C
  H93      1.0000 0.12260  0.05510  0.22230  Biso   1.000  H
  H94      1.0000 0.87740  0.94490  0.72230  Biso   1.000  H
  H95      1.0000 0.94490  0.12260  0.47230  Biso   1.000  H
  H96      1.0000 0.05510  0.87740  0.97230  Biso   1.000  H
  H97      1.0000 0.03650  0.01830  0.15210  Biso   1.000  H
  H98      1.0000 0.96350  0.98170  0.65210  Biso   1.000  H
  H99      1.0000 0.98170  0.03650  0.40210  Biso   1.000  H
  H100     1.0000 0.01830  0.96350  0.90210  Biso   1.000  H
  H101     1.0000 0.16220  0.97190  0.15100  Biso   1.000  H
  H102     1.0000 0.83780  0.02810  0.65100  Biso   1.000  H
  H103     1.0000 0.02810  0.16220  0.40100  Biso   1.000  H
  H104     1.0000 0.97190  0.83780  0.90100  Biso   1.000  H
