data_image0
_cell_length_a       7.454
_cell_length_b       13.816
_cell_length_c       17.936
_cell_angle_alpha    90
_cell_angle_beta     92.88
_cell_angle_gamma    90

_symmetry_space_group_name_H-M    "P 1"
_symmetry_int_tables_number       1

loop_
  _symmetry_equiv_pos_as_xyz
  'x, y, z'

loop_
  _atom_site_label
  _atom_site_occupancy
  _atom_site_fract_x
  _atom_site_fract_y
  _atom_site_fract_z
  _atom_site_thermal_displace_type
  _atom_site_B_iso_or_equiv
  _atom_site_type_symbol
  Cu1      1.0000 0.39119  0.78703  0.18574  Biso   1.000  Cu
  Cu2      1.0000 0.10881  0.28703  0.31426  Biso   1.000  Cu
  Cu3      1.0000 0.60881  0.21297  0.81426  Biso   1.000  Cu
  Cu4      1.0000 0.89119  0.71297  0.68574  Biso   1.000  Cu
  O1       1.0000 0.85290  0.92207  0.64223  Biso   1.000  O
  O2       1.0000 0.64710  0.42207  0.85777  Biso   1.000  O
  O3       1.0000 0.14710  0.07793  0.35777  Biso   1.000  O
  O4       1.0000 0.35290  0.57793  0.14223  Biso   1.000  O
  O5       1.0000 0.53130  0.85108  0.26608  Biso   1.000  O
  O6       1.0000 0.96870  0.35108  0.23392  Biso   1.000  O
  O7       1.0000 0.46870  0.14892  0.73392  Biso   1.000  O
  O8       1.0000 0.03130  0.64892  0.76608  Biso   1.000  O
  O9       1.0000 0.54760  0.72655  0.34567  Biso   1.000  O
  O10      1.0000 0.95240  0.22655  0.15433  Biso   1.000  O
  O11      1.0000 0.45240  0.27345  0.65433  Biso   1.000  O
  O12      1.0000 0.04760  0.77345  0.84567  Biso   1.000  O
  O13      1.0000 0.75350  0.77803  0.60390  Biso   1.000  O
  O14      1.0000 0.74650  0.27803  0.89610  Biso   1.000  O
  O15      1.0000 0.24650  0.22197  0.39610  Biso   1.000  O
  O16      1.0000 0.25350  0.72197  0.10390  Biso   1.000  O
  O17      1.0000 0.48270  0.54792  0.28759  Biso   1.000  O
  O18      1.0000 0.01730  0.04792  0.21241  Biso   1.000  O
  O19      1.0000 0.51730  0.45208  0.71241  Biso   1.000  O
  O20      1.0000 0.98270  0.95208  0.78759  Biso   1.000  O
  O21      1.0000 0.28430  0.93893  0.13870  Biso   1.000  O
  O22      1.0000 0.21570  0.43893  0.36130  Biso   1.000  O
  O23      1.0000 0.71570  0.06107  0.86130  Biso   1.000  O
  O24      1.0000 0.78430  0.56107  0.63870  Biso   1.000  O
  O25      1.0000 0.82960  0.52280  0.35160  Biso   1.000  O
  O26      1.0000 0.67040  0.02280  0.14840  Biso   1.000  O
  O27      1.0000 0.17040  0.47720  0.64840  Biso   1.000  O
  O28      1.0000 0.32960  0.97720  0.85160  Biso   1.000  O
  O29      1.0000 0.15170  0.93220  0.98390  Biso   1.000  O
  O30      1.0000 0.34830  0.43220  0.51610  Biso   1.000  O
  O31      1.0000 0.84830  0.06780  0.01610  Biso   1.000  O
  O32      1.0000 0.65170  0.56780  0.48390  Biso   1.000  O
  C1       1.0000 0.56320  0.81304  0.33022  Biso   1.000  C
  C2       1.0000 0.93680  0.31304  0.16978  Biso   1.000  C
  C3       1.0000 0.43680  0.18696  0.66978  Biso   1.000  C
  C4       1.0000 0.06320  0.68696  0.83022  Biso   1.000  C
  C5       1.0000 0.62560  0.88222  0.39062  Biso   1.000  C
  C6       1.0000 0.87440  0.38222  0.10938  Biso   1.000  C
  C7       1.0000 0.37440  0.11778  0.60938  Biso   1.000  C
  C8       1.0000 0.12560  0.61778  0.89062  Biso   1.000  C
  C9       1.0000 0.66440  0.84716  0.46217  Biso   1.000  C
  C10      1.0000 0.83560  0.34716  0.03783  Biso   1.000  C
  C11      1.0000 0.33560  0.15284  0.53783  Biso   1.000  C
  C12      1.0000 0.16440  0.65284  0.96217  Biso   1.000  C
  C13      1.0000 0.73230  0.90787  0.51832  Biso   1.000  C
  C14      1.0000 0.76770  0.40787  0.98168  Biso   1.000  C
  C15      1.0000 0.26770  0.09213  0.48168  Biso   1.000  C
  C16      1.0000 0.23230  0.59213  0.01832  Biso   1.000  C
  C17      1.0000 0.76010  0.00438  0.50266  Biso   1.000  C
  C18      1.0000 0.73990  0.50438  0.99734  Biso   1.000  C
  C19      1.0000 0.23990  0.99562  0.49734  Biso   1.000  C
  C20      1.0000 0.26010  0.49562  0.00266  Biso   1.000  C
  C21      1.0000 0.72270  0.03970  0.43150  Biso   1.000  C
  C22      1.0000 0.77730  0.53970  0.06850  Biso   1.000  C
  C23      1.0000 0.27730  0.96030  0.56850  Biso   1.000  C
  C24      1.0000 0.22270  0.46030  0.93150  Biso   1.000  C
  C25      1.0000 0.65470  0.97879  0.37584  Biso   1.000  C
  C26      1.0000 0.84530  0.47879  0.12416  Biso   1.000  C
  C27      1.0000 0.34530  0.02121  0.62416  Biso   1.000  C
  C28      1.0000 0.15470  0.52121  0.87584  Biso   1.000  C
  C29      1.0000 0.14100  0.83180  0.30720  Biso   1.000  C
  C30      1.0000 0.35900  0.33180  0.19280  Biso   1.000  C
  C31      1.0000 0.85900  0.16820  0.69280  Biso   1.000  C
  C32      1.0000 0.64100  0.66820  0.80720  Biso   1.000  C
  C33      1.0000 0.02480  0.78690  0.34981  Biso   1.000  C
  C34      1.0000 0.47520  0.28690  0.15019  Biso   1.000  C
  C35      1.0000 0.97520  0.21310  0.65019  Biso   1.000  C
  C36      1.0000 0.52480  0.71310  0.84981  Biso   1.000  C
  C37      1.0000 0.10990  0.68700  0.26518  Biso   1.000  C
  C38      1.0000 0.39010  0.18700  0.23482  Biso   1.000  C
  C39      1.0000 0.89010  0.31300  0.73482  Biso   1.000  C
  C40      1.0000 0.60990  0.81300  0.76518  Biso   1.000  C
  C41      1.0000 0.78380  0.86843  0.59443  Biso   1.000  C
  C42      1.0000 0.71620  0.36843  0.90557  Biso   1.000  C
  C43      1.0000 0.21620  0.13157  0.40557  Biso   1.000  C
  C44      1.0000 0.28380  0.63157  0.09443  Biso   1.000  C
  C45      1.0000 0.60440  0.79882  0.04656  Biso   1.000  C
  C46      1.0000 0.89560  0.29882  0.45344  Biso   1.000  C
  C47      1.0000 0.39560  0.20118  0.95344  Biso   1.000  C
  C48      1.0000 0.10440  0.70118  0.54656  Biso   1.000  C
  C49      1.0000 0.77590  0.79820  0.02536  Biso   1.000  C
  C50      1.0000 0.72410  0.29820  0.47464  Biso   1.000  C
  C51      1.0000 0.22410  0.20180  0.97464  Biso   1.000  C
  C52      1.0000 0.27590  0.70180  0.52536  Biso   1.000  C
  C53      1.0000 0.77420  0.78815  0.14642  Biso   1.000  C
  C54      1.0000 0.72580  0.28815  0.35358  Biso   1.000  C
  C55      1.0000 0.22580  0.21185  0.85358  Biso   1.000  C
  C56      1.0000 0.27420  0.71185  0.64642  Biso   1.000  C
  N1       1.0000 0.60350  0.79227  0.12317  Biso   1.000  N
  N2       1.0000 0.89650  0.29227  0.37683  Biso   1.000  N
  N3       1.0000 0.39650  0.20773  0.87683  Biso   1.000  N
  N4       1.0000 0.10350  0.70773  0.62317  Biso   1.000  N
  N5       1.0000 0.19380  0.76835  0.25344  Biso   1.000  N
  N6       1.0000 0.30620  0.26835  0.24656  Biso   1.000  N
  N7       1.0000 0.80620  0.23165  0.74656  Biso   1.000  N
  N8       1.0000 0.69380  0.73165  0.75344  Biso   1.000  N
  N9       1.0000 0.00630  0.69570  0.32325  Biso   1.000  N
  N10      1.0000 0.49370  0.19570  0.17675  Biso   1.000  N
  N11      1.0000 0.99370  0.30430  0.67675  Biso   1.000  N
  N12      1.0000 0.50630  0.80430  0.82325  Biso   1.000  N
  N13      1.0000 0.88060  0.79167  0.08899  Biso   1.000  N
  N14      1.0000 0.61940  0.29167  0.41101  Biso   1.000  N
  N15      1.0000 0.11940  0.20833  0.91101  Biso   1.000  N
  N16      1.0000 0.38060  0.70833  0.58899  Biso   1.000  N
  H1       1.0000 0.62800  0.00200  0.32490  Biso   1.000  H
  H2       1.0000 0.87200  0.50200  0.17510  Biso   1.000  H
  H3       1.0000 0.37200  0.99800  0.67510  Biso   1.000  H
  H4       1.0000 0.12800  0.49800  0.82490  Biso   1.000  H
  H5       1.0000 0.74100  0.10700  0.42120  Biso   1.000  H
  H6       1.0000 0.75900  0.60700  0.07880  Biso   1.000  H
  H7       1.0000 0.25900  0.89300  0.57880  Biso   1.000  H
  H8       1.0000 0.24100  0.39300  0.92120  Biso   1.000  H
  H9       1.0000 0.80500  0.04500  0.53980  Biso   1.000  H
  H10      1.0000 0.69500  0.54500  0.96020  Biso   1.000  H
  H11      1.0000 0.19500  0.95500  0.46020  Biso   1.000  H
  H12      1.0000 0.30500  0.45500  0.03980  Biso   1.000  H
  H13      1.0000 0.64900  0.78410  0.47110  Biso   1.000  H
  H14      1.0000 0.85100  0.28410  0.02890  Biso   1.000  H
  H15      1.0000 0.35100  0.21590  0.52890  Biso   1.000  H
  H16      1.0000 0.14900  0.71590  0.97110  Biso   1.000  H
  H17      1.0000 0.11800  0.63200  0.23640  Biso   1.000  H
  H18      1.0000 0.38200  0.13200  0.26360  Biso   1.000  H
  H19      1.0000 0.88200  0.36800  0.76360  Biso   1.000  H
  H20      1.0000 0.61800  0.86800  0.73640  Biso   1.000  H
  H21      1.0000 0.94700  0.65200  0.33470  Biso   1.000  H
  H22      1.0000 0.55300  0.15200  0.16530  Biso   1.000  H
  H23      1.0000 0.05300  0.34800  0.66530  Biso   1.000  H
  H24      1.0000 0.44700  0.84800  0.83470  Biso   1.000  H
  H25      1.0000 0.97300  0.80500  0.38800  Biso   1.000  H
  H26      1.0000 0.52700  0.30500  0.11200  Biso   1.000  H
  H27      1.0000 0.02700  0.19500  0.61200  Biso   1.000  H
  H28      1.0000 0.47300  0.69500  0.88800  Biso   1.000  H
  H29      1.0000 0.18500  0.89600  0.31030  Biso   1.000  H
  H30      1.0000 0.31500  0.39600  0.18970  Biso   1.000  H
  H31      1.0000 0.81500  0.10400  0.68970  Biso   1.000  H
  H32      1.0000 0.68500  0.60400  0.81030  Biso   1.000  H
  H33      1.0000 0.81800  0.80400  0.97890  Biso   1.000  H
  H34      1.0000 0.68200  0.30400  0.52110  Biso   1.000  H
  H35      1.0000 0.18200  0.19600  0.02110  Biso   1.000  H
  H36      1.0000 0.31800  0.69600  0.47890  Biso   1.000  H
  H37      1.0000 0.97600  0.78600  0.09180  Biso   1.000  H
  H38      1.0000 0.52400  0.28600  0.40820  Biso   1.000  H
  H39      1.0000 0.02400  0.21400  0.90820  Biso   1.000  H
  H40      1.0000 0.47600  0.71400  0.59180  Biso   1.000  H
  H41      1.0000 0.81800  0.78470  0.19370  Biso   1.000  H
  H42      1.0000 0.68200  0.28470  0.30630  Biso   1.000  H
  H43      1.0000 0.18200  0.21530  0.80630  Biso   1.000  H
  H44      1.0000 0.31800  0.71530  0.69370  Biso   1.000  H
  H45      1.0000 0.50300  0.80360  0.01920  Biso   1.000  H
  H46      1.0000 0.99700  0.30360  0.48080  Biso   1.000  H
  H47      1.0000 0.49700  0.19640  0.98080  Biso   1.000  H
  H48      1.0000 0.00300  0.69640  0.51920  Biso   1.000  H
  H49      1.0000 0.49900  0.60690  0.30590  Biso   1.000  H
  H50      1.0000 0.00100  0.10690  0.19410  Biso   1.000  H
  H51      1.0000 0.50100  0.39310  0.69410  Biso   1.000  H
  H52      1.0000 0.99900  0.89310  0.80590  Biso   1.000  H
  H53      1.0000 0.45600  0.55500  0.24280  Biso   1.000  H
  H54      1.0000 0.04400  0.05500  0.25720  Biso   1.000  H
  H55      1.0000 0.54400  0.44500  0.75720  Biso   1.000  H
  H56      1.0000 0.95600  0.94500  0.74280  Biso   1.000  H
  H57      1.0000 0.20600  0.97100  0.16040  Biso   1.000  H
  H58      1.0000 0.29400  0.47100  0.33960  Biso   1.000  H
  H59      1.0000 0.79400  0.02900  0.83960  Biso   1.000  H
  H60      1.0000 0.70600  0.52900  0.66040  Biso   1.000  H
  H61      1.0000 0.24600  0.93700  0.09510  Biso   1.000  H
  H62      1.0000 0.25400  0.43700  0.40490  Biso   1.000  H
  H63      1.0000 0.75400  0.06300  0.90490  Biso   1.000  H
  H64      1.0000 0.74600  0.56300  0.59510  Biso   1.000  H
  H65      1.0000 0.75200  0.51300  0.31800  Biso   1.000  H
  H66      1.0000 0.74800  0.01300  0.18200  Biso   1.000  H
  H67      1.0000 0.24800  0.48700  0.68200  Biso   1.000  H
  H68      1.0000 0.25200  0.98700  0.81800  Biso   1.000  H
  H69      1.0000 0.91000  0.48500  0.34300  Biso   1.000  H
  H70      1.0000 0.59000  0.98500  0.15700  Biso   1.000  H
  H71      1.0000 0.09000  0.51500  0.65700  Biso   1.000  H
  H72      1.0000 0.41000  0.01500  0.84300  Biso   1.000  H
  H73      1.0000 0.23600  0.95100  0.95700  Biso   1.000  H
  H74      1.0000 0.26400  0.45100  0.54300  Biso   1.000  H
  H75      1.0000 0.76400  0.04900  0.04300  Biso   1.000  H
  H76      1.0000 0.73600  0.54900  0.45700  Biso   1.000  H
  H77      1.0000 0.15000  0.99220  0.99300  Biso   1.000  H
  H78      1.0000 0.35000  0.49220  0.50700  Biso   1.000  H
  H79      1.0000 0.85000  0.00780  0.00700  Biso   1.000  H
  H80      1.0000 0.65000  0.50780  0.49300  Biso   1.000  H
