data_image0
_cell_length_a       12.1935
_cell_length_b       20.2551
_cell_length_c       15.1134
_cell_angle_alpha    90
_cell_angle_beta     97.944
_cell_angle_gamma    90

_symmetry_space_group_name_H-M    "P 1"
_symmetry_int_tables_number       1

loop_
  _symmetry_equiv_pos_as_xyz
  'x, y, z'

loop_
  _atom_site_label
  _atom_site_occupancy
  _atom_site_fract_x
  _atom_site_fract_y
  _atom_site_fract_z
  _atom_site_thermal_displace_type
  _atom_site_B_iso_or_equiv
  _atom_site_type_symbol
  Cu1      1.0000 0.31964  0.12425  0.28968  Biso   1.000  Cu
  Cu2      1.0000 0.18036  0.62425  0.21032  Biso   1.000  Cu
  Cu3      1.0000 0.68036  0.87575  0.71032  Biso   1.000  Cu
  Cu4      1.0000 0.81964  0.37575  0.78968  Biso   1.000  Cu
  Br1      1.0000 0.51937  0.11800  0.39061  Biso   1.000  Br
  Br2      1.0000 0.98063  0.61800  0.10939  Biso   1.000  Br
  Br3      1.0000 0.48063  0.88200  0.60939  Biso   1.000  Br
  Br4      1.0000 0.01937  0.38200  0.89061  Biso   1.000  Br
  Si1      1.0000 0.10740  0.37860  0.49862  Biso   1.000  Si
  Si2      1.0000 0.39260  0.87860  0.00138  Biso   1.000  Si
  Si3      1.0000 0.89260  0.62140  0.50138  Biso   1.000  Si
  Si4      1.0000 0.60740  0.12140  0.99862  Biso   1.000  Si
  N1       1.0000 0.25350  0.19597  0.36070  Biso   1.000  N
  N2       1.0000 0.24650  0.69597  0.13930  Biso   1.000  N
  N3       1.0000 0.74650  0.80403  0.63930  Biso   1.000  N
  N4       1.0000 0.75350  0.30403  0.86070  Biso   1.000  N
  C1       1.0000 0.14790  0.21500  0.33930  Biso   1.000  C
  C2       1.0000 0.35210  0.71500  0.16070  Biso   1.000  C
  C3       1.0000 0.85210  0.78500  0.66070  Biso   1.000  C
  C4       1.0000 0.64790  0.28500  0.83930  Biso   1.000  C
  H1       1.0000 0.10310  0.19190  0.29500  Biso   1.000  H
  H2       1.0000 0.39690  0.69190  0.20500  Biso   1.000  H
  H3       1.0000 0.89690  0.80810  0.70500  Biso   1.000  H
  H4       1.0000 0.60310  0.30810  0.79500  Biso   1.000  H
  Si5      1.0000 0.42706  0.37397  0.02125  Biso   1.000  Si
  Si6      1.0000 0.07294  0.87397  0.47875  Biso   1.000  Si
  Si7      1.0000 0.57294  0.62603  0.97875  Biso   1.000  Si
  Si8      1.0000 0.92706  0.12603  0.52125  Biso   1.000  Si
  N5       1.0000 0.15440  0.55498  0.30360  Biso   1.000  N
  N6       1.0000 0.34560  0.05498  0.19640  Biso   1.000  N
  N7       1.0000 0.84560  0.44502  0.69640  Biso   1.000  N
  N8       1.0000 0.65440  0.94502  0.80360  Biso   1.000  N
  C5       1.0000 0.10280  0.26730  0.38000  Biso   1.000  C
  C6       1.0000 0.39720  0.76730  0.12000  Biso   1.000  C
  C7       1.0000 0.89720  0.73270  0.62000  Biso   1.000  C
  C8       1.0000 0.60280  0.23270  0.88000  Biso   1.000  C
  H5       1.0000 0.02910  0.27850  0.36240  Biso   1.000  H
  H6       1.0000 0.47090  0.77850  0.13760  Biso   1.000  H
  H7       1.0000 0.97090  0.72150  0.63760  Biso   1.000  H
  H8       1.0000 0.52910  0.22150  0.86240  Biso   1.000  H
  N9       1.0000 0.35610  0.19696  0.20680  Biso   1.000  N
  N10      1.0000 0.14390  0.69696  0.29320  Biso   1.000  N
  N11      1.0000 0.64390  0.80304  0.79320  Biso   1.000  N
  N12      1.0000 0.85610  0.30304  0.70680  Biso   1.000  N
  C9       1.0000 0.16490  0.30370  0.44660  Biso   1.000  C
  C10      1.0000 0.33510  0.80370  0.05340  Biso   1.000  C
  C11      1.0000 0.83510  0.69630  0.55340  Biso   1.000  C
  C12      1.0000 0.66490  0.19630  0.94660  Biso   1.000  C
  N13      1.0000 0.25700  0.55207  0.14870  Biso   1.000  N
  N14      1.0000 0.24300  0.05207  0.35130  Biso   1.000  N
  N15      1.0000 0.74300  0.44793  0.85130  Biso   1.000  N
  N16      1.0000 0.75700  0.94793  0.64870  Biso   1.000  N
  C13      1.0000 0.27470  0.28380  0.46800  Biso   1.000  C
  C14      1.0000 0.22530  0.78380  0.03200  Biso   1.000  C
  C15      1.0000 0.72530  0.71620  0.53200  Biso   1.000  C
  C16      1.0000 0.77470  0.21620  0.96800  Biso   1.000  C
  H9       1.0000 0.32130  0.30640  0.51180  Biso   1.000  H
  H10      1.0000 0.17870  0.80640  0.98820  Biso   1.000  H
  H11      1.0000 0.67870  0.69360  0.48820  Biso   1.000  H
  H12      1.0000 0.82130  0.19360  0.01180  Biso   1.000  H
  C17      1.0000 0.31480  0.23100  0.42490  Biso   1.000  C
  C18      1.0000 0.18520  0.73100  0.07510  Biso   1.000  C
  C19      1.0000 0.68520  0.76900  0.57510  Biso   1.000  C
  C20      1.0000 0.81480  0.26900  0.92490  Biso   1.000  C
  H13      1.0000 0.38840  0.21900  0.44110  Biso   1.000  H
  H14      1.0000 0.11160  0.71900  0.05890  Biso   1.000  H
  H15      1.0000 0.61160  0.78100  0.55890  Biso   1.000  H
  H16      1.0000 0.88840  0.28100  0.94110  Biso   1.000  H
  C21      1.0000 0.95690  0.36760  0.49920  Biso   1.000  C
  C22      1.0000 0.54310  0.86760  0.00080  Biso   1.000  C
  C23      1.0000 0.04310  0.63240  0.50080  Biso   1.000  C
  C24      1.0000 0.45690  0.13240  0.99920  Biso   1.000  C
  H17      1.0000 0.94460  0.33140  0.53760  Biso   1.000  H
  H18      1.0000 0.55540  0.83140  0.96240  Biso   1.000  H
  H19      1.0000 0.05540  0.66860  0.46240  Biso   1.000  H
  H20      1.0000 0.44460  0.16860  0.03760  Biso   1.000  H
  H21      1.0000 0.92180  0.35850  0.43970  Biso   1.000  H
  H22      1.0000 0.57820  0.85850  0.06030  Biso   1.000  H
  H23      1.0000 0.07820  0.64150  0.56030  Biso   1.000  H
  H24      1.0000 0.42180  0.14150  0.93970  Biso   1.000  H
  H25      1.0000 0.92630  0.40720  0.52070  Biso   1.000  H
  H26      1.0000 0.57370  0.90720  0.97930  Biso   1.000  H
  H27      1.0000 0.07370  0.59280  0.47930  Biso   1.000  H
  H28      1.0000 0.42630  0.09280  0.02070  Biso   1.000  H
  C25      1.0000 0.18460  0.39450  0.61080  Biso   1.000  C
  C26      1.0000 0.31540  0.89450  0.88920  Biso   1.000  C
  C27      1.0000 0.81540  0.60550  0.38920  Biso   1.000  C
  C28      1.0000 0.68460  0.10550  0.11080  Biso   1.000  C
  H29      1.0000 0.17440  0.35820  0.64960  Biso   1.000  H
  H30      1.0000 0.32560  0.85820  0.85040  Biso   1.000  H
  H31      1.0000 0.82560  0.64180  0.35040  Biso   1.000  H
  H32      1.0000 0.67440  0.14180  0.14960  Biso   1.000  H
  H33      1.0000 0.15750  0.43430  0.63470  Biso   1.000  H
  H34      1.0000 0.34250  0.93430  0.86530  Biso   1.000  H
  H35      1.0000 0.84250  0.56570  0.36530  Biso   1.000  H
  H36      1.0000 0.65750  0.06570  0.13470  Biso   1.000  H
  H37      1.0000 0.26190  0.39940  0.60630  Biso   1.000  H
  H38      1.0000 0.23810  0.89940  0.89370  Biso   1.000  H
  H39      1.0000 0.73810  0.60060  0.39370  Biso   1.000  H
  H40      1.0000 0.76190  0.10060  0.10630  Biso   1.000  H
  C29      1.0000 0.12820  0.45010  0.42280  Biso   1.000  C
  C30      1.0000 0.37180  0.95010  0.07720  Biso   1.000  C
  C31      1.0000 0.87180  0.54990  0.57720  Biso   1.000  C
  C32      1.0000 0.62820  0.04990  0.92280  Biso   1.000  C
  C33      1.0000 0.22720  0.48480  0.42540  Biso   1.000  C
  C34      1.0000 0.27280  0.98480  0.07460  Biso   1.000  C
  C35      1.0000 0.77280  0.51520  0.57460  Biso   1.000  C
  C36      1.0000 0.72720  0.01520  0.92540  Biso   1.000  C
  H41      1.0000 0.28710  0.47350  0.46770  Biso   1.000  H
  H42      1.0000 0.21290  0.97350  0.03230  Biso   1.000  H
  H43      1.0000 0.71290  0.52650  0.53230  Biso   1.000  H
  H44      1.0000 0.78710  0.02650  0.96770  Biso   1.000  H
  C37      1.0000 0.23840  0.53560  0.36670  Biso   1.000  C
  C38      1.0000 0.26160  0.03560  0.13330  Biso   1.000  C
  C39      1.0000 0.76160  0.46440  0.63330  Biso   1.000  C
  C40      1.0000 0.73840  0.96440  0.86670  Biso   1.000  C
  H45      1.0000 0.30600  0.55740  0.37040  Biso   1.000  H
  H46      1.0000 0.19400  0.05740  0.12960  Biso   1.000  H
  H47      1.0000 0.69400  0.44260  0.62960  Biso   1.000  H
  H48      1.0000 0.80600  0.94260  0.87040  Biso   1.000  H
  C41      1.0000 0.05960  0.52310  0.30110  Biso   1.000  C
  C42      1.0000 0.44040  0.02310  0.19890  Biso   1.000  C
  C43      1.0000 0.94040  0.47690  0.69890  Biso   1.000  C
  C44      1.0000 0.55960  0.97690  0.80110  Biso   1.000  C
  H49      1.0000 0.00090  0.53580  0.25860  Biso   1.000  H
  H50      1.0000 0.49910  0.03580  0.24140  Biso   1.000  H
  H51      1.0000 0.99910  0.46420  0.74140  Biso   1.000  H
  H52      1.0000 0.50090  0.96420  0.75860  Biso   1.000  H
  C45      1.0000 0.04250  0.47220  0.35750  Biso   1.000  C
  C46      1.0000 0.45750  0.97220  0.14250  Biso   1.000  C
  C47      1.0000 0.95750  0.52780  0.64250  Biso   1.000  C
  C48      1.0000 0.54250  0.02780  0.85750  Biso   1.000  C
  H53      1.0000 0.97340  0.45210  0.35260  Biso   1.000  H
  H54      1.0000 0.52660  0.95210  0.14740  Biso   1.000  H
  H55      1.0000 0.02660  0.54790  0.64740  Biso   1.000  H
  H56      1.0000 0.47340  0.04790  0.85260  Biso   1.000  H
  C49      1.0000 0.27640  0.22130  0.14400  Biso   1.000  C
  C50      1.0000 0.22360  0.72130  0.35600  Biso   1.000  C
  C51      1.0000 0.72360  0.77870  0.85600  Biso   1.000  C
  C52      1.0000 0.77640  0.27870  0.64400  Biso   1.000  C
  H57      1.0000 0.20630  0.20240  0.13870  Biso   1.000  H
  H58      1.0000 0.29370  0.70240  0.36130  Biso   1.000  H
  H59      1.0000 0.79370  0.79760  0.86130  Biso   1.000  H
  H60      1.0000 0.70630  0.29760  0.63870  Biso   1.000  H
  C53      1.0000 0.29370  0.27210  0.08810  Biso   1.000  C
  C54      1.0000 0.20630  0.77210  0.41190  Biso   1.000  C
  C55      1.0000 0.70630  0.72790  0.91190  Biso   1.000  C
  C56      1.0000 0.79370  0.22790  0.58810  Biso   1.000  C
  H61      1.0000 0.23600  0.28670  0.04590  Biso   1.000  H
  H62      1.0000 0.26400  0.78670  0.45410  Biso   1.000  H
  H63      1.0000 0.76400  0.71330  0.95410  Biso   1.000  H
  H64      1.0000 0.73600  0.21330  0.54590  Biso   1.000  H
  C57      1.0000 0.39730  0.30240  0.09380  Biso   1.000  C
  C58      1.0000 0.10270  0.80240  0.40620  Biso   1.000  C
  C59      1.0000 0.60270  0.69760  0.90620  Biso   1.000  C
  C60      1.0000 0.89730  0.19760  0.59380  Biso   1.000  C
  C61      1.0000 0.47740  0.27770  0.15890  Biso   1.000  C
  C62      1.0000 0.02260  0.77770  0.34110  Biso   1.000  C
  C63      1.0000 0.52260  0.72230  0.84110  Biso   1.000  C
  C64      1.0000 0.97740  0.22230  0.65890  Biso   1.000  C
  H65      1.0000 0.54790  0.29620  0.16680  Biso   1.000  H
  H66      1.0000 0.95210  0.79620  0.33320  Biso   1.000  H
  H67      1.0000 0.45210  0.70380  0.83320  Biso   1.000  H
  H68      1.0000 0.04790  0.20380  0.66680  Biso   1.000  H
  C65      1.0000 0.45390  0.22570  0.21230  Biso   1.000  C
  C66      1.0000 0.04610  0.72570  0.28770  Biso   1.000  C
  C67      1.0000 0.54610  0.77430  0.78770  Biso   1.000  C
  C68      1.0000 0.95390  0.27430  0.71230  Biso   1.000  C
  H69      1.0000 0.51040  0.21010  0.25480  Biso   1.000  H
  H70      1.0000 0.98960  0.71010  0.24520  Biso   1.000  H
  H71      1.0000 0.48960  0.78990  0.74520  Biso   1.000  H
  H72      1.0000 0.01040  0.28990  0.75480  Biso   1.000  H
  C69      1.0000 0.36070  0.36020  0.90450  Biso   1.000  C
  C70      1.0000 0.13930  0.86020  0.59550  Biso   1.000  C
  C71      1.0000 0.63930  0.63980  0.09550  Biso   1.000  C
  C72      1.0000 0.86070  0.13980  0.40450  Biso   1.000  C
  H73      1.0000 0.39480  0.32310  0.87970  Biso   1.000  H
  H74      1.0000 0.10520  0.82310  0.62030  Biso   1.000  H
  H75      1.0000 0.60520  0.67690  0.12030  Biso   1.000  H
  H76      1.0000 0.89480  0.17690  0.37970  Biso   1.000  H
  H77      1.0000 0.36970  0.39880  0.86950  Biso   1.000  H
  H78      1.0000 0.13030  0.89880  0.63050  Biso   1.000  H
  H79      1.0000 0.63030  0.60120  0.13050  Biso   1.000  H
  H80      1.0000 0.86970  0.10120  0.36950  Biso   1.000  H
  H81      1.0000 0.28320  0.35150  0.90410  Biso   1.000  H
  H82      1.0000 0.21680  0.85150  0.59590  Biso   1.000  H
  H83      1.0000 0.71680  0.64850  0.09590  Biso   1.000  H
  H84      1.0000 0.78320  0.14850  0.40410  Biso   1.000  H
  C73      1.0000 0.57950  0.38500  0.03220  Biso   1.000  C
  C74      1.0000 0.92050  0.88500  0.46780  Biso   1.000  C
  C75      1.0000 0.42050  0.61500  0.96780  Biso   1.000  C
  C76      1.0000 0.07950  0.11500  0.53220  Biso   1.000  C
  H85      1.0000 0.61210  0.34760  0.00680  Biso   1.000  H
  H86      1.0000 0.88790  0.84760  0.49320  Biso   1.000  H
  H87      1.0000 0.38790  0.65240  0.99320  Biso   1.000  H
  H88      1.0000 0.11210  0.15240  0.50680  Biso   1.000  H
  H89      1.0000 0.60910  0.38880  0.09430  Biso   1.000  H
  H90      1.0000 0.89090  0.88880  0.40570  Biso   1.000  H
  H91      1.0000 0.39090  0.61120  0.90570  Biso   1.000  H
  H92      1.0000 0.10910  0.11120  0.59430  Biso   1.000  H
  H93      1.0000 0.59620  0.42440  0.00130  Biso   1.000  H
  H94      1.0000 0.90380  0.92440  0.49870  Biso   1.000  H
  H95      1.0000 0.40380  0.57560  0.99870  Biso   1.000  H
  H96      1.0000 0.09620  0.07560  0.50130  Biso   1.000  H
  C77      1.0000 0.36110  0.44690  0.07090  Biso   1.000  C
  C78      1.0000 0.13890  0.94690  0.42910  Biso   1.000  C
  C79      1.0000 0.63890  0.55310  0.92910  Biso   1.000  C
  C80      1.0000 0.86110  0.05310  0.57090  Biso   1.000  C
  C81      1.0000 0.41590  0.48440  0.14030  Biso   1.000  C
  C82      1.0000 0.08410  0.98440  0.35970  Biso   1.000  C
  C83      1.0000 0.58410  0.51560  0.85970  Biso   1.000  C
  C84      1.0000 0.91590  0.01560  0.64030  Biso   1.000  C
  H97      1.0000 0.48900  0.47470  0.16260  Biso   1.000  H
  H98      1.0000 0.01100  0.97470  0.33740  Biso   1.000  H
  H99      1.0000 0.51100  0.52530  0.83740  Biso   1.000  H
  H100     1.0000 0.98900  0.02530  0.66260  Biso   1.000  H
  C85      1.0000 0.36310  0.53570  0.17640  Biso   1.000  C
  C86      1.0000 0.13690  0.03570  0.32360  Biso   1.000  C
  C87      1.0000 0.63690  0.46430  0.82360  Biso   1.000  C
  C88      1.0000 0.86310  0.96430  0.67640  Biso   1.000  C
  H101     1.0000 0.40260  0.56020  0.22210  Biso   1.000  H
  H102     1.0000 0.09740  0.06020  0.27790  Biso   1.000  H
  H103     1.0000 0.59740  0.43980  0.77790  Biso   1.000  H
  H104     1.0000 0.90260  0.93980  0.72210  Biso   1.000  H
  C89      1.0000 0.20300  0.51540  0.08320  Biso   1.000  C
  C90      1.0000 0.29700  0.01540  0.41680  Biso   1.000  C
  C91      1.0000 0.79700  0.48460  0.91680  Biso   1.000  C
  C92      1.0000 0.70300  0.98460  0.58320  Biso   1.000  C
  H105     1.0000 0.12900  0.52500  0.06390  Biso   1.000  H
  H106     1.0000 0.37100  0.02500  0.43610  Biso   1.000  H
  H107     1.0000 0.87100  0.47500  0.93610  Biso   1.000  H
  H108     1.0000 0.62900  0.97500  0.56390  Biso   1.000  H
  C93      1.0000 0.25100  0.46380  0.04240  Biso   1.000  C
  C94      1.0000 0.24900  0.96380  0.45760  Biso   1.000  C
  C95      1.0000 0.74900  0.53620  0.95760  Biso   1.000  C
  C96      1.0000 0.75100  0.03620  0.54240  Biso   1.000  C
  H109     1.0000 0.21000  0.44050  0.99620  Biso   1.000  H
  H110     1.0000 0.29000  0.94050  0.50380  Biso   1.000  H
  H111     1.0000 0.79000  0.55950  0.00380  Biso   1.000  H
  H112     1.0000 0.71000  0.05950  0.49620  Biso   1.000  H
  S1       1.0000 0.85889  0.33840  0.18056  Biso   1.000  S
  S2       1.0000 0.64111  0.83840  0.31944  Biso   1.000  S
  S3       1.0000 0.14111  0.66160  0.81944  Biso   1.000  S
  S4       1.0000 0.35889  0.16160  0.68056  Biso   1.000  S
  O1       1.0000 0.87800  0.33670  0.28160  Biso   1.000  O
  O2       1.0000 0.62200  0.83670  0.21840  Biso   1.000  O
  O3       1.0000 0.12200  0.66330  0.71840  Biso   1.000  O
  O4       1.0000 0.37800  0.16330  0.78160  Biso   1.000  O
  C97      1.0000 0.99180  0.32320  0.14660  Biso   1.000  C
  C98      1.0000 0.50820  0.82320  0.35340  Biso   1.000  C
  C99      1.0000 0.00820  0.67680  0.85340  Biso   1.000  C
  C100     1.0000 0.49180  0.17680  0.64660  Biso   1.000  C
  H113     1.0000 0.01200  0.27780  0.15800  Biso   1.000  H
  H114     1.0000 0.48800  0.77780  0.34200  Biso   1.000  H
  H115     1.0000 0.98800  0.72220  0.84200  Biso   1.000  H
  H116     1.0000 0.51200  0.22220  0.65800  Biso   1.000  H
  H117     1.0000 0.04600  0.35130  0.17980  Biso   1.000  H
  H118     1.0000 0.45400  0.85130  0.32020  Biso   1.000  H
  H119     1.0000 0.95400  0.64870  0.82020  Biso   1.000  H
  H120     1.0000 0.54600  0.14870  0.67980  Biso   1.000  H
  H121     1.0000 0.98850  0.33220  0.08400  Biso   1.000  H
  H122     1.0000 0.51150  0.83220  0.41600  Biso   1.000  H
  H123     1.0000 0.01150  0.66780  0.91600  Biso   1.000  H
  H124     1.0000 0.48850  0.16780  0.58400  Biso   1.000  H
  C101     1.0000 0.85550  0.42170  0.14800  Biso   1.000  C
  C102     1.0000 0.64450  0.92170  0.35200  Biso   1.000  C
  C103     1.0000 0.14450  0.57830  0.85200  Biso   1.000  C
  C104     1.0000 0.35550  0.07830  0.64800  Biso   1.000  C
  H125     1.0000 0.78770  0.44140  0.16050  Biso   1.000  H
  H126     1.0000 0.71230  0.94140  0.33950  Biso   1.000  H
  H127     1.0000 0.21230  0.55860  0.83950  Biso   1.000  H
  H128     1.0000 0.28770  0.05860  0.66050  Biso   1.000  H
  H129     1.0000 0.85960  0.42460  0.08520  Biso   1.000  H
  H130     1.0000 0.64040  0.92460  0.41480  Biso   1.000  H
  H131     1.0000 0.14040  0.57540  0.91480  Biso   1.000  H
  H132     1.0000 0.35960  0.07540  0.58520  Biso   1.000  H
  H133     1.0000 0.91720  0.44450  0.18060  Biso   1.000  H
  H134     1.0000 0.58280  0.94450  0.31940  Biso   1.000  H
  H135     1.0000 0.08280  0.55550  0.81940  Biso   1.000  H
  H136     1.0000 0.41720  0.05550  0.68060  Biso   1.000  H
  Br5      1.0000 0.00598  0.13259  0.12560  Biso   1.000  Br
  Br6      1.0000 0.49402  0.63259  0.37440  Biso   1.000  Br
  Br7      1.0000 0.99402  0.86741  0.87440  Biso   1.000  Br
  Br8      1.0000 0.50598  0.36741  0.62560  Biso   1.000  Br
  S5       1.0000 0.65061  0.41328  0.35404  Biso   1.000  S
  S6       1.0000 0.84939  0.91328  0.14596  Biso   1.000  S
  S7       1.0000 0.34939  0.58672  0.64596  Biso   1.000  S
  S8       1.0000 0.15061  0.08672  0.85404  Biso   1.000  S
  O5       1.0000 0.63070  0.41120  0.25400  Biso   1.000  O
  O6       1.0000 0.86930  0.91120  0.24600  Biso   1.000  O
  O7       1.0000 0.36930  0.58880  0.74600  Biso   1.000  O
  O8       1.0000 0.13070  0.08880  0.75400  Biso   1.000  O
  C105     1.0000 0.52520  0.43830  0.38770  Biso   1.000  C
  C106     1.0000 0.97480  0.93830  0.11230  Biso   1.000  C
  C107     1.0000 0.47480  0.56170  0.61230  Biso   1.000  C
  C108     1.0000 0.02520  0.06170  0.88770  Biso   1.000  C
  H137     1.0000 0.51220  0.48400  0.37280  Biso   1.000  H
  H138     1.0000 0.98780  0.98400  0.12720  Biso   1.000  H
  H139     1.0000 0.48780  0.51600  0.62720  Biso   1.000  H
  H140     1.0000 0.01220  0.01600  0.87280  Biso   1.000  H
  H141     1.0000 0.52880  0.43260  0.45110  Biso   1.000  H
  H142     1.0000 0.97120  0.93260  0.04890  Biso   1.000  H
  H143     1.0000 0.47120  0.56740  0.54890  Biso   1.000  H
  H144     1.0000 0.02880  0.06740  0.95110  Biso   1.000  H
  H145     1.0000 0.46580  0.41210  0.35770  Biso   1.000  H
  H146     1.0000 0.03420  0.91210  0.14230  Biso   1.000  H
  H147     1.0000 0.53420  0.58790  0.64230  Biso   1.000  H
  H148     1.0000 0.96580  0.08790  0.85770  Biso   1.000  H
  C109     1.0000 0.64660  0.33070  0.39100  Biso   1.000  C
  C110     1.0000 0.85340  0.83070  0.10900  Biso   1.000  C
  C111     1.0000 0.35340  0.66930  0.60900  Biso   1.000  C
  C112     1.0000 0.14660  0.16930  0.89100  Biso   1.000  C
  H149     1.0000 0.71100  0.30770  0.37740  Biso   1.000  H
  H150     1.0000 0.78900  0.80770  0.12260  Biso   1.000  H
  H151     1.0000 0.28900  0.69230  0.62260  Biso   1.000  H
  H152     1.0000 0.21100  0.19230  0.87740  Biso   1.000  H
  H153     1.0000 0.58130  0.30950  0.36140  Biso   1.000  H
  H154     1.0000 0.91870  0.80950  0.13860  Biso   1.000  H
  H155     1.0000 0.41870  0.69050  0.63860  Biso   1.000  H
  H156     1.0000 0.08130  0.19050  0.86140  Biso   1.000  H
  H157     1.0000 0.64540  0.33010  0.45440  Biso   1.000  H
  H158     1.0000 0.85460  0.83010  0.04560  Biso   1.000  H
  H159     1.0000 0.35460  0.66990  0.54560  Biso   1.000  H
  H160     1.0000 0.14540  0.16990  0.95440  Biso   1.000  H
