data_image0
_cell_length_a       9.3657
_cell_length_b       11.7713
_cell_length_c       20.1233
_cell_angle_alpha    90
_cell_angle_beta     90
_cell_angle_gamma    90

_symmetry_space_group_name_H-M    "P 1"
_symmetry_int_tables_number       1

loop_
  _symmetry_equiv_pos_as_xyz
  'x, y, z'

loop_
  _atom_site_label
  _atom_site_occupancy
  _atom_site_fract_x
  _atom_site_fract_y
  _atom_site_fract_z
  _atom_site_thermal_displace_type
  _atom_site_B_iso_or_equiv
  _atom_site_type_symbol
  Br1      1.0000 0.78730  0.50000  0.33553  Biso   1.000  Br
  Br2      1.0000 0.21270  0.50000  0.83553  Biso   1.000  Br
  Cu1      1.0000 0.76859  0.25243  0.32971  Biso   1.000  Cu
  Cu2      1.0000 0.23141  0.74757  0.82971  Biso   1.000  Cu
  Cu3      1.0000 0.23141  0.25243  0.82971  Biso   1.000  Cu
  Cu4      1.0000 0.76859  0.74757  0.32971  Biso   1.000  Cu
  Br3      1.0000 0.74358  0.00000  0.33091  Biso   1.000  Br
  Br4      1.0000 0.25642  0.00000  0.83091  Biso   1.000  Br
  N1       1.0000 0.62060  0.26750  0.25680  Biso   1.000  N
  N2       1.0000 0.37940  0.73250  0.75680  Biso   1.000  N
  N3       1.0000 0.37940  0.26750  0.75680  Biso   1.000  N
  N4       1.0000 0.62060  0.73250  0.25680  Biso   1.000  N
  N5       1.0000 0.60290  0.24280  0.39310  Biso   1.000  N
  N6       1.0000 0.39710  0.75720  0.89310  Biso   1.000  N
  N7       1.0000 0.39710  0.24280  0.89310  Biso   1.000  N
  N8       1.0000 0.60290  0.75720  0.39310  Biso   1.000  N
  N9       1.0000 0.90910  0.22980  0.40570  Biso   1.000  N
  N10      1.0000 0.09090  0.77020  0.90570  Biso   1.000  N
  N11      1.0000 0.09090  0.22980  0.90570  Biso   1.000  N
  N12      1.0000 0.90910  0.77020  0.40570  Biso   1.000  N
  N13      1.0000 0.94180  0.24680  0.26890  Biso   1.000  N
  N14      1.0000 0.05820  0.75320  0.76890  Biso   1.000  N
  N15      1.0000 0.05820  0.24680  0.76890  Biso   1.000  N
  N16      1.0000 0.94180  0.75320  0.26890  Biso   1.000  N
  C1       1.0000 0.65260  0.21760  0.18960  Biso   1.000  C
  C2       1.0000 0.34740  0.78240  0.68960  Biso   1.000  C
  C3       1.0000 0.34740  0.21760  0.68960  Biso   1.000  C
  C4       1.0000 0.65260  0.78240  0.18960  Biso   1.000  C
  C5       1.0000 0.48670  0.22850  0.28560  Biso   1.000  C
  C6       1.0000 0.51330  0.77150  0.78560  Biso   1.000  C
  C7       1.0000 0.51330  0.22850  0.78560  Biso   1.000  C
  C8       1.0000 0.48670  0.77150  0.28560  Biso   1.000  C
  H1       1.0000 0.60870  0.34930  0.24960  Biso   1.000  H
  H2       1.0000 0.39130  0.65070  0.74960  Biso   1.000  H
  H3       1.0000 0.39130  0.34930  0.74960  Biso   1.000  H
  H4       1.0000 0.60870  0.65070  0.24960  Biso   1.000  H
  C9       1.0000 0.47360  0.27440  0.35520  Biso   1.000  C
  C10      1.0000 0.52640  0.72560  0.85520  Biso   1.000  C
  C11      1.0000 0.52640  0.27440  0.85520  Biso   1.000  C
  C12      1.0000 0.47360  0.72560  0.35520  Biso   1.000  C
  C13      1.0000 0.61300  0.29500  0.45710  Biso   1.000  C
  C14      1.0000 0.38700  0.70500  0.95710  Biso   1.000  C
  C15      1.0000 0.38700  0.29500  0.95710  Biso   1.000  C
  C16      1.0000 0.61300  0.70500  0.45710  Biso   1.000  C
  H5       1.0000 0.59180  0.16150  0.40230  Biso   1.000  H
  H6       1.0000 0.40820  0.83850  0.90230  Biso   1.000  H
  H7       1.0000 0.40820  0.16150  0.90230  Biso   1.000  H
  H8       1.0000 0.59180  0.83850  0.40230  Biso   1.000  H
  C17      1.0000 0.88130  0.28570  0.46790  Biso   1.000  C
  C18      1.0000 0.11870  0.71430  0.96790  Biso   1.000  C
  C19      1.0000 0.11870  0.28570  0.96790  Biso   1.000  C
  C20      1.0000 0.88130  0.71430  0.46790  Biso   1.000  C
  C21      1.0000 0.05100  0.25170  0.37800  Biso   1.000  C
  C22      1.0000 0.94900  0.74830  0.87800  Biso   1.000  C
  C23      1.0000 0.94900  0.25170  0.87800  Biso   1.000  C
  C24      1.0000 0.05100  0.74830  0.37800  Biso   1.000  C
  H9       1.0000 0.90700  0.14830  0.41560  Biso   1.000  H
  H10      1.0000 0.09300  0.85170  0.91560  Biso   1.000  H
  H11      1.0000 0.09300  0.14830  0.91560  Biso   1.000  H
  H12      1.0000 0.90700  0.85170  0.41560  Biso   1.000  H
  C25      1.0000 0.05770  0.19710  0.31000  Biso   1.000  C
  C26      1.0000 0.94230  0.80290  0.81000  Biso   1.000  C
  C27      1.0000 0.94230  0.19710  0.81000  Biso   1.000  C
  C28      1.0000 0.05770  0.80290  0.31000  Biso   1.000  C
  C29      1.0000 0.92100  0.18950  0.20380  Biso   1.000  C
  C30      1.0000 0.07900  0.81050  0.70380  Biso   1.000  C
  C31      1.0000 0.07900  0.18950  0.70380  Biso   1.000  C
  C32      1.0000 0.92100  0.81050  0.20380  Biso   1.000  C
  H13      1.0000 0.96880  0.32560  0.25940  Biso   1.000  H
  H14      1.0000 0.03120  0.67440  0.75940  Biso   1.000  H
  H15      1.0000 0.03120  0.32560  0.75940  Biso   1.000  H
  H16      1.0000 0.96880  0.67440  0.25940  Biso   1.000  H
  C33      1.0000 0.79850  0.24890  0.16470  Biso   1.000  C
  C34      1.0000 0.20150  0.75110  0.66470  Biso   1.000  C
  C35      1.0000 0.20150  0.24890  0.66470  Biso   1.000  C
  C36      1.0000 0.79850  0.75110  0.16470  Biso   1.000  C
  H17      1.0000 0.65300  0.13500  0.19540  Biso   1.000  H
  H18      1.0000 0.34700  0.86500  0.69540  Biso   1.000  H
  H19      1.0000 0.34700  0.13500  0.69540  Biso   1.000  H
  H20      1.0000 0.65300  0.86500  0.19540  Biso   1.000  H
  C37      1.0000 0.53400  0.24360  0.13960  Biso   1.000  C
  C38      1.0000 0.46600  0.75640  0.63960  Biso   1.000  C
  C39      1.0000 0.46600  0.24360  0.63960  Biso   1.000  C
  C40      1.0000 0.53400  0.75640  0.13960  Biso   1.000  C
  H21      1.0000 0.48450  0.14620  0.28640  Biso   1.000  H
  H22      1.0000 0.51550  0.85380  0.78640  Biso   1.000  H
  H23      1.0000 0.51550  0.14620  0.78640  Biso   1.000  H
  H24      1.0000 0.48450  0.85380  0.28640  Biso   1.000  H
  H25      1.0000 0.40720  0.25490  0.25880  Biso   1.000  H
  H26      1.0000 0.59280  0.74510  0.75880  Biso   1.000  H
  H27      1.0000 0.59280  0.25490  0.75880  Biso   1.000  H
  H28      1.0000 0.40720  0.74510  0.25880  Biso   1.000  H
  H29      1.0000 0.46380  0.35640  0.35400  Biso   1.000  H
  H30      1.0000 0.53620  0.64360  0.85400  Biso   1.000  H
  H31      1.0000 0.53620  0.35640  0.85400  Biso   1.000  H
  H32      1.0000 0.46380  0.64360  0.35400  Biso   1.000  H
  H33      1.0000 0.38950  0.24290  0.37650  Biso   1.000  H
  H34      1.0000 0.61050  0.75710  0.87650  Biso   1.000  H
  H35      1.0000 0.61050  0.24290  0.87650  Biso   1.000  H
  H36      1.0000 0.38950  0.75710  0.37650  Biso   1.000  H
  H37      1.0000 0.52580  0.27960  0.48150  Biso   1.000  H
  H38      1.0000 0.47420  0.72040  0.98150  Biso   1.000  H
  H39      1.0000 0.47420  0.27960  0.98150  Biso   1.000  H
  H40      1.0000 0.52580  0.72040  0.48150  Biso   1.000  H
  H41      1.0000 0.61980  0.37660  0.45120  Biso   1.000  H
  H42      1.0000 0.38020  0.62340  0.95120  Biso   1.000  H
  H43      1.0000 0.38020  0.37660  0.95120  Biso   1.000  H
  H44      1.0000 0.61980  0.62340  0.45120  Biso   1.000  H
  C41      1.0000 0.73670  0.25610  0.49760  Biso   1.000  C
  C42      1.0000 0.26330  0.74390  0.99760  Biso   1.000  C
  C43      1.0000 0.26330  0.25610  0.99760  Biso   1.000  C
  C44      1.0000 0.73670  0.74390  0.49760  Biso   1.000  C
  H45      1.0000 0.88610  0.36720  0.46120  Biso   1.000  H
  H46      1.0000 0.11390  0.63280  0.96120  Biso   1.000  H
  H47      1.0000 0.11390  0.36720  0.96120  Biso   1.000  H
  H48      1.0000 0.88610  0.63280  0.46120  Biso   1.000  H
  H49      1.0000 0.95540  0.26520  0.49930  Biso   1.000  H
  H50      1.0000 0.04460  0.73480  0.99930  Biso   1.000  H
  H51      1.0000 0.04460  0.26520  0.99930  Biso   1.000  H
  H52      1.0000 0.95540  0.73480  0.49930  Biso   1.000  H
  H53      1.0000 0.12390  0.21970  0.40670  Biso   1.000  H
  H54      1.0000 0.87610  0.78030  0.90670  Biso   1.000  H
  H55      1.0000 0.87610  0.21970  0.90670  Biso   1.000  H
  H56      1.0000 0.12390  0.78030  0.40670  Biso   1.000  H
  H57      1.0000 0.06720  0.33280  0.37440  Biso   1.000  H
  H58      1.0000 0.93280  0.66720  0.87440  Biso   1.000  H
  H59      1.0000 0.93280  0.33280  0.87440  Biso   1.000  H
  H60      1.0000 0.06720  0.66720  0.37440  Biso   1.000  H
  H61      1.0000 0.14970  0.21160  0.28960  Biso   1.000  H
  H62      1.0000 0.85030  0.78840  0.78960  Biso   1.000  H
  H63      1.0000 0.85030  0.21160  0.78960  Biso   1.000  H
  H64      1.0000 0.14970  0.78840  0.28960  Biso   1.000  H
  H65      1.0000 0.04500  0.11560  0.31380  Biso   1.000  H
  H66      1.0000 0.95500  0.88440  0.81380  Biso   1.000  H
  H67      1.0000 0.95500  0.11560  0.81380  Biso   1.000  H
  H68      1.0000 0.04500  0.88440  0.31380  Biso   1.000  H
  H69      1.0000 0.88850  0.11210  0.21340  Biso   1.000  H
  H70      1.0000 0.11150  0.88790  0.71340  Biso   1.000  H
  H71      1.0000 0.11150  0.11210  0.71340  Biso   1.000  H
  H72      1.0000 0.88850  0.88790  0.21340  Biso   1.000  H
  C45      1.0000 0.05740  0.17870  0.16290  Biso   1.000  C
  C46      1.0000 0.94260  0.82130  0.66290  Biso   1.000  C
  C47      1.0000 0.94260  0.17870  0.66290  Biso   1.000  C
  C48      1.0000 0.05740  0.82130  0.16290  Biso   1.000  C
  H73      1.0000 0.80400  0.21880  0.11930  Biso   1.000  H
  H74      1.0000 0.19600  0.78120  0.61930  Biso   1.000  H
  H75      1.0000 0.19600  0.21880  0.61930  Biso   1.000  H
  H76      1.0000 0.80400  0.78120  0.11930  Biso   1.000  H
  C49      1.0000 0.83140  0.37800  0.15860  Biso   1.000  C
  C50      1.0000 0.16860  0.62200  0.65860  Biso   1.000  C
  C51      1.0000 0.16860  0.37800  0.65860  Biso   1.000  C
  C52      1.0000 0.83140  0.62200  0.15860  Biso   1.000  C
  H77      1.0000 0.44350  0.22200  0.15810  Biso   1.000  H
  H78      1.0000 0.55650  0.77800  0.65810  Biso   1.000  H
  H79      1.0000 0.55650  0.22200  0.65810  Biso   1.000  H
  H80      1.0000 0.44350  0.77800  0.15810  Biso   1.000  H
  H81      1.0000 0.53340  0.32340  0.12990  Biso   1.000  H
  H82      1.0000 0.46660  0.67660  0.62990  Biso   1.000  H
  H83      1.0000 0.46660  0.32340  0.62990  Biso   1.000  H
  H84      1.0000 0.53340  0.67660  0.12990  Biso   1.000  H
  H85      1.0000 0.55060  0.20170  0.09940  Biso   1.000  H
  H86      1.0000 0.44940  0.79830  0.59940  Biso   1.000  H
  H87      1.0000 0.44940  0.20170  0.59940  Biso   1.000  H
  H88      1.0000 0.55060  0.79830  0.09940  Biso   1.000  H
  H89      1.0000 0.73090  0.17430  0.50290  Biso   1.000  H
  H90      1.0000 0.26910  0.82570  0.00290  Biso   1.000  H
  H91      1.0000 0.26910  0.17430  0.00290  Biso   1.000  H
  H92      1.0000 0.73090  0.82570  0.50290  Biso   1.000  H
  H93      1.0000 0.73000  0.28980  0.54140  Biso   1.000  H
  H94      1.0000 0.27000  0.71020  0.04140  Biso   1.000  H
  H95      1.0000 0.27000  0.28980  0.04140  Biso   1.000  H
  H96      1.0000 0.73000  0.71020  0.54140  Biso   1.000  H
  H97      1.0000 0.03640  0.14110  0.12170  Biso   1.000  H
  H98      1.0000 0.96360  0.85890  0.62170  Biso   1.000  H
  H99      1.0000 0.96360  0.14110  0.62170  Biso   1.000  H
  H100     1.0000 0.03640  0.85890  0.12170  Biso   1.000  H
  H101     1.0000 0.09510  0.25290  0.15390  Biso   1.000  H
  H102     1.0000 0.90490  0.74710  0.65390  Biso   1.000  H
  H103     1.0000 0.90490  0.25290  0.65390  Biso   1.000  H
  H104     1.0000 0.09510  0.74710  0.15390  Biso   1.000  H
  H105     1.0000 0.12640  0.13510  0.18730  Biso   1.000  H
  H106     1.0000 0.87360  0.86490  0.68730  Biso   1.000  H
  H107     1.0000 0.87360  0.13510  0.68730  Biso   1.000  H
  H108     1.0000 0.12640  0.86490  0.18730  Biso   1.000  H
  H109     1.0000 0.78320  0.41620  0.19490  Biso   1.000  H
  H110     1.0000 0.21680  0.58380  0.69490  Biso   1.000  H
  H111     1.0000 0.21680  0.41620  0.69490  Biso   1.000  H
  H112     1.0000 0.78320  0.58380  0.19490  Biso   1.000  H
  H113     1.0000 0.93310  0.38800  0.16550  Biso   1.000  H
  H114     1.0000 0.06690  0.61200  0.66550  Biso   1.000  H
  H115     1.0000 0.06690  0.38800  0.66550  Biso   1.000  H
  H116     1.0000 0.93310  0.61200  0.16550  Biso   1.000  H
  C53      1.0000 0.79210  0.43920  0.09500  Biso   1.000  C
  C54      1.0000 0.20790  0.56080  0.59500  Biso   1.000  C
  C55      1.0000 0.20790  0.43920  0.59500  Biso   1.000  C
  C56      1.0000 0.79210  0.56080  0.09500  Biso   1.000  C
  C57      1.0000 0.76480  0.38300  0.03720  Biso   1.000  C
  C58      1.0000 0.23520  0.61700  0.53720  Biso   1.000  C
  C59      1.0000 0.23520  0.38300  0.53720  Biso   1.000  C
  C60      1.0000 0.76480  0.61700  0.03720  Biso   1.000  C
  H117     1.0000 0.76020  0.30410  0.03770  Biso   1.000  H
  H118     1.0000 0.23980  0.69590  0.53770  Biso   1.000  H
  H119     1.0000 0.23980  0.30410  0.53770  Biso   1.000  H
  H120     1.0000 0.76020  0.69590  0.03770  Biso   1.000  H
  C61      1.0000 0.74350  0.44030  0.97690  Biso   1.000  C
  C62      1.0000 0.25650  0.55970  0.47690  Biso   1.000  C
  C63      1.0000 0.25650  0.44030  0.47690  Biso   1.000  C
  C64      1.0000 0.74350  0.55970  0.97690  Biso   1.000  C
  H121     1.0000 0.72960  0.40000  0.93770  Biso   1.000  H
  H122     1.0000 0.27040  0.60000  0.43770  Biso   1.000  H
  H123     1.0000 0.27040  0.40000  0.43770  Biso   1.000  H
  H124     1.0000 0.72960  0.60000  0.93770  Biso   1.000  H
  Br5      1.0000 0.27140  0.50000  0.23160  Biso   1.000  Br
  Br6      1.0000 0.72860  0.50000  0.73160  Biso   1.000  Br
  Br7      1.0000 0.25300  0.00000  0.47880  Biso   1.000  Br
  Br8      1.0000 0.74700  0.00000  0.97880  Biso   1.000  Br
  Br9      1.0000 0.41980  0.50000  0.23500  Biso   1.000  Br
  Br10     1.0000 0.58020  0.50000  0.73500  Biso   1.000  Br
  Br11     1.0000 0.25500  0.50000  0.15930  Biso   1.000  Br
  Br12     1.0000 0.74500  0.50000  0.65930  Biso   1.000  Br
  Br13     1.0000 0.21020  0.40450  0.22700  Biso   1.000  Br
  Br14     1.0000 0.78980  0.59550  0.72700  Biso   1.000  Br
  Br15     1.0000 0.78980  0.40450  0.72700  Biso   1.000  Br
  Br16     1.0000 0.21020  0.59550  0.22700  Biso   1.000  Br
  Br17     1.0000 0.10300  0.00000  0.45700  Biso   1.000  Br
  Br18     1.0000 0.89700  0.00000  0.95700  Biso   1.000  Br
  Br19     1.0000 0.30200  0.09760  0.48330  Biso   1.000  Br
  Br20     1.0000 0.69800  0.90240  0.98330  Biso   1.000  Br
  Br21     1.0000 0.69800  0.09760  0.98330  Biso   1.000  Br
  Br22     1.0000 0.30200  0.90240  0.48330  Biso   1.000  Br
  Br23     1.0000 0.30700  0.00000  0.41000  Biso   1.000  Br
  Br24     1.0000 0.69300  0.00000  0.91000  Biso   1.000  Br
