data_image0
_cell_length_a       11.9663
_cell_length_b       11.9663
_cell_length_c       16.2923
_cell_angle_alpha    90
_cell_angle_beta     90
_cell_angle_gamma    90

_symmetry_space_group_name_H-M    "P 1"
_symmetry_int_tables_number       1

loop_
  _symmetry_equiv_pos_as_xyz
  'x, y, z'

loop_
  _atom_site_label
  _atom_site_occupancy
  _atom_site_fract_x
  _atom_site_fract_y
  _atom_site_fract_z
  _atom_site_thermal_displace_type
  _atom_site_B_iso_or_equiv
  _atom_site_type_symbol
  Cu1      1.0000 0.04446  0.33749  0.23362  Biso   1.000  Cu
  Cu2      1.0000 0.95554  0.66251  0.73362  Biso   1.000  Cu
  Cu3      1.0000 0.66251  0.04446  0.98362  Biso   1.000  Cu
  Cu4      1.0000 0.33749  0.95554  0.48362  Biso   1.000  Cu
  Si1      1.0000 0.17129  0.84920  0.08637  Biso   1.000  Si
  Si2      1.0000 0.82871  0.15080  0.58637  Biso   1.000  Si
  Si3      1.0000 0.15080  0.17129  0.83637  Biso   1.000  Si
  Si4      1.0000 0.84920  0.82871  0.33637  Biso   1.000  Si
  Br1      1.0000 0.98922  0.39901  0.36961  Biso   1.000  Br
  Br2      1.0000 0.01078  0.60099  0.86961  Biso   1.000  Br
  Br3      1.0000 0.60099  0.98922  0.11961  Biso   1.000  Br
  Br4      1.0000 0.39901  0.01078  0.61961  Biso   1.000  Br
  Br5      1.0000 0.20393  0.26184  0.15753  Biso   1.000  Br
  Br6      1.0000 0.79607  0.73816  0.65753  Biso   1.000  Br
  Br7      1.0000 0.73816  0.20393  0.90753  Biso   1.000  Br
  Br8      1.0000 0.26184  0.79607  0.40753  Biso   1.000  Br
  S1       1.0000 0.81544  0.43431  0.14030  Biso   1.000  S
  S2       1.0000 0.18456  0.56569  0.64030  Biso   1.000  S
  S3       1.0000 0.56569  0.81544  0.89030  Biso   1.000  S
  S4       1.0000 0.43431  0.18456  0.39030  Biso   1.000  S
  O1       1.0000 0.90620  0.34650  0.14320  Biso   1.000  O
  O2       1.0000 0.09380  0.65350  0.64320  Biso   1.000  O
  O3       1.0000 0.65350  0.90620  0.89320  Biso   1.000  O
  O4       1.0000 0.34650  0.09380  0.39320  Biso   1.000  O
  N1       1.0000 0.08760  0.49480  0.19680  Biso   1.000  N
  N2       1.0000 0.91240  0.50520  0.69680  Biso   1.000  N
  N3       1.0000 0.50520  0.08760  0.94680  Biso   1.000  N
  N4       1.0000 0.49480  0.91240  0.44680  Biso   1.000  N
  N5       1.0000 0.81780  0.99320  0.01530  Biso   1.000  N
  N6       1.0000 0.18220  0.00680  0.51530  Biso   1.000  N
  N7       1.0000 0.00680  0.81780  0.76530  Biso   1.000  N
  N8       1.0000 0.99320  0.18220  0.26530  Biso   1.000  N
  C1       1.0000 0.09310  0.51330  0.11650  Biso   1.000  C
  C2       1.0000 0.90690  0.48670  0.61650  Biso   1.000  C
  C3       1.0000 0.48670  0.09310  0.86650  Biso   1.000  C
  C4       1.0000 0.51330  0.90690  0.36650  Biso   1.000  C
  H1       1.0000 0.07930  0.45230  0.08060  Biso   1.000  H
  H2       1.0000 0.92070  0.54770  0.58060  Biso   1.000  H
  H3       1.0000 0.54770  0.07930  0.83060  Biso   1.000  H
  H4       1.0000 0.45230  0.92070  0.33060  Biso   1.000  H
  C5       1.0000 0.11770  0.61580  0.08200  Biso   1.000  C
  C6       1.0000 0.88230  0.38420  0.58200  Biso   1.000  C
  C7       1.0000 0.38420  0.11770  0.83200  Biso   1.000  C
  C8       1.0000 0.61580  0.88230  0.33200  Biso   1.000  C
  H5       1.0000 0.11730  0.62420  0.02410  Biso   1.000  H
  H6       1.0000 0.88270  0.37580  0.52410  Biso   1.000  H
  H7       1.0000 0.37580  0.11730  0.77410  Biso   1.000  H
  H8       1.0000 0.62420  0.88270  0.27410  Biso   1.000  H
  C9       1.0000 0.14280  0.70660  0.13140  Biso   1.000  C
  C10      1.0000 0.85720  0.29340  0.63140  Biso   1.000  C
  C11      1.0000 0.29340  0.14280  0.88140  Biso   1.000  C
  C12      1.0000 0.70660  0.85720  0.38140  Biso   1.000  C
  C13      1.0000 0.13880  0.68570  0.21600  Biso   1.000  C
  C14      1.0000 0.86120  0.31430  0.71600  Biso   1.000  C
  C15      1.0000 0.31430  0.13880  0.96600  Biso   1.000  C
  C16      1.0000 0.68570  0.86120  0.46600  Biso   1.000  C
  H9       1.0000 0.15460  0.74470  0.25330  Biso   1.000  H
  H10      1.0000 0.84540  0.25530  0.75330  Biso   1.000  H
  H11      1.0000 0.25530  0.15460  0.00330  Biso   1.000  H
  H12      1.0000 0.74470  0.84540  0.50330  Biso   1.000  H
  C17      1.0000 0.11230  0.58150  0.24650  Biso   1.000  C
  C18      1.0000 0.88770  0.41850  0.74650  Biso   1.000  C
  C19      1.0000 0.41850  0.11230  0.99650  Biso   1.000  C
  C20      1.0000 0.58150  0.88770  0.49650  Biso   1.000  C
  H13      1.0000 0.11140  0.57050  0.30420  Biso   1.000  H
  H14      1.0000 0.88860  0.42950  0.80420  Biso   1.000  H
  H15      1.0000 0.42950  0.11140  0.05420  Biso   1.000  H
  H16      1.0000 0.57050  0.88860  0.55420  Biso   1.000  H
  C21      1.0000 0.24490  0.82940  0.98690  Biso   1.000  C
  C22      1.0000 0.75510  0.17060  0.48690  Biso   1.000  C
  C23      1.0000 0.17060  0.24490  0.73690  Biso   1.000  C
  C24      1.0000 0.82940  0.75510  0.23690  Biso   1.000  C
  H17      1.0000 0.26020  0.90250  0.96210  Biso   1.000  H
  H18      1.0000 0.73980  0.09750  0.46210  Biso   1.000  H
  H19      1.0000 0.09750  0.26020  0.71210  Biso   1.000  H
  H20      1.0000 0.90250  0.73980  0.21210  Biso   1.000  H
  H21      1.0000 0.19780  0.78530  0.94980  Biso   1.000  H
  H22      1.0000 0.80220  0.21470  0.44980  Biso   1.000  H
  H23      1.0000 0.21470  0.19780  0.69980  Biso   1.000  H
  H24      1.0000 0.78530  0.80220  0.19980  Biso   1.000  H
  H25      1.0000 0.31550  0.79000  0.99630  Biso   1.000  H
  H26      1.0000 0.68450  0.21000  0.49630  Biso   1.000  H
  H27      1.0000 0.21000  0.31550  0.74630  Biso   1.000  H
  H28      1.0000 0.79000  0.68450  0.24630  Biso   1.000  H
  C25      1.0000 0.25170  0.93710  0.15960  Biso   1.000  C
  C26      1.0000 0.74830  0.06290  0.65960  Biso   1.000  C
  C27      1.0000 0.06290  0.25170  0.90960  Biso   1.000  C
  C28      1.0000 0.93710  0.74830  0.40960  Biso   1.000  C
  H29      1.0000 0.26550  0.01060  0.13510  Biso   1.000  H
  H30      1.0000 0.73450  0.98940  0.63510  Biso   1.000  H
  H31      1.0000 0.98940  0.26550  0.88510  Biso   1.000  H
  H32      1.0000 0.01060  0.73450  0.38510  Biso   1.000  H
  H33      1.0000 0.32320  0.90080  0.17200  Biso   1.000  H
  H34      1.0000 0.67680  0.09920  0.67200  Biso   1.000  H
  H35      1.0000 0.09920  0.32320  0.92200  Biso   1.000  H
  H36      1.0000 0.90080  0.67680  0.42200  Biso   1.000  H
  H37      1.0000 0.20870  0.94620  0.21040  Biso   1.000  H
  H38      1.0000 0.79130  0.05380  0.71040  Biso   1.000  H
  H39      1.0000 0.05380  0.20870  0.96040  Biso   1.000  H
  H40      1.0000 0.94620  0.79130  0.46040  Biso   1.000  H
  C29      1.0000 0.02890  0.91020  0.06370  Biso   1.000  C
  C30      1.0000 0.97110  0.08980  0.56370  Biso   1.000  C
  C31      1.0000 0.08980  0.02890  0.81370  Biso   1.000  C
  C32      1.0000 0.91020  0.97110  0.31370  Biso   1.000  C
  C33      1.0000 0.94630  0.84250  0.02780  Biso   1.000  C
  C34      1.0000 0.05370  0.15750  0.52780  Biso   1.000  C
  C35      1.0000 0.15750  0.94630  0.77780  Biso   1.000  C
  C36      1.0000 0.84250  0.05370  0.27780  Biso   1.000  C
  H41      1.0000 0.96090  0.76540  0.01870  Biso   1.000  H
  H42      1.0000 0.03910  0.23460  0.51870  Biso   1.000  H
  H43      1.0000 0.23460  0.96090  0.76870  Biso   1.000  H
  H44      1.0000 0.76540  0.03910  0.26870  Biso   1.000  H
  C37      1.0000 0.84570  0.88610  0.00590  Biso   1.000  C
  C38      1.0000 0.15430  0.11390  0.50590  Biso   1.000  C
  C39      1.0000 0.11390  0.84570  0.75590  Biso   1.000  C
  C40      1.0000 0.88610  0.15430  0.25590  Biso   1.000  C
  H45      1.0000 0.79190  0.83720  0.98240  Biso   1.000  H
  H46      1.0000 0.20810  0.16280  0.48240  Biso   1.000  H
  H47      1.0000 0.16280  0.79190  0.73240  Biso   1.000  H
  H48      1.0000 0.83720  0.20810  0.23240  Biso   1.000  H
  C41      1.0000 0.89470  0.06010  0.04890  Biso   1.000  C
  C42      1.0000 0.10530  0.93990  0.54890  Biso   1.000  C
  C43      1.0000 0.93990  0.89470  0.79890  Biso   1.000  C
  C44      1.0000 0.06010  0.10530  0.29890  Biso   1.000  C
  H49      1.0000 0.87790  0.13720  0.05560  Biso   1.000  H
  H50      1.0000 0.12210  0.86280  0.55560  Biso   1.000  H
  H51      1.0000 0.86280  0.87790  0.80560  Biso   1.000  H
  H52      1.0000 0.13720  0.12210  0.30560  Biso   1.000  H
  C45      1.0000 0.99690  0.02150  0.07410  Biso   1.000  C
  C46      1.0000 0.00310  0.97850  0.57410  Biso   1.000  C
  C47      1.0000 0.97850  0.99690  0.82410  Biso   1.000  C
  C48      1.0000 0.02150  0.00310  0.32410  Biso   1.000  C
  H53      1.0000 0.04750  0.07200  0.09940  Biso   1.000  H
  H54      1.0000 0.95250  0.92800  0.59940  Biso   1.000  H
  H55      1.0000 0.92800  0.04750  0.84940  Biso   1.000  H
  H56      1.0000 0.07200  0.95250  0.34940  Biso   1.000  H
  C49      1.0000 0.68870  0.35620  0.14000  Biso   1.000  C
  C50      1.0000 0.31130  0.64380  0.64000  Biso   1.000  C
  C51      1.0000 0.64380  0.68870  0.89000  Biso   1.000  C
  C52      1.0000 0.35620  0.31130  0.39000  Biso   1.000  C
  H57      1.0000 0.67480  0.32640  0.19510  Biso   1.000  H
  H58      1.0000 0.32520  0.67360  0.69510  Biso   1.000  H
  H59      1.0000 0.67360  0.67480  0.94510  Biso   1.000  H
  H60      1.0000 0.32640  0.32520  0.44510  Biso   1.000  H
  H61      1.0000 0.69500  0.29440  0.10090  Biso   1.000  H
  H62      1.0000 0.30500  0.70560  0.60090  Biso   1.000  H
  H63      1.0000 0.70560  0.69500  0.85090  Biso   1.000  H
  H64      1.0000 0.29440  0.30500  0.35090  Biso   1.000  H
  H65      1.0000 0.62670  0.40500  0.12390  Biso   1.000  H
  H66      1.0000 0.37330  0.59500  0.62390  Biso   1.000  H
  H67      1.0000 0.59500  0.62670  0.87390  Biso   1.000  H
  H68      1.0000 0.40500  0.37330  0.37390  Biso   1.000  H
  C53      1.0000 0.80640  0.47640  0.03710  Biso   1.000  C
  C54      1.0000 0.19360  0.52360  0.53710  Biso   1.000  C
  C55      1.0000 0.52360  0.80640  0.78710  Biso   1.000  C
  C56      1.0000 0.47640  0.19360  0.28710  Biso   1.000  C
  H69      1.0000 0.87300  0.51980  0.02260  Biso   1.000  H
  H70      1.0000 0.12700  0.48020  0.52260  Biso   1.000  H
  H71      1.0000 0.48020  0.87300  0.77260  Biso   1.000  H
  H72      1.0000 0.51980  0.12700  0.27260  Biso   1.000  H
  H73      1.0000 0.73960  0.52270  0.02950  Biso   1.000  H
  H74      1.0000 0.26040  0.47730  0.52950  Biso   1.000  H
  H75      1.0000 0.47730  0.73960  0.77950  Biso   1.000  H
  H76      1.0000 0.52270  0.26040  0.27950  Biso   1.000  H
  H77      1.0000 0.80160  0.41030  0.00180  Biso   1.000  H
  H78      1.0000 0.19840  0.58970  0.50180  Biso   1.000  H
  H79      1.0000 0.58970  0.80160  0.75180  Biso   1.000  H
  H80      1.0000 0.41030  0.19840  0.25180  Biso   1.000  H
  S5       1.0000 0.44323  0.62121  0.11495  Biso   1.000  S
  S6       1.0000 0.55677  0.37879  0.61495  Biso   1.000  S
  S7       1.0000 0.37879  0.44323  0.86495  Biso   1.000  S
  S8       1.0000 0.62121  0.55677  0.36495  Biso   1.000  S
  O5       1.0000 0.54930  0.58590  0.07570  Biso   1.000  O
  O6       1.0000 0.45070  0.41410  0.57570  Biso   1.000  O
  O7       1.0000 0.41410  0.54930  0.82570  Biso   1.000  O
  O8       1.0000 0.58590  0.45070  0.32570  Biso   1.000  O
  C57      1.0000 0.48020  0.71270  0.19370  Biso   1.000  C
  C58      1.0000 0.51980  0.28730  0.69370  Biso   1.000  C
  C59      1.0000 0.28730  0.48020  0.94370  Biso   1.000  C
  C60      1.0000 0.71270  0.51980  0.44370  Biso   1.000  C
  H81      1.0000 0.50650  0.78330  0.17010  Biso   1.000  H
  H82      1.0000 0.49350  0.21670  0.67010  Biso   1.000  H
  H83      1.0000 0.21670  0.50650  0.92010  Biso   1.000  H
  H84      1.0000 0.78330  0.49350  0.42010  Biso   1.000  H
  H85      1.0000 0.54000  0.67930  0.22680  Biso   1.000  H
  H86      1.0000 0.46000  0.32070  0.72680  Biso   1.000  H
  H87      1.0000 0.32070  0.54000  0.97680  Biso   1.000  H
  H88      1.0000 0.67930  0.46000  0.47680  Biso   1.000  H
  H89      1.0000 0.41500  0.72700  0.22860  Biso   1.000  H
  H90      1.0000 0.58500  0.27300  0.72860  Biso   1.000  H
  H91      1.0000 0.27300  0.41500  0.97860  Biso   1.000  H
  H92      1.0000 0.72700  0.58500  0.47860  Biso   1.000  H
  C61      1.0000 0.39920  0.50510  0.17570  Biso   1.000  C
  C62      1.0000 0.60080  0.49490  0.67570  Biso   1.000  C
  C63      1.0000 0.49490  0.39920  0.92570  Biso   1.000  C
  C64      1.0000 0.50510  0.60080  0.42570  Biso   1.000  C
  H93      1.0000 0.37590  0.44390  0.13950  Biso   1.000  H
  H94      1.0000 0.62410  0.55610  0.63950  Biso   1.000  H
  H95      1.0000 0.55610  0.37590  0.88950  Biso   1.000  H
  H96      1.0000 0.44390  0.62410  0.38950  Biso   1.000  H
  H97      1.0000 0.33630  0.52750  0.21050  Biso   1.000  H
  H98      1.0000 0.66370  0.47250  0.71050  Biso   1.000  H
  H99      1.0000 0.47250  0.33630  0.96050  Biso   1.000  H
  H100     1.0000 0.52750  0.66370  0.46050  Biso   1.000  H
  H101     1.0000 0.46130  0.48000  0.21030  Biso   1.000  H
  H102     1.0000 0.53870  0.52000  0.71030  Biso   1.000  H
  H103     1.0000 0.52000  0.46130  0.96030  Biso   1.000  H
  H104     1.0000 0.48000  0.53870  0.46030  Biso   1.000  H
