data_image0
_cell_length_a       13.902
_cell_length_b       14.267
_cell_length_c       20.413
_cell_angle_alpha    69.9
_cell_angle_beta     77.6
_cell_angle_gamma    88.27

_symmetry_space_group_name_H-M    "P 1"
_symmetry_int_tables_number       1

loop_
  _symmetry_equiv_pos_as_xyz
  'x, y, z'

loop_
  _atom_site_label
  _atom_site_occupancy
  _atom_site_fract_x
  _atom_site_fract_y
  _atom_site_fract_z
  _atom_site_thermal_displace_type
  _atom_site_B_iso_or_equiv
  _atom_site_type_symbol
  Cu1      1.0000 0.09669  0.17227  0.81235  Biso   1.000  Cu
  Cu2      1.0000 0.90331  0.82773  0.18765  Biso   1.000  Cu
  Cu3      1.0000 0.07084  0.33965  0.84254  Biso   1.000  Cu
  Cu4      1.0000 0.92916  0.66035  0.15746  Biso   1.000  Cu
  O1       1.0000 0.88560  0.93650  0.78180  Biso   1.000  O
  O2       1.0000 0.11440  0.06350  0.21820  Biso   1.000  O
  O3       1.0000 0.78140  0.76430  0.88440  Biso   1.000  O
  O4       1.0000 0.21860  0.23570  0.11560  Biso   1.000  O
  H1       1.0000 0.80510  0.81870  0.85590  Biso   1.000  H
  H2       1.0000 0.19490  0.18130  0.14410  Biso   1.000  H
  O5       1.0000 0.84350  0.59760  0.83520  Biso   1.000  O
  O6       1.0000 0.15650  0.40240  0.16480  Biso   1.000  O
  O7       1.0000 0.89980  0.77740  0.72220  Biso   1.000  O
  O8       1.0000 0.10020  0.22260  0.27780  Biso   1.000  O
  H3       1.0000 0.89360  0.71800  0.74710  Biso   1.000  H
  H4       1.0000 0.10640  0.28200  0.25290  Biso   1.000  H
  O9       1.0000 0.19650  0.25880  0.73080  Biso   1.000  O
  O10      1.0000 0.80350  0.74120  0.26920  Biso   1.000  O
  O11      1.0000 0.15900  0.40170  0.74960  Biso   1.000  O
  O12      1.0000 0.84100  0.59830  0.25040  Biso   1.000  O
  O13      1.0000 0.19730  0.14540  0.86830  Biso   1.000  O
  O14      1.0000 0.80270  0.85460  0.13170  Biso   1.000  O
  O15      1.0000 0.18970  0.29460  0.88120  Biso   1.000  O
  O16      1.0000 0.81030  0.70540  0.11880  Biso   1.000  O
  O17      1.0000 0.99460  0.12130  0.90180  Biso   1.000  O
  O18      1.0000 0.00540  0.87870  0.09820  Biso   1.000  O
  O19      1.0000 0.98850  0.25660  0.93340  Biso   1.000  O
  O20      1.0000 0.01150  0.74340  0.06660  Biso   1.000  O
  O21      1.0000 0.99680  0.22010  0.75780  Biso   1.000  O
  O22      1.0000 0.00320  0.77990  0.24220  Biso   1.000  O
  O23      1.0000 0.95990  0.34890  0.79470  Biso   1.000  O
  O24      1.0000 0.04010  0.65110  0.20530  Biso   1.000  O
  N1       1.0000 0.12020  0.02580  0.79380  Biso   1.000  N
  N2       1.0000 0.87980  0.97420  0.20620  Biso   1.000  N
  N3       1.0000 0.05980  0.47520  0.87660  Biso   1.000  N
  N4       1.0000 0.94020  0.52480  0.12340  Biso   1.000  N
  C1       1.0000 0.87750  0.88700  0.61080  Biso   1.000  C
  C2       1.0000 0.12250  0.11300  0.38920  Biso   1.000  C
  C3       1.0000 0.90230  0.97230  0.63220  Biso   1.000  C
  C4       1.0000 0.09770  0.02770  0.36780  Biso   1.000  C
  H5       1.0000 0.92650  0.02960  0.58960  Biso   1.000  H
  H6       1.0000 0.07350  0.97040  0.41040  Biso   1.000  H
  H7       1.0000 0.95460  0.95370  0.65830  Biso   1.000  H
  H8       1.0000 0.04540  0.04630  0.34170  Biso   1.000  H
  C5       1.0000 0.81460  0.00090  0.67800  Biso   1.000  C
  C6       1.0000 0.18540  0.99910  0.32200  Biso   1.000  C
  C7       1.0000 0.73610  0.04310  0.64990  Biso   1.000  C
  C8       1.0000 0.26390  0.95690  0.35010  Biso   1.000  C
  H9       1.0000 0.74030  0.05850  0.60120  Biso   1.000  H
  H10      1.0000 0.25970  0.94150  0.39880  Biso   1.000  H
  C9       1.0000 0.64930  0.06440  0.69150  Biso   1.000  C
  C10      1.0000 0.35070  0.93560  0.30850  Biso   1.000  C
  C11      1.0000 0.64540  0.03950  0.76310  Biso   1.000  C
  C12      1.0000 0.35460  0.96050  0.23690  Biso   1.000  C
  H11      1.0000 0.58870  0.05300  0.79150  Biso   1.000  H
  H12      1.0000 0.41130  0.94700  0.20850  Biso   1.000  H
  C13      1.0000 0.72090  0.99540  0.79560  Biso   1.000  C
  C14      1.0000 0.27910  0.00460  0.20440  Biso   1.000  C
  C15      1.0000 0.70830  0.96080  0.87510  Biso   1.000  C
  C16      1.0000 0.29170  0.03920  0.12490  Biso   1.000  C
  H13      1.0000 0.67810  0.01250  0.89230  Biso   1.000  H
  H14      1.0000 0.32190  0.98750  0.10770  Biso   1.000  H
  H15      1.0000 0.77270  0.95040  0.88700  Biso   1.000  H
  H16      1.0000 0.22730  0.04960  0.11300  Biso   1.000  H
  C17      1.0000 0.64570  0.86570  0.91200  Biso   1.000  C
  C18      1.0000 0.35430  0.13430  0.08800  Biso   1.000  C
  C19      1.0000 0.54870  0.86520  0.94530  Biso   1.000  C
  C20      1.0000 0.45130  0.13480  0.05470  Biso   1.000  C
  H17      1.0000 0.52200  0.92630  0.94370  Biso   1.000  H
  H18      1.0000 0.47800  0.07370  0.05630  Biso   1.000  H
  C21      1.0000 0.48750  0.77930  0.98120  Biso   1.000  C
  C22      1.0000 0.51250  0.22070  0.01880  Biso   1.000  C
  C23      1.0000 0.53110  0.69030  0.98170  Biso   1.000  C
  C24      1.0000 0.46890  0.30970  0.01830  Biso   1.000  C
  H19      1.0000 0.49350  0.63090  0.00630  Biso   1.000  H
  H20      1.0000 0.50650  0.36910  0.99370  Biso   1.000  H
  C25      1.0000 0.62700  0.68530  0.94770  Biso   1.000  C
  C26      1.0000 0.37300  0.31470  0.05230  Biso   1.000  C
  C27      1.0000 0.66830  0.58720  0.94460  Biso   1.000  C
  C28      1.0000 0.33170  0.41280  0.05540  Biso   1.000  C
  H21      1.0000 0.62930  0.53220  0.98270  Biso   1.000  H
  H22      1.0000 0.37070  0.46780  0.01730  Biso   1.000  H
  H23      1.0000 0.73550  0.58390  0.95130  Biso   1.000  H
  H24      1.0000 0.26450  0.41610  0.04870  Biso   1.000  H
  C29      1.0000 0.66660  0.57840  0.87260  Biso   1.000  C
  C30      1.0000 0.33340  0.42160  0.12740  Biso   1.000  C
  C31      1.0000 0.57680  0.57100  0.85530  Biso   1.000  C
  C32      1.0000 0.42320  0.42900  0.14470  Biso   1.000  C
  H25      1.0000 0.51930  0.56550  0.88980  Biso   1.000  H
  H26      1.0000 0.48070  0.43450  0.11020  Biso   1.000  H
  C33      1.0000 0.56900  0.57130  0.78830  Biso   1.000  C
  C34      1.0000 0.43100  0.42870  0.21170  Biso   1.000  C
  C35      1.0000 0.65600  0.57740  0.73880  Biso   1.000  C
  C36      1.0000 0.34400  0.42260  0.26120  Biso   1.000  C
  H27      1.0000 0.65260  0.57710  0.69390  Biso   1.000  H
  H28      1.0000 0.34740  0.42290  0.30610  Biso   1.000  H
  C37      1.0000 0.74860  0.58400  0.75330  Biso   1.000  C
  C38      1.0000 0.25140  0.41600  0.24670  Biso   1.000  C
  C39      1.0000 0.83940  0.60350  0.69320  Biso   1.000  C
  C40      1.0000 0.16060  0.39650  0.30680  Biso   1.000  C
  H29      1.0000 0.89770  0.59130  0.71330  Biso   1.000  H
  H30      1.0000 0.10230  0.40870  0.28670  Biso   1.000  H
  H31      1.0000 0.83730  0.55730  0.66800  Biso   1.000  H
  H32      1.0000 0.16270  0.44270  0.33200  Biso   1.000  H
  C41      1.0000 0.84650  0.70850  0.64140  Biso   1.000  C
  C42      1.0000 0.15350  0.29150  0.35860  Biso   1.000  C
  C43      1.0000 0.82190  0.72910  0.57610  Biso   1.000  C
  C44      1.0000 0.17810  0.27090  0.42390  Biso   1.000  C
  H33      1.0000 0.80250  0.67590  0.56470  Biso   1.000  H
  H34      1.0000 0.19750  0.32410  0.43530  Biso   1.000  H
  C45      1.0000 0.82450  0.82450  0.52660  Biso   1.000  C
  C46      1.0000 0.17550  0.17550  0.47340  Biso   1.000  C
  C47      1.0000 0.85510  0.90160  0.54560  Biso   1.000  C
  C48      1.0000 0.14490  0.09840  0.45440  Biso   1.000  C
  H35      1.0000 0.86070  0.96620  0.51260  Biso   1.000  H
  H36      1.0000 0.13930  0.03380  0.48740  Biso   1.000  H
  C49      1.0000 0.80710  0.97930  0.75030  Biso   1.000  C
  C50      1.0000 0.19290  0.02070  0.24970  Biso   1.000  C
  C51      1.0000 0.68590  0.77390  0.91400  Biso   1.000  C
  C52      1.0000 0.31410  0.22610  0.08600  Biso   1.000  C
  C53      1.0000 0.75140  0.58330  0.82170  Biso   1.000  C
  C54      1.0000 0.24860  0.41670  0.17830  Biso   1.000  C
  C55      1.0000 0.87370  0.78980  0.65870  Biso   1.000  C
  C56      1.0000 0.12630  0.21020  0.34130  Biso   1.000  C
  C57      1.0000 0.55960  0.10400  0.66040  Biso   1.000  C
  C58      1.0000 0.44040  0.89600  0.33960  Biso   1.000  C
  C59      1.0000 0.59400  0.18900  0.59100  Biso   1.000  C
  C60      1.0000 0.40600  0.81100  0.40900  Biso   1.000  C
  H37      1.0000 0.53860  0.21250  0.56910  Biso   1.000  H
  H38      1.0000 0.46140  0.78750  0.43090  Biso   1.000  H
  H39      1.0000 0.64230  0.16680  0.55880  Biso   1.000  H
  H40      1.0000 0.35770  0.83320  0.44120  Biso   1.000  H
  H41      1.0000 0.62220  0.24290  0.59960  Biso   1.000  H
  H42      1.0000 0.37780  0.75710  0.40040  Biso   1.000  H
  C61      1.0000 0.48000  0.14300  0.70700  Biso   1.000  C
  C62      1.0000 0.52000  0.85700  0.29300  Biso   1.000  C
  H43      1.0000 0.45050  0.08890  0.74920  Biso   1.000  H
  H44      1.0000 0.54950  0.91110  0.25080  Biso   1.000  H
  H45      1.0000 0.43070  0.17250  0.68060  Biso   1.000  H
  H46      1.0000 0.56930  0.82750  0.31940  Biso   1.000  H
  H47      1.0000 0.50910  0.19240  0.71980  Biso   1.000  H
  H48      1.0000 0.49090  0.80760  0.28020  Biso   1.000  H
  C63      1.0000 0.51100  0.01700  0.65000  Biso   1.000  C
  C64      1.0000 0.48900  0.98300  0.35000  Biso   1.000  C
  H49      1.0000 0.49480  0.96260  0.69460  Biso   1.000  H
  H50      1.0000 0.50520  0.03740  0.30540  Biso   1.000  H
  H51      1.0000 0.55540  0.99570  0.61540  Biso   1.000  H
  H52      1.0000 0.44460  0.00430  0.38460  Biso   1.000  H
  H53      1.0000 0.45170  0.03860  0.63310  Biso   1.000  H
  H54      1.0000 0.54830  0.96140  0.36690  Biso   1.000  H
  C65      1.0000 0.56510  0.11900  0.65950  Biso   1.000  C
  C66      1.0000 0.43490  0.88100  0.34050  Biso   1.000  C
  C67      1.0000 0.46700  0.06900  0.70700  Biso   1.000  C
  C68      1.0000 0.53300  0.93100  0.29300  Biso   1.000  C
  H55      1.0000 0.46970  0.05250  0.75590  Biso   1.000  H
  H56      1.0000 0.53030  0.94750  0.24410  Biso   1.000  H
  H57      1.0000 0.45430  0.00940  0.69760  Biso   1.000  H
  H58      1.0000 0.54570  0.99060  0.30240  Biso   1.000  H
  H59      1.0000 0.41540  0.11430  0.69590  Biso   1.000  H
  H60      1.0000 0.58460  0.88570  0.30410  Biso   1.000  H
  C69      1.0000 0.57100  0.11600  0.58500  Biso   1.000  C
  C70      1.0000 0.42900  0.88400  0.41500  Biso   1.000  C
  H61      1.0000 0.59630  0.05390  0.58230  Biso   1.000  H
  H62      1.0000 0.40370  0.94610  0.41770  Biso   1.000  H
  H63      1.0000 0.61500  0.17030  0.55070  Biso   1.000  H
  H64      1.0000 0.38500  0.82970  0.44930  Biso   1.000  H
  H65      1.0000 0.50700  0.12370  0.57420  Biso   1.000  H
  H66      1.0000 0.49300  0.87630  0.42580  Biso   1.000  H
  C71      1.0000 0.57000  0.22400  0.66000  Biso   1.000  C
  C72      1.0000 0.43000  0.77600  0.34000  Biso   1.000  C
  H67      1.0000 0.55870  0.22310  0.70820  Biso   1.000  H
  H68      1.0000 0.44130  0.77690  0.29180  Biso   1.000  H
  H69      1.0000 0.52140  0.26250  0.63670  Biso   1.000  H
  H70      1.0000 0.47860  0.73750  0.36330  Biso   1.000  H
  H71      1.0000 0.63470  0.25480  0.63460  Biso   1.000  H
  H72      1.0000 0.36530  0.74520  0.36540  Biso   1.000  H
  C73      1.0000 0.37980  0.77650  0.01850  Biso   1.000  C
  C74      1.0000 0.62020  0.22350  0.98150  Biso   1.000  C
  C75      1.0000 0.34400  0.88120  0.01200  Biso   1.000  C
  C76      1.0000 0.65600  0.11880  0.98800  Biso   1.000  C
  H73      1.0000 0.27630  0.87640  0.03600  Biso   1.000  H
  H74      1.0000 0.72370  0.12360  0.96400  Biso   1.000  H
  H75      1.0000 0.35070  0.92060  0.96220  Biso   1.000  H
  H76      1.0000 0.64930  0.07940  0.03780  Biso   1.000  H
  H77      1.0000 0.38330  0.91220  0.03280  Biso   1.000  H
  H78      1.0000 0.61670  0.08780  0.96720  Biso   1.000  H
  C77      1.0000 0.36400  0.71400  0.09760  Biso   1.000  C
  C78      1.0000 0.63600  0.28600  0.90240  Biso   1.000  C
  H79      1.0000 0.29570  0.71380  0.12000  Biso   1.000  H
  H80      1.0000 0.70430  0.28620  0.88000  Biso   1.000  H
  H81      1.0000 0.40370  0.74290  0.11970  Biso   1.000  H
  H82      1.0000 0.59630  0.25710  0.88030  Biso   1.000  H
  H83      1.0000 0.38250  0.64720  0.10290  Biso   1.000  H
  H84      1.0000 0.61750  0.35280  0.89710  Biso   1.000  H
  C79      1.0000 0.31600  0.72700  0.98590  Biso   1.000  C
  C80      1.0000 0.68400  0.27300  0.01410  Biso   1.000  C
  H85      1.0000 0.24770  0.72570  0.00960  Biso   1.000  H
  H86      1.0000 0.75230  0.27430  0.99040  Biso   1.000  H
  H87      1.0000 0.33540  0.66060  0.99180  Biso   1.000  H
  H88      1.0000 0.66460  0.33940  0.00820  Biso   1.000  H
  H89      1.0000 0.32330  0.76530  0.93600  Biso   1.000  H
  H90      1.0000 0.67670  0.23470  0.06400  Biso   1.000  H
  C81      1.0000 0.38230  0.78700  0.01910  Biso   1.000  C
  C82      1.0000 0.61770  0.21300  0.98090  Biso   1.000  C
  C83      1.0000 0.38600  0.77700  0.09530  Biso   1.000  C
  C84      1.0000 0.61400  0.22300  0.90470  Biso   1.000  C
  H91      1.0000 0.32080  0.78010  0.12160  Biso   1.000  H
  H92      1.0000 0.67920  0.21990  0.87840  Biso   1.000  H
  H93      1.0000 0.42770  0.82990  0.09440  Biso   1.000  H
  H94      1.0000 0.57230  0.17010  0.90560  Biso   1.000  H
  H95      1.0000 0.41230  0.71360  0.11770  Biso   1.000  H
  H96      1.0000 0.58770  0.28640  0.88230  Biso   1.000  H
  C85      1.0000 0.34100  0.88900  0.98500  Biso   1.000  C
  C86      1.0000 0.65900  0.11100  0.01500  Biso   1.000  C
  H97      1.0000 0.27530  0.89120  0.01140  Biso   1.000  H
  H98      1.0000 0.72470  0.10880  0.98860  Biso   1.000  H
  H99      1.0000 0.34060  0.89930  0.93660  Biso   1.000  H
  H100     1.0000 0.65940  0.10070  0.06340  Biso   1.000  H
  H101     1.0000 0.38210  0.94090  0.98730  Biso   1.000  H
  H102     1.0000 0.61790  0.05910  0.01270  Biso   1.000  H
  C87      1.0000 0.31500  0.70300  0.02300  Biso   1.000  C
  C88      1.0000 0.68500  0.29700  0.97700  Biso   1.000  C
  H103     1.0000 0.24950  0.70940  0.04810  Biso   1.000  H
  H104     1.0000 0.75050  0.29060  0.95190  Biso   1.000  H
  H105     1.0000 0.33910  0.64020  0.04700  Biso   1.000  H
  H106     1.0000 0.66090  0.35980  0.95300  Biso   1.000  H
  H107     1.0000 0.31240  0.70740  0.97510  Biso   1.000  H
  H108     1.0000 0.68760  0.29260  0.02490  Biso   1.000  H
  C89      1.0000 0.46840  0.56670  0.77050  Biso   1.000  C
  C90      1.0000 0.53160  0.43330  0.22950  Biso   1.000  C
  C91      1.0000 0.40090  0.64310  0.79250  Biso   1.000  C
  C92      1.0000 0.59910  0.35690  0.20750  Biso   1.000  C
  H109     1.0000 0.33530  0.63230  0.78770  Biso   1.000  H
  H110     1.0000 0.66470  0.36770  0.21230  Biso   1.000  H
  H111     1.0000 0.42530  0.70940  0.76220  Biso   1.000  H
  H112     1.0000 0.57470  0.29060  0.23780  Biso   1.000  H
  H113     1.0000 0.39980  0.63510  0.84130  Biso   1.000  H
  H114     1.0000 0.60020  0.36490  0.15870  Biso   1.000  H
  C93      1.0000 0.41620  0.46500  0.81560  Biso   1.000  C
  C94      1.0000 0.58380  0.53500  0.18440  Biso   1.000  C
  H115     1.0000 0.35280  0.46220  0.80460  Biso   1.000  H
  H116     1.0000 0.64720  0.53780  0.19540  Biso   1.000  H
  H117     1.0000 0.40780  0.45570  0.86540  Biso   1.000  H
  H118     1.0000 0.59220  0.54430  0.13460  Biso   1.000  H
  H119     1.0000 0.45520  0.41310  0.80520  Biso   1.000  H
  H120     1.0000 0.54480  0.58690  0.19480  Biso   1.000  H
  C95      1.0000 0.47480  0.58300  0.69190  Biso   1.000  C
  C96      1.0000 0.52520  0.41700  0.30810  Biso   1.000  C
  H121     1.0000 0.41120  0.56940  0.68520  Biso   1.000  H
  H122     1.0000 0.58880  0.43060  0.31480  Biso   1.000  H
  H123     1.0000 0.52140  0.53940  0.67720  Biso   1.000  H
  H124     1.0000 0.47860  0.46060  0.32280  Biso   1.000  H
  H125     1.0000 0.49590  0.65130  0.66380  Biso   1.000  H
  H126     1.0000 0.50410  0.34870  0.33620  Biso   1.000  H
  C97      1.0000 0.46850  0.56000  0.77300  Biso   1.000  C
  C98      1.0000 0.53150  0.44000  0.22700  Biso   1.000  C
  C99      1.0000 0.45900  0.65300  0.71000  Biso   1.000  C
  C100     1.0000 0.54100  0.34700  0.29000  Biso   1.000  C
  H127     1.0000 0.39630  0.64940  0.69790  Biso   1.000  H
  H128     1.0000 0.60370  0.35060  0.30210  Biso   1.000  H
  H129     1.0000 0.51080  0.65570  0.66920  Biso   1.000  H
  H130     1.0000 0.48920  0.34430  0.33080  Biso   1.000  H
  H131     1.0000 0.46430  0.71130  0.72180  Biso   1.000  H
  H132     1.0000 0.53570  0.28870  0.27820  Biso   1.000  H
  C101     1.0000 0.38400  0.55100  0.83600  Biso   1.000  C
  C102     1.0000 0.61600  0.44900  0.16400  Biso   1.000  C
  H133     1.0000 0.32230  0.54380  0.82400  Biso   1.000  H
  H134     1.0000 0.67770  0.45620  0.17600  Biso   1.000  H
  H135     1.0000 0.38420  0.60970  0.84920  Biso   1.000  H
  H136     1.0000 0.61580  0.39030  0.15080  Biso   1.000  H
  H137     1.0000 0.39160  0.49330  0.87630  Biso   1.000  H
  H138     1.0000 0.60840  0.50670  0.12370  Biso   1.000  H
  C103     1.0000 0.46900  0.46600  0.75400  Biso   1.000  C
  C104     1.0000 0.53100  0.53400  0.24600  Biso   1.000  C
  H139     1.0000 0.40620  0.45540  0.74460  Biso   1.000  H
  H140     1.0000 0.59380  0.54460  0.25540  Biso   1.000  H
  H141     1.0000 0.48010  0.40960  0.79410  Biso   1.000  H
  H142     1.0000 0.51990  0.59040  0.20590  Biso   1.000  H
  H143     1.0000 0.52010  0.47200  0.71320  Biso   1.000  H
  H144     1.0000 0.47990  0.52800  0.28680  Biso   1.000  H
  C105     1.0000 0.79990  0.83850  0.45440  Biso   1.000  C
  C106     1.0000 0.20010  0.16150  0.54560  Biso   1.000  C
  C107     1.0000 0.70260  0.78480  0.46410  Biso   1.000  C
  C108     1.0000 0.29740  0.21520  0.53590  Biso   1.000  C
  H145     1.0000 0.68930  0.79380  0.41810  Biso   1.000  H
  H146     1.0000 0.31070  0.20620  0.58190  Biso   1.000  H
  H147     1.0000 0.65060  0.81170  0.49070  Biso   1.000  H
  H148     1.0000 0.34940  0.18830  0.50930  Biso   1.000  H
  H149     1.0000 0.70620  0.71480  0.48960  Biso   1.000  H
  H150     1.0000 0.29380  0.28520  0.51040  Biso   1.000  H
  C109     1.0000 0.88160  0.79830  0.40980  Biso   1.000  C
  C110     1.0000 0.11840  0.20170  0.59020  Biso   1.000  C
  H151     1.0000 0.86580  0.80700  0.36460  Biso   1.000  H
  H152     1.0000 0.13420  0.19300  0.63540  Biso   1.000  H
  H153     1.0000 0.88770  0.72850  0.43470  Biso   1.000  H
  H154     1.0000 0.11230  0.27150  0.56530  Biso   1.000  H
  H155     1.0000 0.94280  0.83400  0.40200  Biso   1.000  H
  H156     1.0000 0.05720  0.16600  0.59800  Biso   1.000  H
  C111     1.0000 0.79240  0.94930  0.41160  Biso   1.000  C
  C112     1.0000 0.20760  0.05070  0.58840  Biso   1.000  C
  H157     1.0000 0.77710  0.95570  0.36660  Biso   1.000  H
  H158     1.0000 0.22290  0.04430  0.63340  Biso   1.000  H
  H159     1.0000 0.85410  0.98450  0.40330  Biso   1.000  H
  H160     1.0000 0.14590  0.01550  0.59670  Biso   1.000  H
  H161     1.0000 0.74120  0.97710  0.43810  Biso   1.000  H
  H162     1.0000 0.25880  0.02290  0.56190  Biso   1.000  H
  C113     1.0000 0.77700  0.85500  0.46200  Biso   1.000  C
  C114     1.0000 0.22300  0.14500  0.53800  Biso   1.000  C
  C115     1.0000 0.74600  0.75800  0.45500  Biso   1.000  C
  C116     1.0000 0.25400  0.24200  0.54500  Biso   1.000  C
  H163     1.0000 0.78580  0.70540  0.47720  Biso   1.000  H
  H164     1.0000 0.21420  0.29460  0.52280  Biso   1.000  H
  H165     1.0000 0.75440  0.76630  0.40560  Biso   1.000  H
  H166     1.0000 0.24560  0.23370  0.59440  Biso   1.000  H
  H167     1.0000 0.67790  0.74130  0.47860  Biso   1.000  H
  H168     1.0000 0.32210  0.25870  0.52140  Biso   1.000  H
  C117     1.0000 0.85100  0.91100  0.39300  Biso   1.000  C
  C118     1.0000 0.14900  0.08900  0.60700  Biso   1.000  C
  H169     1.0000 0.90220  0.86720  0.38400  Biso   1.000  H
  H170     1.0000 0.09780  0.13280  0.61600  Biso   1.000  H
  H171     1.0000 0.88030  0.96760  0.39860  Biso   1.000  H
  H172     1.0000 0.11970  0.03240  0.60140  Biso   1.000  H
  H173     1.0000 0.81840  0.93340  0.35430  Biso   1.000  H
  H174     1.0000 0.18160  0.06660  0.64570  Biso   1.000  H
  C119     1.0000 0.68800  0.92000  0.46100  Biso   1.000  C
  C120     1.0000 0.31200  0.08000  0.53900  Biso   1.000  C
  H175     1.0000 0.70810  0.98620  0.45570  Biso   1.000  H
  H176     1.0000 0.29190  0.01380  0.54430  Biso   1.000  H
  H177     1.0000 0.64040  0.89180  0.50560  Biso   1.000  H
  H178     1.0000 0.35960  0.10820  0.49440  Biso   1.000  H
  H179     1.0000 0.65870  0.92150  0.42240  Biso   1.000  H
  H180     1.0000 0.34130  0.07850  0.57760  Biso   1.000  H
  C121     1.0000 0.05250  0.96740  0.78600  Biso   1.000  C
  C122     1.0000 0.94750  0.03260  0.21400  Biso   1.000  C
  C123     1.0000 0.07580  0.87570  0.77980  Biso   1.000  C
  C124     1.0000 0.92420  0.12430  0.22020  Biso   1.000  C
  H181     1.0000 0.02820  0.83650  0.77400  Biso   1.000  H
  H182     1.0000 0.97180  0.16350  0.22600  Biso   1.000  H
  C125     1.0000 0.16800  0.84240  0.78230  Biso   1.000  C
  C126     1.0000 0.83200  0.15760  0.21770  Biso   1.000  C
  H183     1.0000 0.18370  0.77980  0.77960  Biso   1.000  H
  H184     1.0000 0.81630  0.22020  0.22040  Biso   1.000  H
  C127     1.0000 0.23820  0.90370  0.78880  Biso   1.000  C
  C128     1.0000 0.76180  0.09630  0.21120  Biso   1.000  C
  H185     1.0000 0.30270  0.88460  0.78880  Biso   1.000  H
  H186     1.0000 0.69730  0.11540  0.21120  Biso   1.000  H
  C129     1.0000 0.20970  0.99220  0.79520  Biso   1.000  C
  C130     1.0000 0.79030  0.00780  0.20480  Biso   1.000  C
  H187     1.0000 0.25640  0.03230  0.80100  Biso   1.000  H
  H188     1.0000 0.74360  0.96770  0.19900  Biso   1.000  H
  C131     1.0000 0.95420  0.00970  0.78250  Biso   1.000  C
  C132     1.0000 0.04580  0.99030  0.21750  Biso   1.000  C
  H189     1.0000 0.93020  0.03020  0.82350  Biso   1.000  H
  H190     1.0000 0.06980  0.96980  0.17650  Biso   1.000  H
  H191     1.0000 0.95980  0.06810  0.73970  Biso   1.000  H
  H192     1.0000 0.04020  0.93190  0.26030  Biso   1.000  H
  C133     1.0000 0.98370  0.53230  0.88270  Biso   1.000  C
  C134     1.0000 0.01630  0.46770  0.11730  Biso   1.000  C
  C135     1.0000 0.98350  0.60890  0.91010  Biso   1.000  C
  C136     1.0000 0.01650  0.39110  0.08990  Biso   1.000  C
  H193     1.0000 0.92890  0.64770  0.91320  Biso   1.000  H
  H194     1.0000 0.07110  0.35230  0.08680  Biso   1.000  H
  C137     1.0000 0.06520  0.62640  0.93230  Biso   1.000  C
  C138     1.0000 0.93480  0.37360  0.06770  Biso   1.000  C
  H195     1.0000 0.06710  0.67700  0.95110  Biso   1.000  H
  H196     1.0000 0.93290  0.32300  0.04890  Biso   1.000  H
  C139     1.0000 0.14310  0.56850  0.92630  Biso   1.000  C
  C140     1.0000 0.85690  0.43150  0.07370  Biso   1.000  C
  H197     1.0000 0.19970  0.57910  0.94070  Biso   1.000  H
  H198     1.0000 0.80030  0.42090  0.05930  Biso   1.000  H
  C141     1.0000 0.13800  0.49370  0.89880  Biso   1.000  C
  C142     1.0000 0.86200  0.50630  0.10120  Biso   1.000  C
  H199     1.0000 0.19200  0.45410  0.89550  Biso   1.000  H
  H200     1.0000 0.80800  0.54590  0.10450  Biso   1.000  H
  C143     1.0000 0.89230  0.50730  0.86150  Biso   1.000  C
  C144     1.0000 0.10770  0.49270  0.13850  Biso   1.000  C
  H201     1.0000 0.91060  0.47740  0.82470  Biso   1.000  H
  H202     1.0000 0.08940  0.52260  0.17530  Biso   1.000  H
  H203     1.0000 0.84880  0.46000  0.90250  Biso   1.000  H
  H204     1.0000 0.15120  0.54000  0.09750  Biso   1.000  H
  C145     1.0000 0.20630  0.35030  0.71430  Biso   1.000  C
  C146     1.0000 0.79370  0.64970  0.28570  Biso   1.000  C
  C147     1.0000 0.27970  0.40560  0.64780  Biso   1.000  C
  C148     1.0000 0.72030  0.59440  0.35220  Biso   1.000  C
  H205     1.0000 0.25270  0.41280  0.60690  Biso   1.000  H
  H206     1.0000 0.74730  0.58720  0.39310  Biso   1.000  H
  H207     1.0000 0.33880  0.36910  0.64540  Biso   1.000  H
  H208     1.0000 0.66120  0.63090  0.35460  Biso   1.000  H
  H209     1.0000 0.29490  0.47050  0.64840  Biso   1.000  H
  H210     1.0000 0.70510  0.52950  0.35160  Biso   1.000  H
  C149     1.0000 0.22790  0.21220  0.88720  Biso   1.000  C
  C150     1.0000 0.77210  0.78780  0.11280  Biso   1.000  C
  C151     1.0000 0.31930  0.19200  0.91570  Biso   1.000  C
  C152     1.0000 0.68070  0.80800  0.08430  Biso   1.000  C
  H211     1.0000 0.32120  0.23050  0.94590  Biso   1.000  H
  H212     1.0000 0.67880  0.76950  0.05410  Biso   1.000  H
  H213     1.0000 0.37590  0.21040  0.87670  Biso   1.000  H
  H214     1.0000 0.62410  0.78960  0.12330  Biso   1.000  H
  H215     1.0000 0.31960  0.12220  0.94290  Biso   1.000  H
  H216     1.0000 0.68040  0.87780  0.05710  Biso   1.000  H
  C153     1.0000 0.97030  0.16560  0.94590  Biso   1.000  C
  C154     1.0000 0.02970  0.83440  0.05410  Biso   1.000  C
  C155     1.0000 0.91900  0.10460  0.02080  Biso   1.000  C
  C156     1.0000 0.08100  0.89540  0.97920  Biso   1.000  C
  H217     1.0000 0.87650  0.14610  0.04150  Biso   1.000  H
  H218     1.0000 0.12350  0.85390  0.95850  Biso   1.000  H
  H219     1.0000 0.96720  0.07820  0.04890  Biso   1.000  H
  H220     1.0000 0.03280  0.92180  0.95110  Biso   1.000  H
  H221     1.0000 0.88060  0.05050  0.01970  Biso   1.000  H
  H222     1.0000 0.11940  0.94950  0.98030  Biso   1.000  H
  C157     1.0000 0.94560  0.29310  0.76220  Biso   1.000  C
  C158     1.0000 0.05440  0.70690  0.23780  Biso   1.000  C
  C159     1.0000 0.86170  0.31380  0.72360  Biso   1.000  C
  C160     1.0000 0.13830  0.68620  0.27640  Biso   1.000  C
  H223     1.0000 0.88570  0.31740  0.67500  Biso   1.000  H
  H224     1.0000 0.11430  0.68260  0.32500  Biso   1.000  H
  H225     1.0000 0.83430  0.37620  0.72430  Biso   1.000  H
  H226     1.0000 0.16570  0.62380  0.27570  Biso   1.000  H
  H227     1.0000 0.81160  0.26100  0.74710  Biso   1.000  H
  H228     1.0000 0.18840  0.73900  0.25290  Biso   1.000  H
  O25      1.0000 0.13600  0.76800  0.62420  Biso   1.000  O
  O26      1.0000 0.86400  0.23200  0.37580  Biso   1.000  O
  C161     1.0000 0.12600  0.77100  0.55530  Biso   1.000  C
  C162     1.0000 0.87400  0.22900  0.44470  Biso   1.000  C
  H229     1.0000 0.18320  0.80450  0.51910  Biso   1.000  H
  H230     1.0000 0.81680  0.19550  0.48090  Biso   1.000  H
  H231     1.0000 0.06780  0.80650  0.54290  Biso   1.000  H
  H232     1.0000 0.93220  0.19350  0.45710  Biso   1.000  H
  C163     1.0000 0.11600  0.66500  0.55990  Biso   1.000  C
  C164     1.0000 0.88400  0.33500  0.44010  Biso   1.000  C
  H233     1.0000 0.17730  0.64340  0.53830  Biso   1.000  H
  H234     1.0000 0.82270  0.35660  0.46170  Biso   1.000  H
  H235     1.0000 0.06470  0.65650  0.53620  Biso   1.000  H
  H236     1.0000 0.93530  0.34350  0.46380  Biso   1.000  H
  C165     1.0000 0.08800  0.60770  0.63880  Biso   1.000  C
  C166     1.0000 0.91200  0.39230  0.36120  Biso   1.000  C
  H237     1.0000 0.01660  0.60250  0.65580  Biso   1.000  H
  H238     1.0000 0.98340  0.39750  0.34420  Biso   1.000  H
  H239     1.0000 0.11240  0.54100  0.64970  Biso   1.000  H
  H240     1.0000 0.88760  0.45900  0.35030  Biso   1.000  H
  C167     1.0000 0.13500  0.66700  0.67190  Biso   1.000  C
  C168     1.0000 0.86500  0.33300  0.32810  Biso   1.000  C
  H241     1.0000 0.09700  0.65970  0.71930  Biso   1.000  H
  H242     1.0000 0.90300  0.34030  0.28070  Biso   1.000  H
  H243     1.0000 0.20150  0.64690  0.67510  Biso   1.000  H
  H244     1.0000 0.79850  0.35310  0.32490  Biso   1.000  H
  O27      1.0000 0.20400  0.62700  0.69300  Biso   1.000  O
  O28      1.0000 0.79600  0.37300  0.30700  Biso   1.000  O
  C169     1.0000 0.24800  0.72400  0.64800  Biso   1.000  C
  C170     1.0000 0.75200  0.27600  0.35200  Biso   1.000  C
  H245     1.0000 0.31910  0.72430  0.64000  Biso   1.000  H
  H246     1.0000 0.68090  0.27570  0.36000  Biso   1.000  H
  H247     1.0000 0.22400  0.77470  0.66850  Biso   1.000  H
  H248     1.0000 0.77600  0.22530  0.33150  Biso   1.000  H
  C171     1.0000 0.21300  0.73800  0.58070  Biso   1.000  C
  C172     1.0000 0.78700  0.26200  0.41930  Biso   1.000  C
  H249     1.0000 0.26690  0.75830  0.53900  Biso   1.000  H
  H250     1.0000 0.73310  0.24170  0.46100  Biso   1.000  H
  H251     1.0000 0.16230  0.78690  0.57400  Biso   1.000  H
  H252     1.0000 0.83770  0.21310  0.42600  Biso   1.000  H
  C173     1.0000 0.17200  0.63400  0.59700  Biso   1.000  C
  C174     1.0000 0.82800  0.36600  0.40300  Biso   1.000  C
  H253     1.0000 0.12860  0.63320  0.56530  Biso   1.000  H
  H254     1.0000 0.87140  0.36680  0.43470  Biso   1.000  H
  H255     1.0000 0.22430  0.58830  0.59240  Biso   1.000  H
  H256     1.0000 0.77570  0.41170  0.40760  Biso   1.000  H
  C175     1.0000 0.11600  0.60900  0.67300  Biso   1.000  C
  C176     1.0000 0.88400  0.39100  0.32700  Biso   1.000  C
  H257     1.0000 0.06460  0.65440  0.67940  Biso   1.000  H
  H258     1.0000 0.93540  0.34560  0.32060  Biso   1.000  H
  H259     1.0000 0.09050  0.53990  0.69530  Biso   1.000  H
  H260     1.0000 0.90950  0.46010  0.30470  Biso   1.000  H
