data_image0
_cell_length_a       22.626
_cell_length_b       14.012
_cell_length_c       15.106
_cell_angle_alpha    90
_cell_angle_beta     107.61
_cell_angle_gamma    90

_symmetry_space_group_name_H-M    "P 1"
_symmetry_int_tables_number       1

loop_
  _symmetry_equiv_pos_as_xyz
  'x, y, z'

loop_
  _atom_site_label
  _atom_site_occupancy
  _atom_site_fract_x
  _atom_site_fract_y
  _atom_site_fract_z
  _atom_site_thermal_displace_type
  _atom_site_B_iso_or_equiv
  _atom_site_type_symbol
  Cu1      1.0000 0.50000  0.86074  0.50000  Biso   1.000  Cu
  Cu2      1.0000 0.50000  0.13926  0.00000  Biso   1.000  Cu
  Cu3      1.0000 0.00000  0.36074  0.50000  Biso   1.000  Cu
  Cu4      1.0000 0.00000  0.63926  0.00000  Biso   1.000  Cu
  Cu5      1.0000 0.49205  0.67482  0.48106  Biso   1.000  Cu
  Cu6      1.0000 0.49205  0.32518  0.98106  Biso   1.000  Cu
  Cu7      1.0000 0.99205  0.17482  0.48106  Biso   1.000  Cu
  Cu8      1.0000 0.99205  0.82518  0.98106  Biso   1.000  Cu
  O1       1.0000 0.58500  0.85300  0.49340  Biso   1.000  O
  O2       1.0000 0.58500  0.14700  0.99340  Biso   1.000  O
  O3       1.0000 0.08500  0.35300  0.49340  Biso   1.000  O
  O4       1.0000 0.08500  0.64700  0.99340  Biso   1.000  O
  O5       1.0000 0.57850  0.69460  0.47880  Biso   1.000  O
  O6       1.0000 0.57850  0.30540  0.97880  Biso   1.000  O
  O7       1.0000 0.07850  0.19460  0.47880  Biso   1.000  O
  O8       1.0000 0.07850  0.80540  0.97880  Biso   1.000  O
  O9       1.0000 0.47170  0.85490  0.36200  Biso   1.000  O
  O10      1.0000 0.47170  0.14510  0.86200  Biso   1.000  O
  O11      1.0000 0.97170  0.35490  0.36200  Biso   1.000  O
  O12      1.0000 0.97170  0.64510  0.86200  Biso   1.000  O
  O13      1.0000 0.46220  0.69620  0.34630  Biso   1.000  O
  O14      1.0000 0.46220  0.30380  0.84630  Biso   1.000  O
  O15      1.0000 0.96220  0.19620  0.34630  Biso   1.000  O
  O16      1.0000 0.96220  0.80380  0.84630  Biso   1.000  O
  O17      1.0000 0.41490  0.84890  0.50370  Biso   1.000  O
  O18      1.0000 0.41490  0.15110  0.00370  Biso   1.000  O
  O19      1.0000 0.91490  0.34890  0.50370  Biso   1.000  O
  O20      1.0000 0.91490  0.65110  0.00370  Biso   1.000  O
  O21      1.0000 0.40630  0.68940  0.48640  Biso   1.000  O
  O22      1.0000 0.40630  0.31060  0.98640  Biso   1.000  O
  O23      1.0000 0.90630  0.18940  0.48640  Biso   1.000  O
  O24      1.0000 0.90630  0.81060  0.98640  Biso   1.000  O
  O25      1.0000 0.53090  0.83170  0.63570  Biso   1.000  O
  O26      1.0000 0.53090  0.16830  0.13570  Biso   1.000  O
  O27      1.0000 0.03090  0.33170  0.63570  Biso   1.000  O
  O28      1.0000 0.03090  0.66830  0.13570  Biso   1.000  O
  O29      1.0000 0.52110  0.67260  0.61750  Biso   1.000  O
  O30      1.0000 0.52110  0.32740  0.11750  Biso   1.000  O
  O31      1.0000 0.02110  0.17260  0.61750  Biso   1.000  O
  O32      1.0000 0.02110  0.82740  0.11750  Biso   1.000  O
  N1       1.0000 0.49290  0.52000  0.47630  Biso   1.000  N
  N2       1.0000 0.49290  0.48000  0.97630  Biso   1.000  N
  N3       1.0000 0.99290  0.02000  0.47630  Biso   1.000  N
  N4       1.0000 0.99290  0.98000  0.97630  Biso   1.000  N
  N5       1.0000 0.49800  0.01510  0.50200  Biso   1.000  N
  N6       1.0000 0.49800  0.98490  0.00200  Biso   1.000  N
  N7       1.0000 0.99800  0.51510  0.50200  Biso   1.000  N
  N8       1.0000 0.99800  0.48490  0.00200  Biso   1.000  N
  C1       1.0000 0.60670  0.77280  0.48110  Biso   1.000  C
  C2       1.0000 0.60670  0.22720  0.98110  Biso   1.000  C
  C3       1.0000 0.10670  0.27280  0.48110  Biso   1.000  C
  C4       1.0000 0.10670  0.72720  0.98110  Biso   1.000  C
  C5       1.0000 0.66890  0.76990  0.46700  Biso   1.000  C
  C6       1.0000 0.66890  0.23010  0.96700  Biso   1.000  C
  C7       1.0000 0.16890  0.26990  0.46700  Biso   1.000  C
  C8       1.0000 0.16890  0.73010  0.96700  Biso   1.000  C
  C9       1.0000 0.46010  0.77910  0.31370  Biso   1.000  C
  C10      1.0000 0.46010  0.22090  0.81370  Biso   1.000  C
  C11      1.0000 0.96010  0.27910  0.31370  Biso   1.000  C
  C12      1.0000 0.96010  0.72090  0.81370  Biso   1.000  C
  C13      1.0000 0.44360  0.79000  0.21040  Biso   1.000  C
  C14      1.0000 0.44360  0.21000  0.71040  Biso   1.000  C
  C15      1.0000 0.94360  0.29000  0.21040  Biso   1.000  C
  C16      1.0000 0.94360  0.71000  0.71040  Biso   1.000  C
  C17      1.0000 0.38500  0.77050  0.49810  Biso   1.000  C
  C18      1.0000 0.38500  0.22950  0.99810  Biso   1.000  C
  C19      1.0000 0.88500  0.27050  0.49810  Biso   1.000  C
  C20      1.0000 0.88500  0.72950  0.99810  Biso   1.000  C
  C21      1.0000 0.32150  0.77510  0.50850  Biso   1.000  C
  C22      1.0000 0.32150  0.22490  0.00850  Biso   1.000  C
  C23      1.0000 0.82150  0.27510  0.50850  Biso   1.000  C
  C24      1.0000 0.82150  0.72490  0.00850  Biso   1.000  C
  C25      1.0000 0.53370  0.74730  0.66650  Biso   1.000  C
  C26      1.0000 0.53370  0.25270  0.16650  Biso   1.000  C
  C27      1.0000 0.03370  0.24730  0.66650  Biso   1.000  C
  C28      1.0000 0.03370  0.75270  0.16650  Biso   1.000  C
  C29      1.0000 0.55360  0.73250  0.77010  Biso   1.000  C
  C30      1.0000 0.55360  0.26750  0.27010  Biso   1.000  C
  C31      1.0000 0.05360  0.23250  0.77010  Biso   1.000  C
  C32      1.0000 0.05360  0.76750  0.27010  Biso   1.000  C
  C33      1.0000 0.53940  0.47400  0.53550  Biso   1.000  C
  C34      1.0000 0.53940  0.52600  0.03550  Biso   1.000  C
  C35      1.0000 0.03940  0.97400  0.53550  Biso   1.000  C
  C36      1.0000 0.03940  0.02600  0.03550  Biso   1.000  C
  C37      1.0000 0.54210  0.37540  0.54150  Biso   1.000  C
  C38      1.0000 0.54210  0.62460  0.04150  Biso   1.000  C
  C39      1.0000 0.04210  0.87540  0.54150  Biso   1.000  C
  C40      1.0000 0.04210  0.12460  0.04150  Biso   1.000  C
  C41      1.0000 0.49470  0.32080  0.48480  Biso   1.000  C
  C42      1.0000 0.49470  0.67920  0.98480  Biso   1.000  C
  C43      1.0000 0.99470  0.82080  0.48480  Biso   1.000  C
  C44      1.0000 0.99470  0.17920  0.98480  Biso   1.000  C
  C45      1.0000 0.44580  0.36920  0.42170  Biso   1.000  C
  C46      1.0000 0.44580  0.63080  0.92170  Biso   1.000  C
  C47      1.0000 0.94580  0.86920  0.42170  Biso   1.000  C
  C48      1.0000 0.94580  0.13080  0.92170  Biso   1.000  C
  C49      1.0000 0.44700  0.46870  0.42030  Biso   1.000  C
  C50      1.0000 0.44700  0.53130  0.92030  Biso   1.000  C
  C51      1.0000 0.94700  0.96870  0.42030  Biso   1.000  C
  C52      1.0000 0.94700  0.03130  0.92030  Biso   1.000  C
  C53      1.0000 0.55020  0.06610  0.52730  Biso   1.000  C
  C54      1.0000 0.55020  0.93390  0.02730  Biso   1.000  C
  C55      1.0000 0.05020  0.56610  0.52730  Biso   1.000  C
  C56      1.0000 0.05020  0.43390  0.02730  Biso   1.000  C
  C57      1.0000 0.55110  0.16510  0.52220  Biso   1.000  C
  C58      1.0000 0.55110  0.83490  0.02220  Biso   1.000  C
  C59      1.0000 0.05110  0.66510  0.52220  Biso   1.000  C
  C60      1.0000 0.05110  0.33490  0.02220  Biso   1.000  C
  C61      1.0000 0.49530  0.21400  0.48950  Biso   1.000  C
  C62      1.0000 0.49530  0.78600  0.98950  Biso   1.000  C
  C63      1.0000 0.99530  0.71400  0.48950  Biso   1.000  C
  C64      1.0000 0.99530  0.28600  0.98950  Biso   1.000  C
  C65      1.0000 0.44120  0.16130  0.46210  Biso   1.000  C
  C66      1.0000 0.44120  0.83870  0.96210  Biso   1.000  C
  C67      1.0000 0.94120  0.66130  0.46210  Biso   1.000  C
  C68      1.0000 0.94120  0.33870  0.96210  Biso   1.000  C
  C69      1.0000 0.44480  0.06260  0.46960  Biso   1.000  C
  C70      1.0000 0.44480  0.93740  0.96960  Biso   1.000  C
  C71      1.0000 0.94480  0.56260  0.46960  Biso   1.000  C
  C72      1.0000 0.94480  0.43740  0.96960  Biso   1.000  C
  H1       1.0000 0.69130  0.82710  0.49140  Biso   1.000  H
  H2       1.0000 0.69130  0.17290  0.99140  Biso   1.000  H
  H3       1.0000 0.19130  0.32710  0.49140  Biso   1.000  H
  H4       1.0000 0.19130  0.67290  0.99140  Biso   1.000  H
  H5       1.0000 0.66420  0.76530  0.40180  Biso   1.000  H
  H6       1.0000 0.66420  0.23470  0.90180  Biso   1.000  H
  H7       1.0000 0.16420  0.26530  0.40180  Biso   1.000  H
  H8       1.0000 0.16420  0.73470  0.90180  Biso   1.000  H
  H9       1.0000 0.69150  0.71550  0.49850  Biso   1.000  H
  H10      1.0000 0.69150  0.28450  0.99850  Biso   1.000  H
  H11      1.0000 0.19150  0.21550  0.49850  Biso   1.000  H
  H12      1.0000 0.19150  0.78450  0.99850  Biso   1.000  H
  H13      1.0000 0.41710  0.73840  0.18070  Biso   1.000  H
  H14      1.0000 0.41710  0.26160  0.68070  Biso   1.000  H
  H15      1.0000 0.91710  0.23840  0.18070  Biso   1.000  H
  H16      1.0000 0.91710  0.76160  0.68070  Biso   1.000  H
  H17      1.0000 0.48070  0.78920  0.19210  Biso   1.000  H
  H18      1.0000 0.48070  0.21080  0.69210  Biso   1.000  H
  H19      1.0000 0.98070  0.28920  0.19210  Biso   1.000  H
  H20      1.0000 0.98070  0.71080  0.69210  Biso   1.000  H
  H21      1.0000 0.42240  0.84950  0.19210  Biso   1.000  H
  H22      1.0000 0.42240  0.15050  0.69210  Biso   1.000  H
  H23      1.0000 0.92240  0.34950  0.19210  Biso   1.000  H
  H24      1.0000 0.92240  0.65050  0.69210  Biso   1.000  H
  H25      1.0000 0.32450  0.77420  0.57320  Biso   1.000  H
  H26      1.0000 0.32450  0.22580  0.07320  Biso   1.000  H
  H27      1.0000 0.82450  0.27420  0.57320  Biso   1.000  H
  H28      1.0000 0.82450  0.72580  0.07320  Biso   1.000  H
  H29      1.0000 0.29780  0.72110  0.47810  Biso   1.000  H
  H30      1.0000 0.29780  0.27890  0.97810  Biso   1.000  H
  H31      1.0000 0.79780  0.22110  0.47810  Biso   1.000  H
  H32      1.0000 0.79780  0.77890  0.97810  Biso   1.000  H
  H33      1.0000 0.30150  0.83280  0.48080  Biso   1.000  H
  H34      1.0000 0.30150  0.16720  0.98080  Biso   1.000  H
  H35      1.0000 0.80150  0.33280  0.48080  Biso   1.000  H
  H36      1.0000 0.80150  0.66720  0.98080  Biso   1.000  H
  H37      1.0000 0.58770  0.68850  0.78730  Biso   1.000  H
  H38      1.0000 0.58770  0.31150  0.28730  Biso   1.000  H
  H39      1.0000 0.08770  0.18850  0.78730  Biso   1.000  H
  H40      1.0000 0.08770  0.81150  0.28730  Biso   1.000  H
  H41      1.0000 0.51960  0.70720  0.78820  Biso   1.000  H
  H42      1.0000 0.51960  0.29280  0.28820  Biso   1.000  H
  H43      1.0000 0.01960  0.20720  0.78820  Biso   1.000  H
  H44      1.0000 0.01960  0.79280  0.28820  Biso   1.000  H
  H45      1.0000 0.56630  0.79240  0.80080  Biso   1.000  H
  H46      1.0000 0.56630  0.20760  0.30080  Biso   1.000  H
  H47      1.0000 0.06630  0.29240  0.80080  Biso   1.000  H
  H48      1.0000 0.06630  0.70760  0.30080  Biso   1.000  H
  H49      1.0000 0.57160  0.50940  0.57460  Biso   1.000  H
  H50      1.0000 0.57160  0.49060  0.07460  Biso   1.000  H
  H51      1.0000 0.07160  0.00940  0.57460  Biso   1.000  H
  H52      1.0000 0.07160  0.99060  0.07460  Biso   1.000  H
  H53      1.0000 0.57580  0.34580  0.58370  Biso   1.000  H
  H54      1.0000 0.57580  0.65420  0.08370  Biso   1.000  H
  H55      1.0000 0.07580  0.84580  0.58370  Biso   1.000  H
  H56      1.0000 0.07580  0.15420  0.08370  Biso   1.000  H
  H57      1.0000 0.41310  0.33570  0.38140  Biso   1.000  H
  H58      1.0000 0.41310  0.66430  0.88140  Biso   1.000  H
  H59      1.0000 0.91310  0.83570  0.38140  Biso   1.000  H
  H60      1.0000 0.91310  0.16430  0.88140  Biso   1.000  H
  H61      1.0000 0.41430  0.50070  0.37840  Biso   1.000  H
  H62      1.0000 0.41430  0.49930  0.87840  Biso   1.000  H
  H63      1.0000 0.91430  0.00070  0.37840  Biso   1.000  H
  H64      1.0000 0.91430  0.99930  0.87840  Biso   1.000  H
  H65      1.0000 0.58770  0.03390  0.54940  Biso   1.000  H
  H66      1.0000 0.58770  0.96610  0.04940  Biso   1.000  H
  H67      1.0000 0.08770  0.53390  0.54940  Biso   1.000  H
  H68      1.0000 0.08770  0.46610  0.04940  Biso   1.000  H
  H69      1.0000 0.58850  0.19810  0.54030  Biso   1.000  H
  H70      1.0000 0.58850  0.80190  0.04030  Biso   1.000  H
  H71      1.0000 0.08850  0.69810  0.54030  Biso   1.000  H
  H72      1.0000 0.08850  0.30190  0.04030  Biso   1.000  H
  H73      1.0000 0.40300  0.19150  0.43900  Biso   1.000  H
  H74      1.0000 0.40300  0.80850  0.93900  Biso   1.000  H
  H75      1.0000 0.90300  0.69150  0.43900  Biso   1.000  H
  H76      1.0000 0.90300  0.30850  0.93900  Biso   1.000  H
  H77      1.0000 0.40810  0.02770  0.45090  Biso   1.000  H
  H78      1.0000 0.40810  0.97230  0.95090  Biso   1.000  H
  H79      1.0000 0.90810  0.52770  0.45090  Biso   1.000  H
  H80      1.0000 0.90810  0.47230  0.95090  Biso   1.000  H
  Cu9      1.0000 0.24355  0.99959  0.74409  Biso   1.000  Cu
  Cu10     1.0000 0.24355  0.00041  0.24409  Biso   1.000  Cu
  Cu11     1.0000 0.74355  0.49959  0.74409  Biso   1.000  Cu
  Cu12     1.0000 0.74355  0.50041  0.24409  Biso   1.000  Cu
  Cu13     1.0000 0.24261  0.81144  0.74520  Biso   1.000  Cu
  Cu14     1.0000 0.24261  0.18856  0.24520  Biso   1.000  Cu
  Cu15     1.0000 0.74261  0.31144  0.74520  Biso   1.000  Cu
  Cu16     1.0000 0.74261  0.68856  0.24520  Biso   1.000  Cu
  O33      1.0000 0.32690  0.99010  0.73390  Biso   1.000  O
  O34      1.0000 0.32690  0.00990  0.23390  Biso   1.000  O
  O35      1.0000 0.82690  0.49010  0.73390  Biso   1.000  O
  O36      1.0000 0.82690  0.50990  0.23390  Biso   1.000  O
  O37      1.0000 0.32910  0.83060  0.73740  Biso   1.000  O
  O38      1.0000 0.32910  0.16940  0.23740  Biso   1.000  O
  O39      1.0000 0.82910  0.33060  0.73740  Biso   1.000  O
  O40      1.0000 0.82910  0.66940  0.23740  Biso   1.000  O
  O41      1.0000 0.20670  0.97690  0.60790  Biso   1.000  O
  O42      1.0000 0.20670  0.02310  0.10790  Biso   1.000  O
  O43      1.0000 0.70670  0.47690  0.60790  Biso   1.000  O
  O44      1.0000 0.70670  0.52310  0.10790  Biso   1.000  O
  O45      1.0000 0.20840  0.81740  0.61040  Biso   1.000  O
  O46      1.0000 0.20840  0.18260  0.11040  Biso   1.000  O
  O47      1.0000 0.70840  0.31740  0.61040  Biso   1.000  O
  O48      1.0000 0.70840  0.68260  0.11040  Biso   1.000  O
  O49      1.0000 0.16030  0.99650  0.75580  Biso   1.000  O
  O50      1.0000 0.16030  0.00350  0.25580  Biso   1.000  O
  O51      1.0000 0.66030  0.49650  0.75580  Biso   1.000  O
  O52      1.0000 0.66030  0.50350  0.25580  Biso   1.000  O
  O53      1.0000 0.15690  0.83640  0.75520  Biso   1.000  O
  O54      1.0000 0.15690  0.16360  0.25520  Biso   1.000  O
  O55      1.0000 0.65690  0.33640  0.75520  Biso   1.000  O
  O56      1.0000 0.65690  0.66360  0.25520  Biso   1.000  O
  O57      1.0000 0.27760  0.97930  0.88160  Biso   1.000  O
  O58      1.0000 0.27760  0.02070  0.38160  Biso   1.000  O
  O59      1.0000 0.77760  0.47930  0.88160  Biso   1.000  O
  O60      1.0000 0.77760  0.52070  0.38160  Biso   1.000  O
  O61      1.0000 0.27550  0.81940  0.87920  Biso   1.000  O
  O62      1.0000 0.27550  0.18060  0.37920  Biso   1.000  O
  O63      1.0000 0.77550  0.31940  0.87920  Biso   1.000  O
  O64      1.0000 0.77550  0.68060  0.37920  Biso   1.000  O
  N9       1.0000 0.24530  0.65660  0.74390  Biso   1.000  N
  N10      1.0000 0.24530  0.34340  0.24390  Biso   1.000  N
  N11      1.0000 0.74530  0.15660  0.74390  Biso   1.000  N
  N12      1.0000 0.74530  0.84340  0.24390  Biso   1.000  N
  N13      1.0000 0.24620  0.15300  0.74110  Biso   1.000  N
  N14      1.0000 0.24620  0.84700  0.24110  Biso   1.000  N
  N15      1.0000 0.74620  0.65300  0.74110  Biso   1.000  N
  N16      1.0000 0.74620  0.34700  0.24110  Biso   1.000  N
  C73      1.0000 0.35340  0.91050  0.73390  Biso   1.000  C
  C74      1.0000 0.35340  0.08950  0.23390  Biso   1.000  C
  C75      1.0000 0.85340  0.41050  0.73390  Biso   1.000  C
  C76      1.0000 0.85340  0.58950  0.23390  Biso   1.000  C
  C77      1.0000 0.41780  0.91560  0.72710  Biso   1.000  C
  C78      1.0000 0.41780  0.08440  0.22710  Biso   1.000  C
  C79      1.0000 0.91780  0.41560  0.72710  Biso   1.000  C
  C80      1.0000 0.91780  0.58440  0.22710  Biso   1.000  C
  C81      1.0000 0.19850  0.89620  0.56890  Biso   1.000  C
  C82      1.0000 0.19850  0.10380  0.06890  Biso   1.000  C
  C83      1.0000 0.69850  0.39620  0.56890  Biso   1.000  C
  C84      1.0000 0.69850  0.60380  0.06890  Biso   1.000  C
  C85      1.0000 0.17280  0.89360  0.46440  Biso   1.000  C
  C86      1.0000 0.17280  0.10640  0.96440  Biso   1.000  C
  C87      1.0000 0.67280  0.39360  0.46440  Biso   1.000  C
  C88      1.0000 0.67280  0.60640  0.96440  Biso   1.000  C
  C89      1.0000 0.13450  0.91770  0.76190  Biso   1.000  C
  C90      1.0000 0.13450  0.08230  0.26190  Biso   1.000  C
  C91      1.0000 0.63450  0.41770  0.76190  Biso   1.000  C
  C92      1.0000 0.63450  0.58230  0.26190  Biso   1.000  C
  C93      1.0000 0.07280  0.92210  0.77880  Biso   1.000  C
  C94      1.0000 0.07280  0.07790  0.27880  Biso   1.000  C
  C95      1.0000 0.57280  0.42210  0.77880  Biso   1.000  C
  C96      1.0000 0.57280  0.57790  0.27880  Biso   1.000  C
  C97      1.0000 0.28490  0.89880  0.92080  Biso   1.000  C
  C98      1.0000 0.28490  0.10120  0.42080  Biso   1.000  C
  C99      1.0000 0.78490  0.39880  0.92080  Biso   1.000  C
  C100     1.0000 0.78490  0.60120  0.42080  Biso   1.000  C
  C101     1.0000 0.30590  0.89720  0.02590  Biso   1.000  C
  C102     1.0000 0.30590  0.10280  0.52590  Biso   1.000  C
  C103     1.0000 0.80590  0.39720  0.02590  Biso   1.000  C
  C104     1.0000 0.80590  0.60280  0.52590  Biso   1.000  C
  C105     1.0000 0.22290  0.60830  0.66440  Biso   1.000  C
  C106     1.0000 0.22290  0.39170  0.16440  Biso   1.000  C
  C107     1.0000 0.72290  0.10830  0.66440  Biso   1.000  C
  C108     1.0000 0.72290  0.89170  0.16440  Biso   1.000  C
  C109     1.0000 0.22300  0.50910  0.66040  Biso   1.000  C
  C110     1.0000 0.22300  0.49090  0.16040  Biso   1.000  C
  C111     1.0000 0.72300  0.00910  0.66040  Biso   1.000  C
  C112     1.0000 0.72300  0.99090  0.16040  Biso   1.000  C
  C113     1.0000 0.24910  0.45730  0.74110  Biso   1.000  C
  C114     1.0000 0.24910  0.54270  0.24110  Biso   1.000  C
  C115     1.0000 0.74910  0.95730  0.74110  Biso   1.000  C
  C116     1.0000 0.74910  0.04270  0.24110  Biso   1.000  C
  C117     1.0000 0.27430  0.50800  0.82300  Biso   1.000  C
  C118     1.0000 0.27430  0.49200  0.32300  Biso   1.000  C
  C119     1.0000 0.77430  0.00800  0.82300  Biso   1.000  C
  C120     1.0000 0.77430  0.99200  0.32300  Biso   1.000  C
  C121     1.0000 0.27040  0.60700  0.82170  Biso   1.000  C
  C122     1.0000 0.27040  0.39300  0.32170  Biso   1.000  C
  C123     1.0000 0.77040  0.10700  0.82170  Biso   1.000  C
  C124     1.0000 0.77040  0.89300  0.32170  Biso   1.000  C
  C125     1.0000 0.29900  0.20000  0.77630  Biso   1.000  C
  C126     1.0000 0.29900  0.80000  0.27630  Biso   1.000  C
  C127     1.0000 0.79900  0.70000  0.77630  Biso   1.000  C
  C128     1.0000 0.79900  0.30000  0.27630  Biso   1.000  C
  C129     1.0000 0.30150  0.29920  0.77790  Biso   1.000  C
  C130     1.0000 0.30150  0.70080  0.27790  Biso   1.000  C
  C131     1.0000 0.80150  0.79920  0.77790  Biso   1.000  C
  C132     1.0000 0.80150  0.20080  0.27790  Biso   1.000  C
  C133     1.0000 0.24730  0.35130  0.74000  Biso   1.000  C
  C134     1.0000 0.24730  0.64870  0.24000  Biso   1.000  C
  C135     1.0000 0.74730  0.85130  0.74000  Biso   1.000  C
  C136     1.0000 0.74730  0.14870  0.24000  Biso   1.000  C
  C137     1.0000 0.19220  0.30260  0.70140  Biso   1.000  C
  C138     1.0000 0.19220  0.69740  0.20140  Biso   1.000  C
  C139     1.0000 0.69220  0.80260  0.70140  Biso   1.000  C
  C140     1.0000 0.69220  0.19740  0.20140  Biso   1.000  C
  C141     1.0000 0.19500  0.20350  0.70440  Biso   1.000  C
  C142     1.0000 0.19500  0.79650  0.20440  Biso   1.000  C
  C143     1.0000 0.69500  0.70350  0.70440  Biso   1.000  C
  C144     1.0000 0.69500  0.29650  0.20440  Biso   1.000  C
  H81      1.0000 0.41620  0.92430  0.66340  Biso   1.000  H
  H82      1.0000 0.41620  0.07570  0.16340  Biso   1.000  H
  H83      1.0000 0.91620  0.42430  0.66340  Biso   1.000  H
  H84      1.0000 0.91620  0.57570  0.16340  Biso   1.000  H
  H85      1.0000 0.43930  0.85740  0.75030  Biso   1.000  H
  H86      1.0000 0.43930  0.14260  0.25030  Biso   1.000  H
  H87      1.0000 0.93930  0.35740  0.75030  Biso   1.000  H
  H88      1.0000 0.93930  0.64260  0.25030  Biso   1.000  H
  H89      1.0000 0.43920  0.96830  0.76340  Biso   1.000  H
  H90      1.0000 0.43920  0.03170  0.26340  Biso   1.000  H
  H91      1.0000 0.93920  0.46830  0.76340  Biso   1.000  H
  H92      1.0000 0.93920  0.53170  0.26340  Biso   1.000  H
  H93      1.0000 0.20230  0.92160  0.43780  Biso   1.000  H
  H94      1.0000 0.20230  0.07840  0.93780  Biso   1.000  H
  H95      1.0000 0.70230  0.42160  0.43780  Biso   1.000  H
  H96      1.0000 0.70230  0.57840  0.93780  Biso   1.000  H
  H97      1.0000 0.13480  0.92900  0.44500  Biso   1.000  H
  H98      1.0000 0.13480  0.07100  0.94500  Biso   1.000  H
  H99      1.0000 0.63480  0.42900  0.44500  Biso   1.000  H
  H100     1.0000 0.63480  0.57100  0.94500  Biso   1.000  H
  H101     1.0000 0.16520  0.82860  0.44400  Biso   1.000  H
  H102     1.0000 0.16520  0.17140  0.94400  Biso   1.000  H
  H103     1.0000 0.66520  0.32860  0.44400  Biso   1.000  H
  H104     1.0000 0.66520  0.67140  0.94400  Biso   1.000  H
  H105     1.0000 0.05240  0.98060  0.75410  Biso   1.000  H
  H106     1.0000 0.05240  0.01940  0.25410  Biso   1.000  H
  H107     1.0000 0.55240  0.48060  0.75410  Biso   1.000  H
  H108     1.0000 0.55240  0.51940  0.25410  Biso   1.000  H
  H109     1.0000 0.07850  0.91930  0.84430  Biso   1.000  H
  H110     1.0000 0.07850  0.08070  0.34430  Biso   1.000  H
  H111     1.0000 0.57850  0.41930  0.84430  Biso   1.000  H
  H112     1.0000 0.57850  0.58070  0.34430  Biso   1.000  H
  H113     1.0000 0.04790  0.86900  0.74870  Biso   1.000  H
  H114     1.0000 0.04790  0.13100  0.24870  Biso   1.000  H
  H115     1.0000 0.54790  0.36900  0.74870  Biso   1.000  H
  H116     1.0000 0.54790  0.63100  0.24870  Biso   1.000  H
  H117     1.0000 0.27180  0.91440  0.04810  Biso   1.000  H
  H118     1.0000 0.27180  0.08560  0.54810  Biso   1.000  H
  H119     1.0000 0.77180  0.41440  0.04810  Biso   1.000  H
  H120     1.0000 0.77180  0.58560  0.54810  Biso   1.000  H
  H121     1.0000 0.33920  0.94190  0.04890  Biso   1.000  H
  H122     1.0000 0.33920  0.05810  0.54890  Biso   1.000  H
  H123     1.0000 0.83920  0.44190  0.04890  Biso   1.000  H
  H124     1.0000 0.83920  0.55810  0.54890  Biso   1.000  H
  H125     1.0000 0.31990  0.83420  0.04730  Biso   1.000  H
  H126     1.0000 0.31990  0.16580  0.54730  Biso   1.000  H
  H127     1.0000 0.81990  0.33420  0.04730  Biso   1.000  H
  H128     1.0000 0.81990  0.66580  0.54730  Biso   1.000  H
  H129     1.0000 0.20650  0.64240  0.60950  Biso   1.000  H
  H130     1.0000 0.20650  0.35760  0.10950  Biso   1.000  H
  H131     1.0000 0.70650  0.14240  0.60950  Biso   1.000  H
  H132     1.0000 0.70650  0.85760  0.10950  Biso   1.000  H
  H133     1.0000 0.20590  0.47790  0.60420  Biso   1.000  H
  H134     1.0000 0.20590  0.52210  0.10420  Biso   1.000  H
  H135     1.0000 0.70590  0.97790  0.60420  Biso   1.000  H
  H136     1.0000 0.70590  0.02210  0.10420  Biso   1.000  H
  H137     1.0000 0.29360  0.47600  0.87810  Biso   1.000  H
  H138     1.0000 0.29360  0.52400  0.37810  Biso   1.000  H
  H139     1.0000 0.79360  0.97600  0.87810  Biso   1.000  H
  H140     1.0000 0.79360  0.02400  0.37810  Biso   1.000  H
  H141     1.0000 0.28600  0.64010  0.87730  Biso   1.000  H
  H142     1.0000 0.28600  0.35990  0.37730  Biso   1.000  H
  H143     1.0000 0.78600  0.14010  0.87730  Biso   1.000  H
  H144     1.0000 0.78600  0.85990  0.37730  Biso   1.000  H
  H145     1.0000 0.33540  0.16560  0.80080  Biso   1.000  H
  H146     1.0000 0.33540  0.83440  0.30080  Biso   1.000  H
  H147     1.0000 0.83540  0.66560  0.80080  Biso   1.000  H
  H148     1.0000 0.83540  0.33440  0.30080  Biso   1.000  H
  H149     1.0000 0.33900  0.33050  0.80390  Biso   1.000  H
  H150     1.0000 0.33900  0.66950  0.30390  Biso   1.000  H
  H151     1.0000 0.83900  0.83050  0.80390  Biso   1.000  H
  H152     1.0000 0.83900  0.16950  0.30390  Biso   1.000  H
  H153     1.0000 0.15510  0.33470  0.67470  Biso   1.000  H
  H154     1.0000 0.15510  0.66530  0.17470  Biso   1.000  H
  H155     1.0000 0.65510  0.83470  0.67470  Biso   1.000  H
  H156     1.0000 0.65510  0.16530  0.17470  Biso   1.000  H
  H157     1.0000 0.15820  0.17010  0.67880  Biso   1.000  H
  H158     1.0000 0.15820  0.82990  0.17880  Biso   1.000  H
  H159     1.0000 0.65820  0.67010  0.67880  Biso   1.000  H
  H160     1.0000 0.65820  0.32990  0.17880  Biso   1.000  H
  N17      1.0000 0.33960  0.59920  0.05590  Biso   1.000  N
  N18      1.0000 0.33960  0.40080  0.55590  Biso   1.000  N
  N19      1.0000 0.83960  0.09920  0.05590  Biso   1.000  N
  N20      1.0000 0.83960  0.90080  0.55590  Biso   1.000  N
  C145     1.0000 0.36360  0.53940  0.09950  Biso   1.000  C
  C146     1.0000 0.36360  0.46060  0.59950  Biso   1.000  C
  C147     1.0000 0.86360  0.03940  0.09950  Biso   1.000  C
  C148     1.0000 0.86360  0.96060  0.59950  Biso   1.000  C
  C149     1.0000 0.39720  0.46290  0.15820  Biso   1.000  C
  C150     1.0000 0.39720  0.53710  0.65820  Biso   1.000  C
  C151     1.0000 0.89720  0.96290  0.15820  Biso   1.000  C
  C152     1.0000 0.89720  0.03710  0.65820  Biso   1.000  C
  H161     1.0000 0.42910  0.48950  0.20940  Biso   1.000  H
  H162     1.0000 0.42910  0.51050  0.70940  Biso   1.000  H
  H163     1.0000 0.92910  0.98950  0.20940  Biso   1.000  H
  H164     1.0000 0.92910  0.01050  0.70940  Biso   1.000  H
  H165     1.0000 0.41550  0.42220  0.12270  Biso   1.000  H
  H166     1.0000 0.41550  0.57780  0.62270  Biso   1.000  H
  H167     1.0000 0.91550  0.92220  0.12270  Biso   1.000  H
  H168     1.0000 0.91550  0.07780  0.62270  Biso   1.000  H
  H169     1.0000 0.36900  0.42650  0.18130  Biso   1.000  H
  H170     1.0000 0.36900  0.57350  0.68130  Biso   1.000  H
  H171     1.0000 0.86900  0.92650  0.18130  Biso   1.000  H
  H172     1.0000 0.86900  0.07350  0.68130  Biso   1.000  H
  N21      1.0000 0.16810  0.41790  0.92570  Biso   1.000  N
  N22      1.0000 0.16810  0.58210  0.42570  Biso   1.000  N
  N23      1.0000 0.66810  0.91790  0.92570  Biso   1.000  N
  N24      1.0000 0.66810  0.08210  0.42570  Biso   1.000  N
  C153     1.0000 0.13540  0.46450  0.86960  Biso   1.000  C
  C154     1.0000 0.13540  0.53550  0.36960  Biso   1.000  C
  C155     1.0000 0.63540  0.96450  0.86960  Biso   1.000  C
  C156     1.0000 0.63540  0.03550  0.36960  Biso   1.000  C
  C157     1.0000 0.09390  0.52050  0.79780  Biso   1.000  C
  C158     1.0000 0.09390  0.47950  0.29780  Biso   1.000  C
  C159     1.0000 0.59390  0.02050  0.79780  Biso   1.000  C
  C160     1.0000 0.59390  0.97950  0.29780  Biso   1.000  C
  H173     1.0000 0.07000  0.47910  0.74960  Biso   1.000  H
  H174     1.0000 0.07000  0.52090  0.24960  Biso   1.000  H
  H175     1.0000 0.57000  0.97910  0.74960  Biso   1.000  H
  H176     1.0000 0.57000  0.02090  0.24960  Biso   1.000  H
  H177     1.0000 0.11730  0.56400  0.77260  Biso   1.000  H
  H178     1.0000 0.11730  0.43600  0.27260  Biso   1.000  H
  H179     1.0000 0.61730  0.06400  0.77260  Biso   1.000  H
  H180     1.0000 0.61730  0.93600  0.27260  Biso   1.000  H
  H181     1.0000 0.06650  0.55580  0.82330  Biso   1.000  H
  H182     1.0000 0.06650  0.44420  0.32330  Biso   1.000  H
  H183     1.0000 0.56650  0.05580  0.82330  Biso   1.000  H
  H184     1.0000 0.56650  0.94420  0.32330  Biso   1.000  H
