data_image0
_cell_length_a       8.968
_cell_length_b       9.0543
_cell_length_c       16.5808
_cell_angle_alpha    90
_cell_angle_beta     97.998
_cell_angle_gamma    90

_symmetry_space_group_name_H-M    "P 1"
_symmetry_int_tables_number       1

loop_
  _symmetry_equiv_pos_as_xyz
  'x, y, z'

loop_
  _atom_site_label
  _atom_site_occupancy
  _atom_site_fract_x
  _atom_site_fract_y
  _atom_site_fract_z
  _atom_site_thermal_displace_type
  _atom_site_B_iso_or_equiv
  _atom_site_type_symbol
  Cu1      1.0000 0.08533  0.20917  0.87642  Biso   1.000  Cu
  Cu2      1.0000 0.91467  0.70917  0.62359  Biso   1.000  Cu
  Cu3      1.0000 0.91467  0.79083  0.12358  Biso   1.000  Cu
  Cu4      1.0000 0.08533  0.29083  0.37642  Biso   1.000  Cu
  N1       1.0000 0.76770  0.14980  0.03858  Biso   1.000  N
  N2       1.0000 0.23230  0.64980  0.46142  Biso   1.000  N
  N3       1.0000 0.23230  0.85020  0.96142  Biso   1.000  N
  N4       1.0000 0.76770  0.35020  0.53858  Biso   1.000  N
  H1       1.0000 0.68660  0.12230  0.05650  Biso   1.000  H
  H2       1.0000 0.31340  0.62230  0.44350  Biso   1.000  H
  H3       1.0000 0.31340  0.87770  0.94350  Biso   1.000  H
  H4       1.0000 0.68660  0.37770  0.55650  Biso   1.000  H
  N5       1.0000 0.93750  0.17560  0.95699  Biso   1.000  N
  N6       1.0000 0.06250  0.67560  0.54301  Biso   1.000  N
  N7       1.0000 0.06250  0.82440  0.04301  Biso   1.000  N
  N8       1.0000 0.93750  0.32440  0.45699  Biso   1.000  N
  N9       1.0000 0.18520  0.32910  0.96871  Biso   1.000  N
  N10      1.0000 0.81480  0.82910  0.53129  Biso   1.000  N
  N11      1.0000 0.81480  0.67090  0.03129  Biso   1.000  N
  N12      1.0000 0.18520  0.17090  0.46871  Biso   1.000  N
  N13      1.0000 0.29550  0.20990  0.85239  Biso   1.000  N
  N14      1.0000 0.70450  0.70990  0.64761  Biso   1.000  N
  N15      1.0000 0.70450  0.79010  0.14761  Biso   1.000  N
  N16      1.0000 0.29550  0.29010  0.35239  Biso   1.000  N
  N17      1.0000 0.06480  0.05210  0.79307  Biso   1.000  N
  N18      1.0000 0.93520  0.55210  0.70693  Biso   1.000  N
  N19      1.0000 0.93520  0.94790  0.20693  Biso   1.000  N
  N20      1.0000 0.06480  0.44790  0.29307  Biso   1.000  N
  N21      1.0000 0.02940  0.87760  0.69666  Biso   1.000  N
  N22      1.0000 0.97060  0.37760  0.80334  Biso   1.000  N
  N23      1.0000 0.97060  0.12240  0.30334  Biso   1.000  N
  N24      1.0000 0.02940  0.62240  0.19666  Biso   1.000  N
  C1       1.0000 0.87710  0.23510  0.07866  Biso   1.000  C
  C2       1.0000 0.12290  0.73510  0.42134  Biso   1.000  C
  C3       1.0000 0.12290  0.76490  0.92134  Biso   1.000  C
  C4       1.0000 0.87710  0.26490  0.57866  Biso   1.000  C
  H5       1.0000 0.87940  0.27450  0.13060  Biso   1.000  H
  H6       1.0000 0.12060  0.77450  0.36940  Biso   1.000  H
  H7       1.0000 0.12060  0.72550  0.86940  Biso   1.000  H
  H8       1.0000 0.87940  0.22550  0.63060  Biso   1.000  H
  C5       1.0000 0.80780  0.11530  0.96605  Biso   1.000  C
  C6       1.0000 0.19220  0.61530  0.53395  Biso   1.000  C
  C7       1.0000 0.19220  0.88470  0.03395  Biso   1.000  C
  C8       1.0000 0.80780  0.38470  0.46605  Biso   1.000  C
  H9       1.0000 0.75130  0.05650  0.92720  Biso   1.000  H
  H10      1.0000 0.24870  0.55650  0.57280  Biso   1.000  H
  H11      1.0000 0.24870  0.94350  0.07280  Biso   1.000  H
  H12      1.0000 0.75130  0.44350  0.42720  Biso   1.000  H
  C9       1.0000 0.98260  0.25240  0.02867  Biso   1.000  C
  C10      1.0000 0.01740  0.75240  0.47133  Biso   1.000  C
  C11      1.0000 0.01740  0.74760  0.97133  Biso   1.000  C
  C12      1.0000 0.98260  0.24760  0.52867  Biso   1.000  C
  C13      1.0000 0.12430  0.33040  0.03282  Biso   1.000  C
  C14      1.0000 0.87570  0.83040  0.46718  Biso   1.000  C
  C15      1.0000 0.87570  0.66960  0.96718  Biso   1.000  C
  C16      1.0000 0.12430  0.16960  0.53282  Biso   1.000  C
  H13      1.0000 0.16780  0.37850  0.07980  Biso   1.000  H
  H14      1.0000 0.83220  0.87850  0.42020  Biso   1.000  H
  H15      1.0000 0.83220  0.62150  0.92020  Biso   1.000  H
  H16      1.0000 0.16780  0.12150  0.57980  Biso   1.000  H
  C17      1.0000 0.32660  0.39740  0.95720  Biso   1.000  C
  C18      1.0000 0.67340  0.89740  0.54280  Biso   1.000  C
  C19      1.0000 0.67340  0.60260  0.04280  Biso   1.000  C
  C20      1.0000 0.32660  0.10260  0.45720  Biso   1.000  C
  H17      1.0000 0.38880  0.41030  0.00940  Biso   1.000  H
  H18      1.0000 0.61120  0.91030  0.49060  Biso   1.000  H
  H19      1.0000 0.61120  0.58970  0.99060  Biso   1.000  H
  H20      1.0000 0.38880  0.08970  0.50940  Biso   1.000  H
  H21      1.0000 0.30810  0.49390  0.93240  Biso   1.000  H
  H22      1.0000 0.69190  0.99390  0.56760  Biso   1.000  H
  H23      1.0000 0.69190  0.50610  0.06760  Biso   1.000  H
  H24      1.0000 0.30810  0.00610  0.43240  Biso   1.000  H
  C21      1.0000 0.40700  0.30010  0.90280  Biso   1.000  C
  C22      1.0000 0.59300  0.80010  0.59720  Biso   1.000  C
  C23      1.0000 0.59300  0.69990  0.09720  Biso   1.000  C
  C24      1.0000 0.40700  0.19990  0.40280  Biso   1.000  C
  H25      1.0000 0.46150  0.36070  0.86850  Biso   1.000  H
  H26      1.0000 0.53850  0.86070  0.63150  Biso   1.000  H
  H27      1.0000 0.53850  0.63930  0.13150  Biso   1.000  H
  H28      1.0000 0.46150  0.13930  0.36850  Biso   1.000  H
  H29      1.0000 0.47880  0.23700  0.93580  Biso   1.000  H
  H30      1.0000 0.52120  0.73700  0.56420  Biso   1.000  H
  H31      1.0000 0.52120  0.76300  0.06420  Biso   1.000  H
  H32      1.0000 0.47880  0.26300  0.43580  Biso   1.000  H
  C25      1.0000 0.32450  0.11770  0.79852  Biso   1.000  C
  C26      1.0000 0.67550  0.61770  0.70148  Biso   1.000  C
  C27      1.0000 0.67550  0.88230  0.20148  Biso   1.000  C
  C28      1.0000 0.32450  0.38230  0.29852  Biso   1.000  C
  H33      1.0000 0.41990  0.10830  0.78320  Biso   1.000  H
  H34      1.0000 0.58010  0.60830  0.71680  Biso   1.000  H
  H35      1.0000 0.58010  0.89170  0.21680  Biso   1.000  H
  H36      1.0000 0.41990  0.39170  0.28320  Biso   1.000  H
  C29      1.0000 0.19900  0.02950  0.76328  Biso   1.000  C
  C30      1.0000 0.80100  0.52950  0.73672  Biso   1.000  C
  C31      1.0000 0.80100  0.97050  0.23672  Biso   1.000  C
  C32      1.0000 0.19900  0.47050  0.26328  Biso   1.000  C
  C33      1.0000 0.17540  0.92180  0.70481  Biso   1.000  C
  C34      1.0000 0.82460  0.42180  0.79519  Biso   1.000  C
  C35      1.0000 0.82460  0.07820  0.29519  Biso   1.000  C
  C36      1.0000 0.17540  0.57820  0.20481  Biso   1.000  C
  H37      1.0000 0.24810  0.88470  0.67530  Biso   1.000  H
  H38      1.0000 0.75190  0.38470  0.82470  Biso   1.000  H
  H39      1.0000 0.75190  0.11530  0.32470  Biso   1.000  H
  H40      1.0000 0.24810  0.61530  0.17530  Biso   1.000  H
  C37      1.0000 0.96840  0.95940  0.75149  Biso   1.000  C
  C38      1.0000 0.03160  0.45940  0.74851  Biso   1.000  C
  C39      1.0000 0.03160  0.04060  0.24851  Biso   1.000  C
  C40      1.0000 0.96840  0.54060  0.25149  Biso   1.000  C
  H41      1.0000 0.86810  0.95170  0.75950  Biso   1.000  H
  H42      1.0000 0.13190  0.45170  0.74050  Biso   1.000  H
  H43      1.0000 0.13190  0.04830  0.24050  Biso   1.000  H
  H44      1.0000 0.86810  0.54830  0.25950  Biso   1.000  H
  O1       1.0000 0.51260  0.91520  0.91708  Biso   1.000  O
  O2       1.0000 0.48740  0.41520  0.58292  Biso   1.000  O
  O3       1.0000 0.48740  0.08480  0.08292  Biso   1.000  O
  O4       1.0000 0.51260  0.58480  0.41708  Biso   1.000  O
  O5       1.0000 0.64400  0.85960  0.82484  Biso   1.000  O
  O6       1.0000 0.35600  0.35960  0.67516  Biso   1.000  O
  O7       1.0000 0.35600  0.14040  0.17516  Biso   1.000  O
  O8       1.0000 0.64400  0.64040  0.32484  Biso   1.000  O
  O9       1.0000 0.47380  0.71020  0.85330  Biso   1.000  O
  O10      1.0000 0.52620  0.21020  0.64670  Biso   1.000  O
  O11      1.0000 0.52620  0.28980  0.14670  Biso   1.000  O
  O12      1.0000 0.47380  0.78980  0.35330  Biso   1.000  O
  N25      1.0000 0.54350  0.82670  0.86402  Biso   1.000  N
  N26      1.0000 0.45650  0.32670  0.63598  Biso   1.000  N
  N27      1.0000 0.45650  0.17330  0.13598  Biso   1.000  N
  N28      1.0000 0.54350  0.67330  0.36402  Biso   1.000  N
