data_image0
_cell_length_a       21.906
_cell_length_b       36.602
_cell_length_c       6.9275
_cell_angle_alpha    90
_cell_angle_beta     90
_cell_angle_gamma    90

_symmetry_space_group_name_H-M    "P 1"
_symmetry_int_tables_number       1

loop_
  _symmetry_equiv_pos_as_xyz
  'x, y, z'

loop_
  _atom_site_label
  _atom_site_occupancy
  _atom_site_fract_x
  _atom_site_fract_y
  _atom_site_fract_z
  _atom_site_thermal_displace_type
  _atom_site_B_iso_or_equiv
  _atom_site_type_symbol
  Cu1      1.0000 0.20115  0.04404  0.00025  Biso   1.000  Cu
  Cu2      1.0000 0.79885  0.95596  0.00025  Biso   1.000  Cu
  Cu3      1.0000 0.04885  0.29404  0.25025  Biso   1.000  Cu
  Cu4      1.0000 0.45115  0.20596  0.25025  Biso   1.000  Cu
  Cu5      1.0000 0.20115  0.54404  0.50025  Biso   1.000  Cu
  Cu6      1.0000 0.79885  0.45596  0.50025  Biso   1.000  Cu
  Cu7      1.0000 0.04885  0.79404  0.75025  Biso   1.000  Cu
  Cu8      1.0000 0.45115  0.70596  0.75025  Biso   1.000  Cu
  Cu9      1.0000 0.70115  0.04404  0.50025  Biso   1.000  Cu
  Cu10     1.0000 0.29885  0.95596  0.50025  Biso   1.000  Cu
  Cu11     1.0000 0.54885  0.29404  0.75025  Biso   1.000  Cu
  Cu12     1.0000 0.95115  0.20596  0.75025  Biso   1.000  Cu
  Cu13     1.0000 0.70115  0.54404  0.00025  Biso   1.000  Cu
  Cu14     1.0000 0.29885  0.45596  0.00025  Biso   1.000  Cu
  Cu15     1.0000 0.54885  0.79404  0.25025  Biso   1.000  Cu
  Cu16     1.0000 0.95115  0.70596  0.25025  Biso   1.000  Cu
  O1       1.0000 0.16347  0.08002  0.83190  Biso   1.000  O
  O2       1.0000 0.83653  0.91998  0.83190  Biso   1.000  O
  O3       1.0000 0.08653  0.33002  0.08190  Biso   1.000  O
  O4       1.0000 0.41347  0.16998  0.08190  Biso   1.000  O
  O5       1.0000 0.16347  0.58002  0.33190  Biso   1.000  O
  O6       1.0000 0.83653  0.41998  0.33190  Biso   1.000  O
  O7       1.0000 0.08653  0.83002  0.58190  Biso   1.000  O
  O8       1.0000 0.41347  0.66998  0.58190  Biso   1.000  O
  O9       1.0000 0.66347  0.08002  0.33190  Biso   1.000  O
  O10      1.0000 0.33653  0.91998  0.33190  Biso   1.000  O
  O11      1.0000 0.58653  0.33002  0.58190  Biso   1.000  O
  O12      1.0000 0.91347  0.16998  0.58190  Biso   1.000  O
  O13      1.0000 0.66347  0.58002  0.83190  Biso   1.000  O
  O14      1.0000 0.33653  0.41998  0.83190  Biso   1.000  O
  O15      1.0000 0.58653  0.83002  0.08190  Biso   1.000  O
  O16      1.0000 0.91347  0.66998  0.08190  Biso   1.000  O
  O17      1.0000 0.08787  0.11984  0.79980  Biso   1.000  O
  O18      1.0000 0.91213  0.88016  0.79980  Biso   1.000  O
  O19      1.0000 0.16213  0.36984  0.04980  Biso   1.000  O
  O20      1.0000 0.33787  0.13016  0.04980  Biso   1.000  O
  O21      1.0000 0.08787  0.61984  0.29980  Biso   1.000  O
  O22      1.0000 0.91213  0.38016  0.29980  Biso   1.000  O
  O23      1.0000 0.16213  0.86984  0.54980  Biso   1.000  O
  O24      1.0000 0.33787  0.63016  0.54980  Biso   1.000  O
  O25      1.0000 0.58787  0.11984  0.29980  Biso   1.000  O
  O26      1.0000 0.41213  0.88016  0.29980  Biso   1.000  O
  O27      1.0000 0.66213  0.36984  0.54980  Biso   1.000  O
  O28      1.0000 0.83787  0.13016  0.54980  Biso   1.000  O
  O29      1.0000 0.58787  0.61984  0.79980  Biso   1.000  O
  O30      1.0000 0.41213  0.38016  0.79980  Biso   1.000  O
  O31      1.0000 0.66213  0.86984  0.04980  Biso   1.000  O
  O32      1.0000 0.83787  0.63016  0.04980  Biso   1.000  O
  O33      1.0000 0.23608  0.00771  0.17770  Biso   1.000  O
  O34      1.0000 0.76392  0.99229  0.17770  Biso   1.000  O
  O35      1.0000 0.01392  0.25771  0.42770  Biso   1.000  O
  O36      1.0000 0.48608  0.24229  0.42770  Biso   1.000  O
  O37      1.0000 0.23608  0.50771  0.67770  Biso   1.000  O
  O38      1.0000 0.76392  0.49229  0.67770  Biso   1.000  O
  O39      1.0000 0.01392  0.75771  0.92770  Biso   1.000  O
  O40      1.0000 0.48608  0.74229  0.92770  Biso   1.000  O
  O41      1.0000 0.73608  0.00771  0.67770  Biso   1.000  O
  O42      1.0000 0.26392  0.99229  0.67770  Biso   1.000  O
  O43      1.0000 0.51392  0.25771  0.92770  Biso   1.000  O
  O44      1.0000 0.98608  0.24229  0.92770  Biso   1.000  O
  O45      1.0000 0.73608  0.50771  0.17770  Biso   1.000  O
  O46      1.0000 0.26392  0.49229  0.17770  Biso   1.000  O
  O47      1.0000 0.51392  0.75771  0.42770  Biso   1.000  O
  O48      1.0000 0.98608  0.74229  0.42770  Biso   1.000  O
  O49      1.0000 0.23000  0.95370  0.32110  Biso   1.000  O
  O50      1.0000 0.77000  0.04630  0.32110  Biso   1.000  O
  O51      1.0000 0.02000  0.20370  0.57110  Biso   1.000  O
  O52      1.0000 0.48000  0.29630  0.57110  Biso   1.000  O
  O53      1.0000 0.23000  0.45370  0.82110  Biso   1.000  O
  O54      1.0000 0.77000  0.54630  0.82110  Biso   1.000  O
  O55      1.0000 0.02000  0.70370  0.07110  Biso   1.000  O
  O56      1.0000 0.48000  0.79630  0.07110  Biso   1.000  O
  O57      1.0000 0.73000  0.95370  0.82110  Biso   1.000  O
  O58      1.0000 0.27000  0.04630  0.82110  Biso   1.000  O
  O59      1.0000 0.52000  0.20370  0.07110  Biso   1.000  O
  O60      1.0000 0.98000  0.29630  0.07110  Biso   1.000  O
  O61      1.0000 0.73000  0.45370  0.32110  Biso   1.000  O
  O62      1.0000 0.27000  0.54630  0.32110  Biso   1.000  O
  O63      1.0000 0.52000  0.70370  0.57110  Biso   1.000  O
  O64      1.0000 0.98000  0.79630  0.57110  Biso   1.000  O
  O65      1.0000 0.25356  0.08555  0.20090  Biso   1.000  O
  O66      1.0000 0.74644  0.91445  0.20090  Biso   1.000  O
  O67      1.0000 0.99644  0.33555  0.45090  Biso   1.000  O
  O68      1.0000 0.50356  0.16445  0.45090  Biso   1.000  O
  O69      1.0000 0.25356  0.58555  0.70090  Biso   1.000  O
  O70      1.0000 0.74644  0.41445  0.70090  Biso   1.000  O
  O71      1.0000 0.99644  0.83555  0.95090  Biso   1.000  O
  O72      1.0000 0.50356  0.66445  0.95090  Biso   1.000  O
  O73      1.0000 0.75356  0.08555  0.70090  Biso   1.000  O
  O74      1.0000 0.24644  0.91445  0.70090  Biso   1.000  O
  O75      1.0000 0.49644  0.33555  0.95090  Biso   1.000  O
  O76      1.0000 0.00356  0.16445  0.95090  Biso   1.000  O
  O77      1.0000 0.75356  0.58555  0.20090  Biso   1.000  O
  O78      1.0000 0.24644  0.41445  0.20090  Biso   1.000  O
  O79      1.0000 0.49644  0.83555  0.45090  Biso   1.000  O
  O80      1.0000 0.00356  0.66445  0.45090  Biso   1.000  O
  O81      1.0000 0.06047  0.94840  0.54140  Biso   1.000  O
  O82      1.0000 0.93953  0.05160  0.54140  Biso   1.000  O
  O83      1.0000 0.18953  0.19840  0.79140  Biso   1.000  O
  O84      1.0000 0.31047  0.30160  0.79140  Biso   1.000  O
  O85      1.0000 0.06047  0.44840  0.04140  Biso   1.000  O
  O86      1.0000 0.93953  0.55160  0.04140  Biso   1.000  O
  O87      1.0000 0.18953  0.69840  0.29140  Biso   1.000  O
  O88      1.0000 0.31047  0.80160  0.29140  Biso   1.000  O
  O89      1.0000 0.56047  0.94840  0.04140  Biso   1.000  O
  O90      1.0000 0.43953  0.05160  0.04140  Biso   1.000  O
  O91      1.0000 0.68953  0.19840  0.29140  Biso   1.000  O
  O92      1.0000 0.81047  0.30160  0.29140  Biso   1.000  O
  O93      1.0000 0.56047  0.44840  0.54140  Biso   1.000  O
  O94      1.0000 0.43953  0.55160  0.54140  Biso   1.000  O
  O95      1.0000 0.68953  0.69840  0.79140  Biso   1.000  O
  O96      1.0000 0.81047  0.80160  0.79140  Biso   1.000  O
  O97      1.0000 0.04967  0.93593  0.85380  Biso   1.000  O
  O98      1.0000 0.95033  0.06407  0.85380  Biso   1.000  O
  O99      1.0000 0.20033  0.18593  0.10380  Biso   1.000  O
  O100     1.0000 0.29967  0.31407  0.10380  Biso   1.000  O
  O101     1.0000 0.04967  0.43593  0.35380  Biso   1.000  O
  O102     1.0000 0.95033  0.56407  0.35380  Biso   1.000  O
  O103     1.0000 0.20033  0.68593  0.60380  Biso   1.000  O
  O104     1.0000 0.29967  0.81407  0.60380  Biso   1.000  O
  O105     1.0000 0.54967  0.93593  0.35380  Biso   1.000  O
  O106     1.0000 0.45033  0.06407  0.35380  Biso   1.000  O
  O107     1.0000 0.70033  0.18593  0.60380  Biso   1.000  O
  O108     1.0000 0.79967  0.31407  0.60380  Biso   1.000  O
  O109     1.0000 0.54967  0.43593  0.85380  Biso   1.000  O
  O110     1.0000 0.45033  0.56407  0.85380  Biso   1.000  O
  O111     1.0000 0.70033  0.68593  0.10380  Biso   1.000  O
  O112     1.0000 0.79967  0.81407  0.10380  Biso   1.000  O
  N1       1.0000 0.13225  0.05922  0.19200  Biso   1.000  N
  N2       1.0000 0.86775  0.94078  0.19200  Biso   1.000  N
  N3       1.0000 0.11775  0.30922  0.44200  Biso   1.000  N
  N4       1.0000 0.38225  0.19078  0.44200  Biso   1.000  N
  N5       1.0000 0.13225  0.55922  0.69200  Biso   1.000  N
  N6       1.0000 0.86775  0.44078  0.69200  Biso   1.000  N
  N7       1.0000 0.11775  0.80922  0.94200  Biso   1.000  N
  N8       1.0000 0.38225  0.69078  0.94200  Biso   1.000  N
  N9       1.0000 0.63225  0.05922  0.69200  Biso   1.000  N
  N10      1.0000 0.36775  0.94078  0.69200  Biso   1.000  N
  N11      1.0000 0.61775  0.30922  0.94200  Biso   1.000  N
  N12      1.0000 0.88225  0.19078  0.94200  Biso   1.000  N
  N13      1.0000 0.63225  0.55922  0.19200  Biso   1.000  N
  N14      1.0000 0.36775  0.44078  0.19200  Biso   1.000  N
  N15      1.0000 0.61775  0.80922  0.44200  Biso   1.000  N
  N16      1.0000 0.88225  0.69078  0.44200  Biso   1.000  N
  N17      1.0000 0.13256  0.99241  0.95750  Biso   1.000  N
  N18      1.0000 0.86744  0.00759  0.95750  Biso   1.000  N
  N19      1.0000 0.11744  0.24241  0.20750  Biso   1.000  N
  N20      1.0000 0.38256  0.25759  0.20750  Biso   1.000  N
  N21      1.0000 0.13256  0.49241  0.45750  Biso   1.000  N
  N22      1.0000 0.86744  0.50759  0.45750  Biso   1.000  N
  N23      1.0000 0.11744  0.74241  0.70750  Biso   1.000  N
  N24      1.0000 0.38256  0.75759  0.70750  Biso   1.000  N
  N25      1.0000 0.63256  0.99241  0.45750  Biso   1.000  N
  N26      1.0000 0.36744  0.00759  0.45750  Biso   1.000  N
  N27      1.0000 0.61744  0.24241  0.70750  Biso   1.000  N
  N28      1.0000 0.88256  0.25759  0.70750  Biso   1.000  N
  N29      1.0000 0.63256  0.49241  0.95750  Biso   1.000  N
  N30      1.0000 0.36744  0.50759  0.95750  Biso   1.000  N
  N31      1.0000 0.61744  0.74241  0.20750  Biso   1.000  N
  N32      1.0000 0.88256  0.75759  0.20750  Biso   1.000  N
  C1       1.0000 0.09593  0.02651  0.24420  Biso   1.000  C
  C2       1.0000 0.90407  0.97349  0.24420  Biso   1.000  C
  C3       1.0000 0.15407  0.27651  0.49420  Biso   1.000  C
  C4       1.0000 0.34593  0.22349  0.49420  Biso   1.000  C
  C5       1.0000 0.09593  0.52651  0.74420  Biso   1.000  C
  C6       1.0000 0.90407  0.47349  0.74420  Biso   1.000  C
  C7       1.0000 0.15407  0.77651  0.99420  Biso   1.000  C
  C8       1.0000 0.34593  0.72349  0.99420  Biso   1.000  C
  C9       1.0000 0.59593  0.02651  0.74420  Biso   1.000  C
  C10      1.0000 0.40407  0.97349  0.74420  Biso   1.000  C
  C11      1.0000 0.65407  0.27651  0.99420  Biso   1.000  C
  C12      1.0000 0.84593  0.22349  0.99420  Biso   1.000  C
  C13      1.0000 0.59593  0.52651  0.24420  Biso   1.000  C
  C14      1.0000 0.40407  0.47349  0.24420  Biso   1.000  C
  C15      1.0000 0.65407  0.77651  0.49420  Biso   1.000  C
  C16      1.0000 0.84593  0.72349  0.49420  Biso   1.000  C
  C17      1.0000 0.07884  0.00434  0.06940  Biso   1.000  C
  C18      1.0000 0.92116  0.99566  0.06940  Biso   1.000  C
  C19      1.0000 0.17116  0.25434  0.31940  Biso   1.000  C
  C20      1.0000 0.32884  0.24566  0.31940  Biso   1.000  C
  C21      1.0000 0.07884  0.50434  0.56940  Biso   1.000  C
  C22      1.0000 0.92116  0.49566  0.56940  Biso   1.000  C
  C23      1.0000 0.17116  0.75434  0.81940  Biso   1.000  C
  C24      1.0000 0.32884  0.74566  0.81940  Biso   1.000  C
  C25      1.0000 0.57884  0.00434  0.56940  Biso   1.000  C
  C26      1.0000 0.42116  0.99566  0.56940  Biso   1.000  C
  C27      1.0000 0.67116  0.25434  0.81940  Biso   1.000  C
  C28      1.0000 0.82884  0.24566  0.81940  Biso   1.000  C
  C29      1.0000 0.57884  0.50434  0.06940  Biso   1.000  C
  C30      1.0000 0.42116  0.49566  0.06940  Biso   1.000  C
  C31      1.0000 0.67116  0.75434  0.31940  Biso   1.000  C
  C32      1.0000 0.82884  0.74566  0.31940  Biso   1.000  C
  C33      1.0000 0.09335  0.08691  0.09240  Biso   1.000  C
  C34      1.0000 0.90665  0.91309  0.09240  Biso   1.000  C
  C35      1.0000 0.15665  0.33691  0.34240  Biso   1.000  C
  C36      1.0000 0.34335  0.16309  0.34240  Biso   1.000  C
  C37      1.0000 0.09335  0.58691  0.59240  Biso   1.000  C
  C38      1.0000 0.90665  0.41309  0.59240  Biso   1.000  C
  C39      1.0000 0.15665  0.83691  0.84240  Biso   1.000  C
  C40      1.0000 0.34335  0.66309  0.84240  Biso   1.000  C
  C41      1.0000 0.59335  0.08691  0.59240  Biso   1.000  C
  C42      1.0000 0.40665  0.91309  0.59240  Biso   1.000  C
  C43      1.0000 0.65665  0.33691  0.84240  Biso   1.000  C
  C44      1.0000 0.84335  0.16309  0.84240  Biso   1.000  C
  C45      1.0000 0.59335  0.58691  0.09240  Biso   1.000  C
  C46      1.0000 0.40665  0.41309  0.09240  Biso   1.000  C
  C47      1.0000 0.65665  0.83691  0.34240  Biso   1.000  C
  C48      1.0000 0.84335  0.66309  0.34240  Biso   1.000  C
  C49      1.0000 0.11585  0.09652  0.89460  Biso   1.000  C
  C50      1.0000 0.88415  0.90348  0.89460  Biso   1.000  C
  C51      1.0000 0.13415  0.34652  0.14460  Biso   1.000  C
  C52      1.0000 0.36585  0.15348  0.14460  Biso   1.000  C
  C53      1.0000 0.11585  0.59652  0.39460  Biso   1.000  C
  C54      1.0000 0.88415  0.40348  0.39460  Biso   1.000  C
  C55      1.0000 0.13415  0.84652  0.64460  Biso   1.000  C
  C56      1.0000 0.36585  0.65348  0.64460  Biso   1.000  C
  C57      1.0000 0.61585  0.09652  0.39460  Biso   1.000  C
  C58      1.0000 0.38415  0.90348  0.39460  Biso   1.000  C
  C59      1.0000 0.63415  0.34652  0.64460  Biso   1.000  C
  C60      1.0000 0.86585  0.15348  0.64460  Biso   1.000  C
  C61      1.0000 0.61585  0.59652  0.89460  Biso   1.000  C
  C62      1.0000 0.38415  0.40348  0.89460  Biso   1.000  C
  C63      1.0000 0.63415  0.84652  0.14460  Biso   1.000  C
  C64      1.0000 0.86585  0.65348  0.14460  Biso   1.000  C
  C65      1.0000 0.16570  0.96271  0.05450  Biso   1.000  C
  C66      1.0000 0.83430  0.03729  0.05450  Biso   1.000  C
  C67      1.0000 0.08430  0.21271  0.30450  Biso   1.000  C
  C68      1.0000 0.41570  0.28729  0.30450  Biso   1.000  C
  C69      1.0000 0.16570  0.46271  0.55450  Biso   1.000  C
  C70      1.0000 0.83430  0.53729  0.55450  Biso   1.000  C
  C71      1.0000 0.08430  0.71271  0.80450  Biso   1.000  C
  C72      1.0000 0.41570  0.78729  0.80450  Biso   1.000  C
  C73      1.0000 0.66570  0.96271  0.55450  Biso   1.000  C
  C74      1.0000 0.33430  0.03729  0.55450  Biso   1.000  C
  C75      1.0000 0.58430  0.21271  0.80450  Biso   1.000  C
  C76      1.0000 0.91570  0.28729  0.80450  Biso   1.000  C
  C77      1.0000 0.66570  0.46271  0.05450  Biso   1.000  C
  C78      1.0000 0.33430  0.53729  0.05450  Biso   1.000  C
  C79      1.0000 0.58430  0.71271  0.30450  Biso   1.000  C
  C80      1.0000 0.91570  0.78729  0.30450  Biso   1.000  C
  C81      1.0000 0.21361  0.97614  0.19610  Biso   1.000  C
  C82      1.0000 0.78639  0.02386  0.19610  Biso   1.000  C
  C83      1.0000 0.03639  0.22614  0.44610  Biso   1.000  C
  C84      1.0000 0.46361  0.27386  0.44610  Biso   1.000  C
  C85      1.0000 0.21361  0.47614  0.69610  Biso   1.000  C
  C86      1.0000 0.78639  0.52386  0.69610  Biso   1.000  C
  C87      1.0000 0.03639  0.72614  0.94610  Biso   1.000  C
  C88      1.0000 0.46361  0.77386  0.94610  Biso   1.000  C
  C89      1.0000 0.71361  0.97614  0.69610  Biso   1.000  C
  C90      1.0000 0.28639  0.02386  0.69610  Biso   1.000  C
  C91      1.0000 0.53639  0.22614  0.94610  Biso   1.000  C
  C92      1.0000 0.96361  0.27386  0.94610  Biso   1.000  C
  C93      1.0000 0.71361  0.47614  0.19610  Biso   1.000  C
  C94      1.0000 0.28639  0.52386  0.19610  Biso   1.000  C
  C95      1.0000 0.53639  0.72614  0.44610  Biso   1.000  C
  C96      1.0000 0.96361  0.77386  0.44610  Biso   1.000  C
  C97      1.0000 0.16130  0.07493  0.36500  Biso   1.000  C
  C98      1.0000 0.83870  0.92507  0.36500  Biso   1.000  C
  C99      1.0000 0.08870  0.32493  0.61500  Biso   1.000  C
  C100     1.0000 0.41130  0.17507  0.61500  Biso   1.000  C
  C101     1.0000 0.16130  0.57493  0.86500  Biso   1.000  C
  C102     1.0000 0.83870  0.42507  0.86500  Biso   1.000  C
  C103     1.0000 0.08870  0.82493  0.11500  Biso   1.000  C
  C104     1.0000 0.41130  0.67507  0.11500  Biso   1.000  C
  C105     1.0000 0.66130  0.07493  0.86500  Biso   1.000  C
  C106     1.0000 0.33870  0.92507  0.86500  Biso   1.000  C
  C107     1.0000 0.58870  0.32493  0.11500  Biso   1.000  C
  C108     1.0000 0.91130  0.17507  0.11500  Biso   1.000  C
  C109     1.0000 0.66130  0.57493  0.36500  Biso   1.000  C
  C110     1.0000 0.33870  0.42507  0.36500  Biso   1.000  C
  C111     1.0000 0.58870  0.82493  0.61500  Biso   1.000  C
  C112     1.0000 0.91130  0.67507  0.61500  Biso   1.000  C
  C113     1.0000 0.20850  0.10309  0.31490  Biso   1.000  C
  C114     1.0000 0.79150  0.89691  0.31490  Biso   1.000  C
  C115     1.0000 0.04150  0.35309  0.56490  Biso   1.000  C
  C116     1.0000 0.45850  0.14691  0.56490  Biso   1.000  C
  C117     1.0000 0.20850  0.60309  0.81490  Biso   1.000  C
  C118     1.0000 0.79150  0.39691  0.81490  Biso   1.000  C
  C119     1.0000 0.04150  0.85309  0.06490  Biso   1.000  C
  C120     1.0000 0.45850  0.64691  0.06490  Biso   1.000  C
  C121     1.0000 0.70850  0.10309  0.81490  Biso   1.000  C
  C122     1.0000 0.29150  0.89691  0.81490  Biso   1.000  C
  C123     1.0000 0.54150  0.35309  0.06490  Biso   1.000  C
  C124     1.0000 0.95850  0.14691  0.06490  Biso   1.000  C
  C125     1.0000 0.70850  0.60309  0.31490  Biso   1.000  C
  C126     1.0000 0.29150  0.39691  0.31490  Biso   1.000  C
  C127     1.0000 0.54150  0.85309  0.56490  Biso   1.000  C
  C128     1.0000 0.95850  0.64691  0.56490  Biso   1.000  C
  C129     1.0000 0.11790  0.98437  0.75620  Biso   1.000  C
  C130     1.0000 0.88210  0.01563  0.75620  Biso   1.000  C
  C131     1.0000 0.13210  0.23437  0.00620  Biso   1.000  C
  C132     1.0000 0.36790  0.26563  0.00620  Biso   1.000  C
  C133     1.0000 0.11790  0.48437  0.25620  Biso   1.000  C
  C134     1.0000 0.88210  0.51563  0.25620  Biso   1.000  C
  C135     1.0000 0.13210  0.73437  0.50620  Biso   1.000  C
  C136     1.0000 0.36790  0.76563  0.50620  Biso   1.000  C
  C137     1.0000 0.61790  0.98437  0.25620  Biso   1.000  C
  C138     1.0000 0.38210  0.01563  0.25620  Biso   1.000  C
  C139     1.0000 0.63210  0.23437  0.50620  Biso   1.000  C
  C140     1.0000 0.86790  0.26563  0.50620  Biso   1.000  C
  C141     1.0000 0.61790  0.48437  0.75620  Biso   1.000  C
  C142     1.0000 0.38210  0.51563  0.75620  Biso   1.000  C
  C143     1.0000 0.63210  0.73437  0.00620  Biso   1.000  C
  C144     1.0000 0.86790  0.76563  0.00620  Biso   1.000  C
  C145     1.0000 0.07244  0.95339  0.72520  Biso   1.000  C
  C146     1.0000 0.92756  0.04661  0.72520  Biso   1.000  C
  C147     1.0000 0.17756  0.20339  0.97520  Biso   1.000  C
  C148     1.0000 0.32244  0.29661  0.97520  Biso   1.000  C
  C149     1.0000 0.07244  0.45339  0.22520  Biso   1.000  C
  C150     1.0000 0.92756  0.54661  0.22520  Biso   1.000  C
  C151     1.0000 0.17756  0.70339  0.47520  Biso   1.000  C
  C152     1.0000 0.32244  0.79661  0.47520  Biso   1.000  C
  C153     1.0000 0.57244  0.95339  0.22520  Biso   1.000  C
  C154     1.0000 0.42756  0.04661  0.22520  Biso   1.000  C
  C155     1.0000 0.67756  0.20339  0.47520  Biso   1.000  C
  C156     1.0000 0.82244  0.29661  0.47520  Biso   1.000  C
  C157     1.0000 0.57244  0.45339  0.72520  Biso   1.000  C
  C158     1.0000 0.42756  0.54661  0.72520  Biso   1.000  C
  C159     1.0000 0.67756  0.70339  0.97520  Biso   1.000  C
  C160     1.0000 0.82244  0.79661  0.97520  Biso   1.000  C
  H1       1.0000 0.11900  0.01220  0.31800  Biso   1.000  H
  H2       1.0000 0.88100  0.98780  0.31800  Biso   1.000  H
  H3       1.0000 0.13100  0.26220  0.56800  Biso   1.000  H
  H4       1.0000 0.36900  0.23780  0.56800  Biso   1.000  H
  H5       1.0000 0.11900  0.51220  0.81800  Biso   1.000  H
  H6       1.0000 0.88100  0.48780  0.81800  Biso   1.000  H
  H7       1.0000 0.13100  0.76220  0.06800  Biso   1.000  H
  H8       1.0000 0.36900  0.73780  0.06800  Biso   1.000  H
  H9       1.0000 0.61900  0.01220  0.81800  Biso   1.000  H
  H10      1.0000 0.38100  0.98780  0.81800  Biso   1.000  H
  H11      1.0000 0.63100  0.26220  0.06800  Biso   1.000  H
  H12      1.0000 0.86900  0.23780  0.06800  Biso   1.000  H
  H13      1.0000 0.61900  0.51220  0.31800  Biso   1.000  H
  H14      1.0000 0.38100  0.48780  0.31800  Biso   1.000  H
  H15      1.0000 0.63100  0.76220  0.56800  Biso   1.000  H
  H16      1.0000 0.86900  0.73780  0.56800  Biso   1.000  H
  H17      1.0000 0.05150  0.03380  0.30200  Biso   1.000  H
  H18      1.0000 0.94850  0.96620  0.30200  Biso   1.000  H
  H19      1.0000 0.19850  0.28380  0.55200  Biso   1.000  H
  H20      1.0000 0.30150  0.21620  0.55200  Biso   1.000  H
  H21      1.0000 0.05150  0.53380  0.80200  Biso   1.000  H
  H22      1.0000 0.94850  0.46620  0.80200  Biso   1.000  H
  H23      1.0000 0.19850  0.78380  0.05200  Biso   1.000  H
  H24      1.0000 0.30150  0.71620  0.05200  Biso   1.000  H
  H25      1.0000 0.55150  0.03380  0.80200  Biso   1.000  H
  H26      1.0000 0.44850  0.96620  0.80200  Biso   1.000  H
  H27      1.0000 0.69850  0.28380  0.05200  Biso   1.000  H
  H28      1.0000 0.80150  0.21620  0.05200  Biso   1.000  H
  H29      1.0000 0.55150  0.53380  0.30200  Biso   1.000  H
  H30      1.0000 0.44850  0.46620  0.30200  Biso   1.000  H
  H31      1.0000 0.69850  0.78380  0.55200  Biso   1.000  H
  H32      1.0000 0.80150  0.71620  0.55200  Biso   1.000  H
  H33      1.0000 0.05500  0.01810  0.96700  Biso   1.000  H
  H34      1.0000 0.94500  0.98190  0.96700  Biso   1.000  H
  H35      1.0000 0.19500  0.26810  0.21700  Biso   1.000  H
  H36      1.0000 0.30500  0.23190  0.21700  Biso   1.000  H
  H37      1.0000 0.05500  0.51810  0.46700  Biso   1.000  H
  H38      1.0000 0.94500  0.48190  0.46700  Biso   1.000  H
  H39      1.0000 0.19500  0.76810  0.71700  Biso   1.000  H
  H40      1.0000 0.30500  0.73190  0.71700  Biso   1.000  H
  H41      1.0000 0.55500  0.01810  0.46700  Biso   1.000  H
  H42      1.0000 0.44500  0.98190  0.46700  Biso   1.000  H
  H43      1.0000 0.69500  0.26810  0.71700  Biso   1.000  H
  H44      1.0000 0.80500  0.23190  0.71700  Biso   1.000  H
  H45      1.0000 0.55500  0.51810  0.96700  Biso   1.000  H
  H46      1.0000 0.44500  0.48190  0.96700  Biso   1.000  H
  H47      1.0000 0.69500  0.76810  0.21700  Biso   1.000  H
  H48      1.0000 0.80500  0.73190  0.21700  Biso   1.000  H
  H49      1.0000 0.05300  0.98290  0.11900  Biso   1.000  H
  H50      1.0000 0.94700  0.01710  0.11900  Biso   1.000  H
  H51      1.0000 0.19700  0.23290  0.36900  Biso   1.000  H
  H52      1.0000 0.30300  0.26710  0.36900  Biso   1.000  H
  H53      1.0000 0.05300  0.48290  0.61900  Biso   1.000  H
  H54      1.0000 0.94700  0.51710  0.61900  Biso   1.000  H
  H55      1.0000 0.19700  0.73290  0.86900  Biso   1.000  H
  H56      1.0000 0.30300  0.76710  0.86900  Biso   1.000  H
  H57      1.0000 0.55300  0.98290  0.61900  Biso   1.000  H
  H58      1.0000 0.44700  0.01710  0.61900  Biso   1.000  H
  H59      1.0000 0.69700  0.23290  0.86900  Biso   1.000  H
  H60      1.0000 0.80300  0.26710  0.86900  Biso   1.000  H
  H61      1.0000 0.55300  0.48290  0.11900  Biso   1.000  H
  H62      1.0000 0.44700  0.51710  0.11900  Biso   1.000  H
  H63      1.0000 0.69700  0.73290  0.36900  Biso   1.000  H
  H64      1.0000 0.80300  0.76710  0.36900  Biso   1.000  H
  H65      1.0000 0.05100  0.07880  0.08500  Biso   1.000  H
  H66      1.0000 0.94900  0.92120  0.08500  Biso   1.000  H
  H67      1.0000 0.19900  0.32880  0.33500  Biso   1.000  H
  H68      1.0000 0.30100  0.17120  0.33500  Biso   1.000  H
  H69      1.0000 0.05100  0.57880  0.58500  Biso   1.000  H
  H70      1.0000 0.94900  0.42120  0.58500  Biso   1.000  H
  H71      1.0000 0.19900  0.82880  0.83500  Biso   1.000  H
  H72      1.0000 0.30100  0.67120  0.83500  Biso   1.000  H
  H73      1.0000 0.55100  0.07880  0.58500  Biso   1.000  H
  H74      1.0000 0.44900  0.92120  0.58500  Biso   1.000  H
  H75      1.0000 0.69900  0.32880  0.83500  Biso   1.000  H
  H76      1.0000 0.80100  0.17120  0.83500  Biso   1.000  H
  H77      1.0000 0.55100  0.57880  0.08500  Biso   1.000  H
  H78      1.0000 0.44900  0.42120  0.08500  Biso   1.000  H
  H79      1.0000 0.69900  0.82880  0.33500  Biso   1.000  H
  H80      1.0000 0.80100  0.67120  0.33500  Biso   1.000  H
  H81      1.0000 0.09100  0.10990  0.16000  Biso   1.000  H
  H82      1.0000 0.90900  0.89010  0.16000  Biso   1.000  H
  H83      1.0000 0.15900  0.35990  0.41000  Biso   1.000  H
  H84      1.0000 0.34100  0.14010  0.41000  Biso   1.000  H
  H85      1.0000 0.09100  0.60990  0.66000  Biso   1.000  H
  H86      1.0000 0.90900  0.39010  0.66000  Biso   1.000  H
  H87      1.0000 0.15900  0.85990  0.91000  Biso   1.000  H
  H88      1.0000 0.34100  0.64010  0.91000  Biso   1.000  H
  H89      1.0000 0.59100  0.10990  0.66000  Biso   1.000  H
  H90      1.0000 0.40900  0.89010  0.66000  Biso   1.000  H
  H91      1.0000 0.65900  0.35990  0.91000  Biso   1.000  H
  H92      1.0000 0.84100  0.14010  0.91000  Biso   1.000  H
  H93      1.0000 0.59100  0.60990  0.16000  Biso   1.000  H
  H94      1.0000 0.40900  0.39010  0.16000  Biso   1.000  H
  H95      1.0000 0.65900  0.85990  0.41000  Biso   1.000  H
  H96      1.0000 0.84100  0.64010  0.41000  Biso   1.000  H
  H97      1.0000 0.18700  0.94950  0.95900  Biso   1.000  H
  H98      1.0000 0.81300  0.05050  0.95900  Biso   1.000  H
  H99      1.0000 0.06300  0.19950  0.20900  Biso   1.000  H
  H100     1.0000 0.43700  0.30050  0.20900  Biso   1.000  H
  H101     1.0000 0.18700  0.44950  0.45900  Biso   1.000  H
  H102     1.0000 0.81300  0.55050  0.45900  Biso   1.000  H
  H103     1.0000 0.06300  0.69950  0.70900  Biso   1.000  H
  H104     1.0000 0.43700  0.80050  0.70900  Biso   1.000  H
  H105     1.0000 0.68700  0.94950  0.45900  Biso   1.000  H
  H106     1.0000 0.31300  0.05050  0.45900  Biso   1.000  H
  H107     1.0000 0.56300  0.19950  0.70900  Biso   1.000  H
  H108     1.0000 0.93700  0.30050  0.70900  Biso   1.000  H
  H109     1.0000 0.68700  0.44950  0.95900  Biso   1.000  H
  H110     1.0000 0.31300  0.55050  0.95900  Biso   1.000  H
  H111     1.0000 0.56300  0.69950  0.20900  Biso   1.000  H
  H112     1.0000 0.93700  0.80050  0.20900  Biso   1.000  H
  H113     1.0000 0.13600  0.94610  0.14100  Biso   1.000  H
  H114     1.0000 0.86400  0.05390  0.14100  Biso   1.000  H
  H115     1.0000 0.11400  0.19610  0.39100  Biso   1.000  H
  H116     1.0000 0.38600  0.30390  0.39100  Biso   1.000  H
  H117     1.0000 0.13600  0.44610  0.64100  Biso   1.000  H
  H118     1.0000 0.86400  0.55390  0.64100  Biso   1.000  H
  H119     1.0000 0.11400  0.69610  0.89100  Biso   1.000  H
  H120     1.0000 0.38600  0.80390  0.89100  Biso   1.000  H
  H121     1.0000 0.63600  0.94610  0.64100  Biso   1.000  H
  H122     1.0000 0.36400  0.05390  0.64100  Biso   1.000  H
  H123     1.0000 0.61400  0.19610  0.89100  Biso   1.000  H
  H124     1.0000 0.88600  0.30390  0.89100  Biso   1.000  H
  H125     1.0000 0.63600  0.44610  0.14100  Biso   1.000  H
  H126     1.0000 0.36400  0.55390  0.14100  Biso   1.000  H
  H127     1.0000 0.61400  0.69610  0.39100  Biso   1.000  H
  H128     1.0000 0.88600  0.80390  0.39100  Biso   1.000  H
  H129     1.0000 0.27200  0.09970  0.17300  Biso   1.000  H
  H130     1.0000 0.72800  0.90030  0.17300  Biso   1.000  H
  H131     1.0000 0.97800  0.34970  0.42300  Biso   1.000  H
  H132     1.0000 0.52200  0.15030  0.42300  Biso   1.000  H
  H133     1.0000 0.27200  0.59970  0.67300  Biso   1.000  H
  H134     1.0000 0.72800  0.40030  0.67300  Biso   1.000  H
  H135     1.0000 0.97800  0.84970  0.92300  Biso   1.000  H
  H136     1.0000 0.52200  0.65030  0.92300  Biso   1.000  H
  H137     1.0000 0.77200  0.09970  0.67300  Biso   1.000  H
  H138     1.0000 0.22800  0.90030  0.67300  Biso   1.000  H
  H139     1.0000 0.47800  0.34970  0.92300  Biso   1.000  H
  H140     1.0000 0.02200  0.15030  0.92300  Biso   1.000  H
  H141     1.0000 0.77200  0.59970  0.17300  Biso   1.000  H
  H142     1.0000 0.22800  0.40030  0.17300  Biso   1.000  H
  H143     1.0000 0.47800  0.84970  0.42300  Biso   1.000  H
  H144     1.0000 0.02200  0.65030  0.42300  Biso   1.000  H
  H145     1.0000 0.13500  0.08480  0.45000  Biso   1.000  H
  H146     1.0000 0.86500  0.91520  0.45000  Biso   1.000  H
  H147     1.0000 0.11500  0.33480  0.70000  Biso   1.000  H
  H148     1.0000 0.38500  0.16520  0.70000  Biso   1.000  H
  H149     1.0000 0.13500  0.58480  0.95000  Biso   1.000  H
  H150     1.0000 0.86500  0.41520  0.95000  Biso   1.000  H
  H151     1.0000 0.11500  0.83480  0.20000  Biso   1.000  H
  H152     1.0000 0.38500  0.66520  0.20000  Biso   1.000  H
  H153     1.0000 0.63500  0.08480  0.95000  Biso   1.000  H
  H154     1.0000 0.36500  0.91520  0.95000  Biso   1.000  H
  H155     1.0000 0.61500  0.33480  0.20000  Biso   1.000  H
  H156     1.0000 0.88500  0.16520  0.20000  Biso   1.000  H
  H157     1.0000 0.63500  0.58480  0.45000  Biso   1.000  H
  H158     1.0000 0.36500  0.41520  0.45000  Biso   1.000  H
  H159     1.0000 0.61500  0.83480  0.70000  Biso   1.000  H
  H160     1.0000 0.88500  0.66520  0.70000  Biso   1.000  H
  H161     1.0000 0.17600  0.05570  0.44700  Biso   1.000  H
  H162     1.0000 0.82400  0.94430  0.44700  Biso   1.000  H
  H163     1.0000 0.07400  0.30570  0.69700  Biso   1.000  H
  H164     1.0000 0.42600  0.19430  0.69700  Biso   1.000  H
  H165     1.0000 0.17600  0.55570  0.94700  Biso   1.000  H
  H166     1.0000 0.82400  0.44430  0.94700  Biso   1.000  H
  H167     1.0000 0.07400  0.80570  0.19700  Biso   1.000  H
  H168     1.0000 0.42600  0.69430  0.19700  Biso   1.000  H
  H169     1.0000 0.67600  0.05570  0.94700  Biso   1.000  H
  H170     1.0000 0.32400  0.94430  0.94700  Biso   1.000  H
  H171     1.0000 0.57400  0.30570  0.19700  Biso   1.000  H
  H172     1.0000 0.92600  0.19430  0.19700  Biso   1.000  H
  H173     1.0000 0.67600  0.55570  0.44700  Biso   1.000  H
  H174     1.0000 0.32400  0.44430  0.44700  Biso   1.000  H
  H175     1.0000 0.57400  0.80570  0.69700  Biso   1.000  H
  H176     1.0000 0.92600  0.69430  0.69700  Biso   1.000  H
  H177     1.0000 0.19200  0.12410  0.23700  Biso   1.000  H
  H178     1.0000 0.80800  0.87590  0.23700  Biso   1.000  H
  H179     1.0000 0.05800  0.37410  0.48700  Biso   1.000  H
  H180     1.0000 0.44200  0.12590  0.48700  Biso   1.000  H
  H181     1.0000 0.19200  0.62410  0.73700  Biso   1.000  H
  H182     1.0000 0.80800  0.37590  0.73700  Biso   1.000  H
  H183     1.0000 0.05800  0.87410  0.98700  Biso   1.000  H
  H184     1.0000 0.44200  0.62590  0.98700  Biso   1.000  H
  H185     1.0000 0.69200  0.12410  0.73700  Biso   1.000  H
  H186     1.0000 0.30800  0.87590  0.73700  Biso   1.000  H
  H187     1.0000 0.55800  0.37410  0.98700  Biso   1.000  H
  H188     1.0000 0.94200  0.12590  0.98700  Biso   1.000  H
  H189     1.0000 0.69200  0.62410  0.23700  Biso   1.000  H
  H190     1.0000 0.30800  0.37590  0.23700  Biso   1.000  H
  H191     1.0000 0.55800  0.87410  0.48700  Biso   1.000  H
  H192     1.0000 0.94200  0.62590  0.48700  Biso   1.000  H
  H193     1.0000 0.22700  0.11330  0.43600  Biso   1.000  H
  H194     1.0000 0.77300  0.88670  0.43600  Biso   1.000  H
  H195     1.0000 0.02300  0.36330  0.68600  Biso   1.000  H
  H196     1.0000 0.47700  0.13670  0.68600  Biso   1.000  H
  H197     1.0000 0.22700  0.61330  0.93600  Biso   1.000  H
  H198     1.0000 0.77300  0.38670  0.93600  Biso   1.000  H
  H199     1.0000 0.02300  0.86330  0.18600  Biso   1.000  H
  H200     1.0000 0.47700  0.63670  0.18600  Biso   1.000  H
  H201     1.0000 0.72700  0.11330  0.93600  Biso   1.000  H
  H202     1.0000 0.27300  0.88670  0.93600  Biso   1.000  H
  H203     1.0000 0.52300  0.36330  0.18600  Biso   1.000  H
  H204     1.0000 0.97700  0.13670  0.18600  Biso   1.000  H
  H205     1.0000 0.72700  0.61330  0.43600  Biso   1.000  H
  H206     1.0000 0.27300  0.38670  0.43600  Biso   1.000  H
  H207     1.0000 0.52300  0.86330  0.68600  Biso   1.000  H
  H208     1.0000 0.97700  0.63670  0.68600  Biso   1.000  H
  H209     1.0000 0.03700  0.93030  0.53000  Biso   1.000  H
  H210     1.0000 0.96300  0.06970  0.53000  Biso   1.000  H
  H211     1.0000 0.21300  0.18030  0.78000  Biso   1.000  H
  H212     1.0000 0.28700  0.31970  0.78000  Biso   1.000  H
  H213     1.0000 0.03700  0.43030  0.03000  Biso   1.000  H
  H214     1.0000 0.96300  0.56970  0.03000  Biso   1.000  H
  H215     1.0000 0.21300  0.68030  0.28000  Biso   1.000  H
  H216     1.0000 0.28700  0.81970  0.28000  Biso   1.000  H
  H217     1.0000 0.53700  0.93030  0.03000  Biso   1.000  H
  H218     1.0000 0.46300  0.06970  0.03000  Biso   1.000  H
  H219     1.0000 0.71300  0.18030  0.28000  Biso   1.000  H
  H220     1.0000 0.78700  0.31970  0.28000  Biso   1.000  H
  H221     1.0000 0.53700  0.43030  0.53000  Biso   1.000  H
  H222     1.0000 0.46300  0.56970  0.53000  Biso   1.000  H
  H223     1.0000 0.71300  0.68030  0.78000  Biso   1.000  H
  H224     1.0000 0.78700  0.81970  0.78000  Biso   1.000  H
  H225     1.0000 0.10300  0.00620  0.69300  Biso   1.000  H
  H226     1.0000 0.89700  0.99380  0.69300  Biso   1.000  H
  H227     1.0000 0.14700  0.25620  0.94300  Biso   1.000  H
  H228     1.0000 0.35300  0.24380  0.94300  Biso   1.000  H
  H229     1.0000 0.10300  0.50620  0.19300  Biso   1.000  H
  H230     1.0000 0.89700  0.49380  0.19300  Biso   1.000  H
  H231     1.0000 0.14700  0.75620  0.44300  Biso   1.000  H
  H232     1.0000 0.35300  0.74380  0.44300  Biso   1.000  H
  H233     1.0000 0.60300  0.00620  0.19300  Biso   1.000  H
  H234     1.0000 0.39700  0.99380  0.19300  Biso   1.000  H
  H235     1.0000 0.64700  0.25620  0.44300  Biso   1.000  H
  H236     1.0000 0.85300  0.24380  0.44300  Biso   1.000  H
  H237     1.0000 0.60300  0.50620  0.69300  Biso   1.000  H
  H238     1.0000 0.39700  0.49380  0.69300  Biso   1.000  H
  H239     1.0000 0.64700  0.75620  0.94300  Biso   1.000  H
  H240     1.0000 0.85300  0.74380  0.94300  Biso   1.000  H
  H241     1.0000 0.15200  0.97900  0.70000  Biso   1.000  H
  H242     1.0000 0.84800  0.02100  0.70000  Biso   1.000  H
  H243     1.0000 0.09800  0.22900  0.95000  Biso   1.000  H
  H244     1.0000 0.40200  0.27100  0.95000  Biso   1.000  H
  H245     1.0000 0.15200  0.47900  0.20000  Biso   1.000  H
  H246     1.0000 0.84800  0.52100  0.20000  Biso   1.000  H
  H247     1.0000 0.09800  0.72900  0.45000  Biso   1.000  H
  H248     1.0000 0.40200  0.77100  0.45000  Biso   1.000  H
  H249     1.0000 0.65200  0.97900  0.20000  Biso   1.000  H
  H250     1.0000 0.34800  0.02100  0.20000  Biso   1.000  H
  H251     1.0000 0.59800  0.22900  0.45000  Biso   1.000  H
  H252     1.0000 0.90200  0.27100  0.45000  Biso   1.000  H
  H253     1.0000 0.65200  0.47900  0.70000  Biso   1.000  H
  H254     1.0000 0.34800  0.52100  0.70000  Biso   1.000  H
  H255     1.0000 0.59800  0.72900  0.95000  Biso   1.000  H
  H256     1.0000 0.90200  0.77100  0.95000  Biso   1.000  H
  O113     1.0000 0.00457  0.11214  0.49840  Biso   1.000  O
  O114     1.0000 0.99543  0.88786  0.49840  Biso   1.000  O
  O115     1.0000 0.24543  0.36214  0.74840  Biso   1.000  O
  O116     1.0000 0.25457  0.13786  0.74840  Biso   1.000  O
  O117     1.0000 0.00457  0.61214  0.99840  Biso   1.000  O
  O118     1.0000 0.99543  0.38786  0.99840  Biso   1.000  O
  O119     1.0000 0.24543  0.86214  0.24840  Biso   1.000  O
  O120     1.0000 0.25457  0.63786  0.24840  Biso   1.000  O
  O121     1.0000 0.50457  0.11214  0.99840  Biso   1.000  O
  O122     1.0000 0.49543  0.88786  0.99840  Biso   1.000  O
  O123     1.0000 0.74543  0.36214  0.24840  Biso   1.000  O
  O124     1.0000 0.75457  0.13786  0.24840  Biso   1.000  O
  O125     1.0000 0.50457  0.61214  0.49840  Biso   1.000  O
  O126     1.0000 0.49543  0.38786  0.49840  Biso   1.000  O
  O127     1.0000 0.74543  0.86214  0.74840  Biso   1.000  O
  O128     1.0000 0.75457  0.63786  0.74840  Biso   1.000  O
  H257     1.0000 0.98100  0.12970  0.51600  Biso   1.000  H
  H258     1.0000 0.01900  0.87030  0.51600  Biso   1.000  H
  H259     1.0000 0.26900  0.37970  0.76600  Biso   1.000  H
  H260     1.0000 0.23100  0.12030  0.76600  Biso   1.000  H
  H261     1.0000 0.98100  0.62970  0.01600  Biso   1.000  H
  H262     1.0000 0.01900  0.37030  0.01600  Biso   1.000  H
  H263     1.0000 0.26900  0.87970  0.26600  Biso   1.000  H
  H264     1.0000 0.23100  0.62030  0.26600  Biso   1.000  H
  H265     1.0000 0.48100  0.12970  0.01600  Biso   1.000  H
  H266     1.0000 0.51900  0.87030  0.01600  Biso   1.000  H
  H267     1.0000 0.76900  0.37970  0.26600  Biso   1.000  H
  H268     1.0000 0.73100  0.12030  0.26600  Biso   1.000  H
  H269     1.0000 0.48100  0.62970  0.51600  Biso   1.000  H
  H270     1.0000 0.51900  0.37030  0.51600  Biso   1.000  H
  H271     1.0000 0.76900  0.87970  0.76600  Biso   1.000  H
  H272     1.0000 0.73100  0.62030  0.76600  Biso   1.000  H
  H273     1.0000 0.03000  0.11700  0.58100  Biso   1.000  H
  H274     1.0000 0.97000  0.88300  0.58100  Biso   1.000  H
  H275     1.0000 0.22000  0.36700  0.83100  Biso   1.000  H
  H276     1.0000 0.28000  0.13300  0.83100  Biso   1.000  H
  H277     1.0000 0.03000  0.61700  0.08100  Biso   1.000  H
  H278     1.0000 0.97000  0.38300  0.08100  Biso   1.000  H
  H279     1.0000 0.22000  0.86700  0.33100  Biso   1.000  H
  H280     1.0000 0.28000  0.63300  0.33100  Biso   1.000  H
  H281     1.0000 0.53000  0.11700  0.08100  Biso   1.000  H
  H282     1.0000 0.47000  0.88300  0.08100  Biso   1.000  H
  H283     1.0000 0.72000  0.36700  0.33100  Biso   1.000  H
  H284     1.0000 0.78000  0.13300  0.33100  Biso   1.000  H
  H285     1.0000 0.53000  0.61700  0.58100  Biso   1.000  H
  H286     1.0000 0.47000  0.38300  0.58100  Biso   1.000  H
  H287     1.0000 0.72000  0.86700  0.83100  Biso   1.000  H
  H288     1.0000 0.78000  0.63300  0.83100  Biso   1.000  H
