data_image0
_cell_length_a       21.982
_cell_length_b       36.695
_cell_length_c       6.946
_cell_angle_alpha    90
_cell_angle_beta     90
_cell_angle_gamma    90

_symmetry_space_group_name_H-M    "P 1"
_symmetry_int_tables_number       1

loop_
  _symmetry_equiv_pos_as_xyz
  'x, y, z'

loop_
  _atom_site_label
  _atom_site_occupancy
  _atom_site_fract_x
  _atom_site_fract_y
  _atom_site_fract_z
  _atom_site_thermal_displace_type
  _atom_site_B_iso_or_equiv
  _atom_site_type_symbol
  O1       1.0000 0.26260  0.00740  0.92500  Biso   1.000  O
  O2       1.0000 0.73740  0.99260  0.92500  Biso   1.000  O
  O3       1.0000 0.98740  0.25740  0.17500  Biso   1.000  O
  O4       1.0000 0.01260  0.74260  0.17500  Biso   1.000  O
  O5       1.0000 0.26260  0.50740  0.42500  Biso   1.000  O
  O6       1.0000 0.73740  0.49260  0.42500  Biso   1.000  O
  O7       1.0000 0.98740  0.75740  0.67500  Biso   1.000  O
  O8       1.0000 0.01260  0.24260  0.67500  Biso   1.000  O
  O9       1.0000 0.76260  0.00740  0.42500  Biso   1.000  O
  O10      1.0000 0.23740  0.99260  0.42500  Biso   1.000  O
  O11      1.0000 0.48740  0.25740  0.67500  Biso   1.000  O
  O12      1.0000 0.51260  0.74260  0.67500  Biso   1.000  O
  O13      1.0000 0.76260  0.50740  0.92500  Biso   1.000  O
  O14      1.0000 0.23740  0.49260  0.92500  Biso   1.000  O
  O15      1.0000 0.48740  0.75740  0.17500  Biso   1.000  O
  O16      1.0000 0.51260  0.24260  0.17500  Biso   1.000  O
  O17      1.0000 0.26890  0.95410  0.77700  Biso   1.000  O
  O18      1.0000 0.73110  0.04590  0.77700  Biso   1.000  O
  O19      1.0000 0.98110  0.20410  0.02700  Biso   1.000  O
  O20      1.0000 0.01890  0.79590  0.02700  Biso   1.000  O
  O21      1.0000 0.26890  0.45410  0.27700  Biso   1.000  O
  O22      1.0000 0.73110  0.54590  0.27700  Biso   1.000  O
  O23      1.0000 0.98110  0.70410  0.52700  Biso   1.000  O
  O24      1.0000 0.01890  0.29590  0.52700  Biso   1.000  O
  O25      1.0000 0.76890  0.95410  0.27700  Biso   1.000  O
  O26      1.0000 0.23110  0.04590  0.27700  Biso   1.000  O
  O27      1.0000 0.48110  0.20410  0.52700  Biso   1.000  O
  O28      1.0000 0.51890  0.79590  0.52700  Biso   1.000  O
  O29      1.0000 0.76890  0.45410  0.77700  Biso   1.000  O
  O30      1.0000 0.23110  0.54590  0.77700  Biso   1.000  O
  O31      1.0000 0.48110  0.70410  0.02700  Biso   1.000  O
  O32      1.0000 0.51890  0.29590  0.02700  Biso   1.000  O
  O33      1.0000 0.44160  0.94760  0.55400  Biso   1.000  O
  O34      1.0000 0.55840  0.05240  0.55400  Biso   1.000  O
  O35      1.0000 0.80840  0.19760  0.80400  Biso   1.000  O
  O36      1.0000 0.19160  0.80240  0.80400  Biso   1.000  O
  O37      1.0000 0.44160  0.44760  0.05400  Biso   1.000  O
  O38      1.0000 0.55840  0.55240  0.05400  Biso   1.000  O
  O39      1.0000 0.80840  0.69760  0.30400  Biso   1.000  O
  O40      1.0000 0.19160  0.30240  0.30400  Biso   1.000  O
  O41      1.0000 0.94160  0.94760  0.05400  Biso   1.000  O
  O42      1.0000 0.05840  0.05240  0.05400  Biso   1.000  O
  O43      1.0000 0.30840  0.19760  0.30400  Biso   1.000  O
  O44      1.0000 0.69160  0.80240  0.30400  Biso   1.000  O
  O45      1.0000 0.94160  0.44760  0.55400  Biso   1.000  O
  O46      1.0000 0.05840  0.55240  0.55400  Biso   1.000  O
  O47      1.0000 0.30840  0.69760  0.80400  Biso   1.000  O
  O48      1.0000 0.69160  0.30240  0.80400  Biso   1.000  O
  O49      1.0000 0.45070  0.93740  0.24400  Biso   1.000  O
  O50      1.0000 0.54930  0.06260  0.24400  Biso   1.000  O
  O51      1.0000 0.79930  0.18740  0.49400  Biso   1.000  O
  O52      1.0000 0.20070  0.81260  0.49400  Biso   1.000  O
  O53      1.0000 0.45070  0.43740  0.74400  Biso   1.000  O
  O54      1.0000 0.54930  0.56260  0.74400  Biso   1.000  O
  O55      1.0000 0.79930  0.68740  0.99400  Biso   1.000  O
  O56      1.0000 0.20070  0.31260  0.99400  Biso   1.000  O
  O57      1.0000 0.95070  0.93740  0.74400  Biso   1.000  O
  O58      1.0000 0.04930  0.06260  0.74400  Biso   1.000  O
  O59      1.0000 0.29930  0.18740  0.99400  Biso   1.000  O
  O60      1.0000 0.70070  0.81260  0.99400  Biso   1.000  O
  O61      1.0000 0.95070  0.43740  0.24400  Biso   1.000  O
  O62      1.0000 0.04930  0.56260  0.24400  Biso   1.000  O
  O63      1.0000 0.29930  0.68740  0.49400  Biso   1.000  O
  O64      1.0000 0.70070  0.31260  0.49400  Biso   1.000  O
  O65      1.0000 0.33680  0.07950  0.26500  Biso   1.000  O
  O66      1.0000 0.66320  0.92050  0.26500  Biso   1.000  O
  O67      1.0000 0.91320  0.32950  0.51500  Biso   1.000  O
  O68      1.0000 0.08680  0.67050  0.51500  Biso   1.000  O
  O69      1.0000 0.33680  0.57950  0.76500  Biso   1.000  O
  O70      1.0000 0.66320  0.42050  0.76500  Biso   1.000  O
  O71      1.0000 0.91320  0.82950  0.01500  Biso   1.000  O
  O72      1.0000 0.08680  0.17050  0.01500  Biso   1.000  O
  O73      1.0000 0.83680  0.07950  0.76500  Biso   1.000  O
  O74      1.0000 0.16320  0.92050  0.76500  Biso   1.000  O
  O75      1.0000 0.41320  0.32950  0.01500  Biso   1.000  O
  O76      1.0000 0.58680  0.67050  0.01500  Biso   1.000  O
  O77      1.0000 0.83680  0.57950  0.26500  Biso   1.000  O
  O78      1.0000 0.16320  0.42050  0.26500  Biso   1.000  O
  O79      1.0000 0.41320  0.82950  0.51500  Biso   1.000  O
  O80      1.0000 0.58680  0.17050  0.51500  Biso   1.000  O
  O81      1.0000 0.41200  0.11920  0.29600  Biso   1.000  O
  O82      1.0000 0.58800  0.88080  0.29600  Biso   1.000  O
  O83      1.0000 0.83800  0.36920  0.54600  Biso   1.000  O
  O84      1.0000 0.16200  0.63080  0.54600  Biso   1.000  O
  O85      1.0000 0.41200  0.61920  0.79600  Biso   1.000  O
  O86      1.0000 0.58800  0.38080  0.79600  Biso   1.000  O
  O87      1.0000 0.83800  0.86920  0.04600  Biso   1.000  O
  O88      1.0000 0.16200  0.13080  0.04600  Biso   1.000  O
  O89      1.0000 0.91200  0.11920  0.79600  Biso   1.000  O
  O90      1.0000 0.08800  0.88080  0.79600  Biso   1.000  O
  O91      1.0000 0.33800  0.36920  0.04600  Biso   1.000  O
  O92      1.0000 0.66200  0.63080  0.04600  Biso   1.000  O
  O93      1.0000 0.91200  0.61920  0.29600  Biso   1.000  O
  O94      1.0000 0.08800  0.38080  0.29600  Biso   1.000  O
  O95      1.0000 0.33800  0.86920  0.54600  Biso   1.000  O
  O96      1.0000 0.66200  0.13080  0.54600  Biso   1.000  O
  O97      1.0000 0.24820  0.08640  0.89800  Biso   1.000  O
  O98      1.0000 0.75180  0.91360  0.89800  Biso   1.000  O
  O99      1.0000 0.00180  0.33640  0.14800  Biso   1.000  O
  O100     1.0000 0.99820  0.66360  0.14800  Biso   1.000  O
  O101     1.0000 0.24820  0.58640  0.39800  Biso   1.000  O
  O102     1.0000 0.75180  0.41360  0.39800  Biso   1.000  O
  O103     1.0000 0.00180  0.83640  0.64800  Biso   1.000  O
  O104     1.0000 0.99820  0.16360  0.64800  Biso   1.000  O
  O105     1.0000 0.74820  0.08640  0.39800  Biso   1.000  O
  O106     1.0000 0.25180  0.91360  0.39800  Biso   1.000  O
  O107     1.0000 0.50180  0.33640  0.64800  Biso   1.000  O
  O108     1.0000 0.49820  0.66360  0.64800  Biso   1.000  O
  O109     1.0000 0.74820  0.58640  0.89800  Biso   1.000  O
  O110     1.0000 0.25180  0.41360  0.89800  Biso   1.000  O
  O111     1.0000 0.50180  0.83640  0.14800  Biso   1.000  O
  O112     1.0000 0.49820  0.16360  0.14800  Biso   1.000  O
  N1       1.0000 0.36770  0.99190  0.14300  Biso   1.000  N
  N2       1.0000 0.63230  0.00810  0.14300  Biso   1.000  N
  N3       1.0000 0.88230  0.24190  0.39300  Biso   1.000  N
  N4       1.0000 0.11770  0.75810  0.39300  Biso   1.000  N
  N5       1.0000 0.36770  0.49190  0.64300  Biso   1.000  N
  N6       1.0000 0.63230  0.50810  0.64300  Biso   1.000  N
  N7       1.0000 0.88230  0.74190  0.89300  Biso   1.000  N
  N8       1.0000 0.11770  0.25810  0.89300  Biso   1.000  N
  N9       1.0000 0.86770  0.99190  0.64300  Biso   1.000  N
  N10      1.0000 0.13230  0.00810  0.64300  Biso   1.000  N
  N11      1.0000 0.38230  0.24190  0.89300  Biso   1.000  N
  N12      1.0000 0.61770  0.75810  0.89300  Biso   1.000  N
  N13      1.0000 0.86770  0.49190  0.14300  Biso   1.000  N
  N14      1.0000 0.13230  0.50810  0.14300  Biso   1.000  N
  N15      1.0000 0.38230  0.74190  0.39300  Biso   1.000  N
  N16      1.0000 0.61770  0.25810  0.39300  Biso   1.000  N
  N17      1.0000 0.36600  0.06090  0.90600  Biso   1.000  N
  N18      1.0000 0.63400  0.93910  0.90600  Biso   1.000  N
  N19      1.0000 0.88400  0.31090  0.15600  Biso   1.000  N
  N20      1.0000 0.11600  0.68910  0.15600  Biso   1.000  N
  N21      1.0000 0.36600  0.56090  0.40600  Biso   1.000  N
  N22      1.0000 0.63400  0.43910  0.40600  Biso   1.000  N
  N23      1.0000 0.88400  0.81090  0.65600  Biso   1.000  N
  N24      1.0000 0.11600  0.18910  0.65600  Biso   1.000  N
  N25      1.0000 0.86600  0.06090  0.40600  Biso   1.000  N
  N26      1.0000 0.13400  0.93910  0.40600  Biso   1.000  N
  N27      1.0000 0.38400  0.31090  0.65600  Biso   1.000  N
  N28      1.0000 0.61600  0.68910  0.65600  Biso   1.000  N
  N29      1.0000 0.86600  0.56090  0.90600  Biso   1.000  N
  N30      1.0000 0.13400  0.43910  0.90600  Biso   1.000  N
  N31      1.0000 0.38400  0.81090  0.15600  Biso   1.000  N
  N32      1.0000 0.61600  0.18910  0.15600  Biso   1.000  N
  Cu1      1.0000 0.29864  0.04410  0.09600  Biso   1.000  Cu
  Cu2      1.0000 0.70136  0.95590  0.09600  Biso   1.000  Cu
  Cu3      1.0000 0.95136  0.29410  0.34600  Biso   1.000  Cu
  Cu4      1.0000 0.04864  0.70590  0.34600  Biso   1.000  Cu
  Cu5      1.0000 0.29864  0.54410  0.59600  Biso   1.000  Cu
  Cu6      1.0000 0.70136  0.45590  0.59600  Biso   1.000  Cu
  Cu7      1.0000 0.95136  0.79410  0.84600  Biso   1.000  Cu
  Cu8      1.0000 0.04864  0.20590  0.84600  Biso   1.000  Cu
  Cu9      1.0000 0.79864  0.04410  0.59600  Biso   1.000  Cu
  Cu10     1.0000 0.20136  0.95590  0.59600  Biso   1.000  Cu
  Cu11     1.0000 0.45136  0.29410  0.84600  Biso   1.000  Cu
  Cu12     1.0000 0.54864  0.70590  0.84600  Biso   1.000  Cu
  Cu13     1.0000 0.79864  0.54410  0.09600  Biso   1.000  Cu
  Cu14     1.0000 0.20136  0.45590  0.09600  Biso   1.000  Cu
  Cu15     1.0000 0.45136  0.79410  0.34600  Biso   1.000  Cu
  Cu16     1.0000 0.54864  0.20590  0.34600  Biso   1.000  Cu
  C1       1.0000 0.28620  0.97620  0.90300  Biso   1.000  C
  C2       1.0000 0.71380  0.02380  0.90300  Biso   1.000  C
  C3       1.0000 0.96380  0.22620  0.15300  Biso   1.000  C
  C4       1.0000 0.03620  0.77380  0.15300  Biso   1.000  C
  C5       1.0000 0.28620  0.47620  0.40300  Biso   1.000  C
  C6       1.0000 0.71380  0.52380  0.40300  Biso   1.000  C
  C7       1.0000 0.96380  0.72620  0.65300  Biso   1.000  C
  C8       1.0000 0.03620  0.27380  0.65300  Biso   1.000  C
  C9       1.0000 0.78620  0.97620  0.40300  Biso   1.000  C
  C10      1.0000 0.21380  0.02380  0.40300  Biso   1.000  C
  C11      1.0000 0.46380  0.22620  0.65300  Biso   1.000  C
  C12      1.0000 0.53620  0.77380  0.65300  Biso   1.000  C
  C13      1.0000 0.78620  0.47620  0.90300  Biso   1.000  C
  C14      1.0000 0.21380  0.52380  0.90300  Biso   1.000  C
  C15      1.0000 0.46380  0.72620  0.15300  Biso   1.000  C
  C16      1.0000 0.53620  0.27380  0.15300  Biso   1.000  C
  C17      1.0000 0.33400  0.96320  0.04200  Biso   1.000  C
  C18      1.0000 0.66600  0.03680  0.04200  Biso   1.000  C
  C19      1.0000 0.91600  0.21320  0.29200  Biso   1.000  C
  C20      1.0000 0.08400  0.78680  0.29200  Biso   1.000  C
  C21      1.0000 0.33400  0.46320  0.54200  Biso   1.000  C
  C22      1.0000 0.66600  0.53680  0.54200  Biso   1.000  C
  C23      1.0000 0.91600  0.71320  0.79200  Biso   1.000  C
  C24      1.0000 0.08400  0.28680  0.79200  Biso   1.000  C
  C25      1.0000 0.83400  0.96320  0.54200  Biso   1.000  C
  C26      1.0000 0.16600  0.03680  0.54200  Biso   1.000  C
  C27      1.0000 0.41600  0.21320  0.79200  Biso   1.000  C
  C28      1.0000 0.58400  0.78680  0.79200  Biso   1.000  C
  C29      1.0000 0.83400  0.46320  0.04200  Biso   1.000  C
  C30      1.0000 0.16600  0.53680  0.04200  Biso   1.000  C
  C31      1.0000 0.41600  0.71320  0.29200  Biso   1.000  C
  C32      1.0000 0.58400  0.28680  0.29200  Biso   1.000  C
  C33      1.0000 0.42650  0.95380  0.37100  Biso   1.000  C
  C34      1.0000 0.57350  0.04620  0.37100  Biso   1.000  C
  C35      1.0000 0.82350  0.20380  0.62100  Biso   1.000  C
  C36      1.0000 0.17650  0.79620  0.62100  Biso   1.000  C
  C37      1.0000 0.42650  0.45380  0.87100  Biso   1.000  C
  C38      1.0000 0.57350  0.54620  0.87100  Biso   1.000  C
  C39      1.0000 0.82350  0.70380  0.12100  Biso   1.000  C
  C40      1.0000 0.17650  0.29620  0.12100  Biso   1.000  C
  C41      1.0000 0.92650  0.95380  0.87100  Biso   1.000  C
  C42      1.0000 0.07350  0.04620  0.87100  Biso   1.000  C
  C43      1.0000 0.32350  0.20380  0.12100  Biso   1.000  C
  C44      1.0000 0.67650  0.79620  0.12100  Biso   1.000  C
  C45      1.0000 0.92650  0.45380  0.37100  Biso   1.000  C
  C46      1.0000 0.07350  0.54620  0.37100  Biso   1.000  C
  C47      1.0000 0.32350  0.70380  0.62100  Biso   1.000  C
  C48      1.0000 0.67650  0.29620  0.62100  Biso   1.000  C
  C49      1.0000 0.38130  0.98430  0.34300  Biso   1.000  C
  C50      1.0000 0.61870  0.01570  0.34300  Biso   1.000  C
  C51      1.0000 0.86870  0.23430  0.59300  Biso   1.000  C
  C52      1.0000 0.13130  0.76570  0.59300  Biso   1.000  C
  C53      1.0000 0.38130  0.48430  0.84300  Biso   1.000  C
  C54      1.0000 0.61870  0.51570  0.84300  Biso   1.000  C
  C55      1.0000 0.86870  0.73430  0.09300  Biso   1.000  C
  C56      1.0000 0.13130  0.26570  0.09300  Biso   1.000  C
  C57      1.0000 0.88130  0.98430  0.84300  Biso   1.000  C
  C58      1.0000 0.11870  0.01570  0.84300  Biso   1.000  C
  C59      1.0000 0.36870  0.23430  0.09300  Biso   1.000  C
  C60      1.0000 0.63130  0.76570  0.09300  Biso   1.000  C
  C61      1.0000 0.88130  0.48430  0.34300  Biso   1.000  C
  C62      1.0000 0.11870  0.51570  0.34300  Biso   1.000  C
  C63      1.0000 0.36870  0.73430  0.59300  Biso   1.000  C
  C64      1.0000 0.63130  0.26570  0.59300  Biso   1.000  C
  C65      1.0000 0.42070  0.00530  0.02900  Biso   1.000  C
  C66      1.0000 0.57930  0.99470  0.02900  Biso   1.000  C
  C67      1.0000 0.82930  0.25530  0.27900  Biso   1.000  C
  C68      1.0000 0.17070  0.74470  0.27900  Biso   1.000  C
  C69      1.0000 0.42070  0.50530  0.52900  Biso   1.000  C
  C70      1.0000 0.57930  0.49470  0.52900  Biso   1.000  C
  C71      1.0000 0.82930  0.75530  0.77900  Biso   1.000  C
  C72      1.0000 0.17070  0.24470  0.77900  Biso   1.000  C
  C73      1.0000 0.92070  0.00530  0.52900  Biso   1.000  C
  C74      1.0000 0.07930  0.99470  0.52900  Biso   1.000  C
  C75      1.0000 0.32930  0.25530  0.77900  Biso   1.000  C
  C76      1.0000 0.67070  0.74470  0.77900  Biso   1.000  C
  C77      1.0000 0.92070  0.50530  0.02900  Biso   1.000  C
  C78      1.0000 0.07930  0.49470  0.02900  Biso   1.000  C
  C79      1.0000 0.32930  0.75530  0.27900  Biso   1.000  C
  C80      1.0000 0.67070  0.24470  0.27900  Biso   1.000  C
  C81      1.0000 0.40310  0.02630  0.85200  Biso   1.000  C
  C82      1.0000 0.59690  0.97370  0.85200  Biso   1.000  C
  C83      1.0000 0.84690  0.27630  0.10200  Biso   1.000  C
  C84      1.0000 0.15310  0.72370  0.10200  Biso   1.000  C
  C85      1.0000 0.40310  0.52630  0.35200  Biso   1.000  C
  C86      1.0000 0.59690  0.47370  0.35200  Biso   1.000  C
  C87      1.0000 0.84690  0.77630  0.60200  Biso   1.000  C
  C88      1.0000 0.15310  0.22370  0.60200  Biso   1.000  C
  C89      1.0000 0.90310  0.02630  0.35200  Biso   1.000  C
  C90      1.0000 0.09690  0.97370  0.35200  Biso   1.000  C
  C91      1.0000 0.34690  0.27630  0.60200  Biso   1.000  C
  C92      1.0000 0.65310  0.72370  0.60200  Biso   1.000  C
  C93      1.0000 0.90310  0.52630  0.85200  Biso   1.000  C
  C94      1.0000 0.09690  0.47370  0.85200  Biso   1.000  C
  C95      1.0000 0.34690  0.77630  0.10200  Biso   1.000  C
  C96      1.0000 0.65310  0.22370  0.10200  Biso   1.000  C
  C97      1.0000 0.38420  0.09600  0.20300  Biso   1.000  C
  C98      1.0000 0.61580  0.90400  0.20300  Biso   1.000  C
  C99      1.0000 0.86580  0.34600  0.45300  Biso   1.000  C
  C100     1.0000 0.13420  0.65400  0.45300  Biso   1.000  C
  C101     1.0000 0.38420  0.59600  0.70300  Biso   1.000  C
  C102     1.0000 0.61580  0.40400  0.70300  Biso   1.000  C
  C103     1.0000 0.86580  0.84600  0.95300  Biso   1.000  C
  C104     1.0000 0.13420  0.15400  0.95300  Biso   1.000  C
  C105     1.0000 0.88420  0.09600  0.70300  Biso   1.000  C
  C106     1.0000 0.11580  0.90400  0.70300  Biso   1.000  C
  C107     1.0000 0.36580  0.34600  0.95300  Biso   1.000  C
  C108     1.0000 0.63420  0.65400  0.95300  Biso   1.000  C
  C109     1.0000 0.88420  0.59600  0.20300  Biso   1.000  C
  C110     1.0000 0.11580  0.40400  0.20300  Biso   1.000  C
  C111     1.0000 0.36580  0.84600  0.45300  Biso   1.000  C
  C112     1.0000 0.63420  0.15400  0.45300  Biso   1.000  C
  C113     1.0000 0.40630  0.08660  0.00900  Biso   1.000  C
  C114     1.0000 0.59370  0.91340  0.00900  Biso   1.000  C
  C115     1.0000 0.84370  0.33660  0.25900  Biso   1.000  C
  C116     1.0000 0.15630  0.66340  0.25900  Biso   1.000  C
  C117     1.0000 0.40630  0.58660  0.50900  Biso   1.000  C
  C118     1.0000 0.59370  0.41340  0.50900  Biso   1.000  C
  C119     1.0000 0.84370  0.83660  0.75900  Biso   1.000  C
  C120     1.0000 0.15630  0.16340  0.75900  Biso   1.000  C
  C121     1.0000 0.90630  0.08660  0.50900  Biso   1.000  C
  C122     1.0000 0.09370  0.91340  0.50900  Biso   1.000  C
  C123     1.0000 0.34370  0.33660  0.75900  Biso   1.000  C
  C124     1.0000 0.65630  0.66340  0.75900  Biso   1.000  C
  C125     1.0000 0.90630  0.58660  0.00900  Biso   1.000  C
  C126     1.0000 0.09370  0.41340  0.00900  Biso   1.000  C
  C127     1.0000 0.34370  0.83660  0.25900  Biso   1.000  C
  C128     1.0000 0.65630  0.16340  0.25900  Biso   1.000  C
  C129     1.0000 0.29060  0.10310  0.78300  Biso   1.000  C
  C130     1.0000 0.70940  0.89690  0.78300  Biso   1.000  C
  C131     1.0000 0.95940  0.35310  0.03300  Biso   1.000  C
  C132     1.0000 0.04060  0.64690  0.03300  Biso   1.000  C
  C133     1.0000 0.29060  0.60310  0.28300  Biso   1.000  C
  C134     1.0000 0.70940  0.39690  0.28300  Biso   1.000  C
  C135     1.0000 0.95940  0.85310  0.53300  Biso   1.000  C
  C136     1.0000 0.04060  0.14690  0.53300  Biso   1.000  C
  C137     1.0000 0.79060  0.10310  0.28300  Biso   1.000  C
  C138     1.0000 0.20940  0.89690  0.28300  Biso   1.000  C
  C139     1.0000 0.45940  0.35310  0.53300  Biso   1.000  C
  C140     1.0000 0.54060  0.64690  0.53300  Biso   1.000  C
  C141     1.0000 0.79060  0.60310  0.78300  Biso   1.000  C
  C142     1.0000 0.20940  0.39690  0.78300  Biso   1.000  C
  C143     1.0000 0.45940  0.85310  0.03300  Biso   1.000  C
  C144     1.0000 0.54060  0.14690  0.03300  Biso   1.000  C
  C145     1.0000 0.33910  0.07520  0.73400  Biso   1.000  C
  C146     1.0000 0.66090  0.92480  0.73400  Biso   1.000  C
  C147     1.0000 0.91090  0.32520  0.98400  Biso   1.000  C
  C148     1.0000 0.08910  0.67480  0.98400  Biso   1.000  C
  C149     1.0000 0.33910  0.57520  0.23400  Biso   1.000  C
  C150     1.0000 0.66090  0.42480  0.23400  Biso   1.000  C
  C151     1.0000 0.91090  0.82520  0.48400  Biso   1.000  C
  C152     1.0000 0.08910  0.17480  0.48400  Biso   1.000  C
  C153     1.0000 0.83910  0.07520  0.23400  Biso   1.000  C
  C154     1.0000 0.16090  0.92480  0.23400  Biso   1.000  C
  C155     1.0000 0.41090  0.32520  0.48400  Biso   1.000  C
  C156     1.0000 0.58910  0.67480  0.48400  Biso   1.000  C
  C157     1.0000 0.83910  0.57520  0.73400  Biso   1.000  C
  C158     1.0000 0.16090  0.42480  0.73400  Biso   1.000  C
  C159     1.0000 0.41090  0.82520  0.98400  Biso   1.000  C
  C160     1.0000 0.58910  0.17480  0.98400  Biso   1.000  C
  H1       1.0000 0.36310  0.94860  0.97260  Biso   1.000  H
  H2       1.0000 0.63690  0.05140  0.97260  Biso   1.000  H
  H3       1.0000 0.88690  0.19860  0.22260  Biso   1.000  H
  H4       1.0000 0.11310  0.80140  0.22260  Biso   1.000  H
  H5       1.0000 0.36310  0.44860  0.47260  Biso   1.000  H
  H6       1.0000 0.63690  0.55140  0.47260  Biso   1.000  H
  H7       1.0000 0.88690  0.69860  0.72260  Biso   1.000  H
  H8       1.0000 0.11310  0.30140  0.72260  Biso   1.000  H
  H9       1.0000 0.86310  0.94860  0.47260  Biso   1.000  H
  H10      1.0000 0.13690  0.05140  0.47260  Biso   1.000  H
  H11      1.0000 0.38690  0.19860  0.72260  Biso   1.000  H
  H12      1.0000 0.61310  0.80140  0.72260  Biso   1.000  H
  H13      1.0000 0.86310  0.44860  0.97260  Biso   1.000  H
  H14      1.0000 0.13690  0.55140  0.97260  Biso   1.000  H
  H15      1.0000 0.38690  0.69860  0.22260  Biso   1.000  H
  H16      1.0000 0.61310  0.30140  0.22260  Biso   1.000  H
  H17      1.0000 0.31490  0.94780  0.13550  Biso   1.000  H
  H18      1.0000 0.68510  0.05220  0.13550  Biso   1.000  H
  H19      1.0000 0.93510  0.19780  0.38550  Biso   1.000  H
  H20      1.0000 0.06490  0.80220  0.38550  Biso   1.000  H
  H21      1.0000 0.31490  0.44780  0.63550  Biso   1.000  H
  H22      1.0000 0.68510  0.55220  0.63550  Biso   1.000  H
  H23      1.0000 0.93510  0.69780  0.88550  Biso   1.000  H
  H24      1.0000 0.06490  0.30220  0.88550  Biso   1.000  H
  H25      1.0000 0.81490  0.94780  0.63550  Biso   1.000  H
  H26      1.0000 0.18510  0.05220  0.63550  Biso   1.000  H
  H27      1.0000 0.43510  0.19780  0.88550  Biso   1.000  H
  H28      1.0000 0.56490  0.80220  0.88550  Biso   1.000  H
  H29      1.0000 0.81490  0.44780  0.13550  Biso   1.000  H
  H30      1.0000 0.18510  0.55220  0.13550  Biso   1.000  H
  H31      1.0000 0.43510  0.69780  0.38550  Biso   1.000  H
  H32      1.0000 0.56490  0.30220  0.38550  Biso   1.000  H
  H33      1.0000 0.34490  0.97950  0.41590  Biso   1.000  H
  H34      1.0000 0.65510  0.02050  0.41590  Biso   1.000  H
  H35      1.0000 0.90510  0.22950  0.66590  Biso   1.000  H
  H36      1.0000 0.09490  0.77050  0.66590  Biso   1.000  H
  H37      1.0000 0.34490  0.47950  0.91590  Biso   1.000  H
  H38      1.0000 0.65510  0.52050  0.91590  Biso   1.000  H
  H39      1.0000 0.90510  0.72950  0.16590  Biso   1.000  H
  H40      1.0000 0.09490  0.27050  0.16590  Biso   1.000  H
  H41      1.0000 0.84490  0.97950  0.91590  Biso   1.000  H
  H42      1.0000 0.15510  0.02050  0.91590  Biso   1.000  H
  H43      1.0000 0.40510  0.22950  0.16590  Biso   1.000  H
  H44      1.0000 0.59490  0.77050  0.16590  Biso   1.000  H
  H45      1.0000 0.84490  0.47950  0.41590  Biso   1.000  H
  H46      1.0000 0.15510  0.52050  0.41590  Biso   1.000  H
  H47      1.0000 0.40510  0.72950  0.66590  Biso   1.000  H
  H48      1.0000 0.59490  0.27050  0.66590  Biso   1.000  H
  H49      1.0000 0.39840  0.00700  0.40370  Biso   1.000  H
  H50      1.0000 0.60160  0.99300  0.40370  Biso   1.000  H
  H51      1.0000 0.85160  0.25700  0.65370  Biso   1.000  H
  H52      1.0000 0.14840  0.74300  0.65370  Biso   1.000  H
  H53      1.0000 0.39840  0.50700  0.90370  Biso   1.000  H
  H54      1.0000 0.60160  0.49300  0.90370  Biso   1.000  H
  H55      1.0000 0.85160  0.75700  0.15370  Biso   1.000  H
  H56      1.0000 0.14840  0.24300  0.15370  Biso   1.000  H
  H57      1.0000 0.89840  0.00700  0.90370  Biso   1.000  H
  H58      1.0000 0.10160  0.99300  0.90370  Biso   1.000  H
  H59      1.0000 0.35160  0.25700  0.15370  Biso   1.000  H
  H60      1.0000 0.64840  0.74300  0.15370  Biso   1.000  H
  H61      1.0000 0.89840  0.50700  0.40370  Biso   1.000  H
  H62      1.0000 0.10160  0.49300  0.40370  Biso   1.000  H
  H63      1.0000 0.35160  0.75700  0.65370  Biso   1.000  H
  H64      1.0000 0.64840  0.24300  0.65370  Biso   1.000  H
  H65      1.0000 0.44880  0.92340  0.62190  Biso   1.000  H
  H66      1.0000 0.55120  0.07660  0.62190  Biso   1.000  H
  H67      1.0000 0.80120  0.17340  0.87190  Biso   1.000  H
  H68      1.0000 0.19880  0.82660  0.87190  Biso   1.000  H
  H69      1.0000 0.44880  0.42340  0.12190  Biso   1.000  H
  H70      1.0000 0.55120  0.57660  0.12190  Biso   1.000  H
  H71      1.0000 0.80120  0.67340  0.37190  Biso   1.000  H
  H72      1.0000 0.19880  0.32660  0.37190  Biso   1.000  H
  H73      1.0000 0.94880  0.92340  0.12190  Biso   1.000  H
  H74      1.0000 0.05120  0.07660  0.12190  Biso   1.000  H
  H75      1.0000 0.30120  0.17340  0.37190  Biso   1.000  H
  H76      1.0000 0.69880  0.82660  0.37190  Biso   1.000  H
  H77      1.0000 0.94880  0.42340  0.62190  Biso   1.000  H
  H78      1.0000 0.05120  0.57660  0.62190  Biso   1.000  H
  H79      1.0000 0.30120  0.67340  0.87190  Biso   1.000  H
  H80      1.0000 0.69880  0.32660  0.87190  Biso   1.000  H
  H81      1.0000 0.44690  0.98560  0.99820  Biso   1.000  H
  H82      1.0000 0.55310  0.01440  0.99820  Biso   1.000  H
  H83      1.0000 0.80310  0.23560  0.24820  Biso   1.000  H
  H84      1.0000 0.19690  0.76440  0.24820  Biso   1.000  H
  H85      1.0000 0.44690  0.48560  0.49820  Biso   1.000  H
  H86      1.0000 0.55310  0.51440  0.49820  Biso   1.000  H
  H87      1.0000 0.80310  0.73560  0.74820  Biso   1.000  H
  H88      1.0000 0.19690  0.26440  0.74820  Biso   1.000  H
  H89      1.0000 0.94690  0.98560  0.49820  Biso   1.000  H
  H90      1.0000 0.05310  0.01440  0.49820  Biso   1.000  H
  H91      1.0000 0.30310  0.23560  0.74820  Biso   1.000  H
  H92      1.0000 0.69690  0.76440  0.74820  Biso   1.000  H
  H93      1.0000 0.94690  0.48560  0.99820  Biso   1.000  H
  H94      1.0000 0.05310  0.51440  0.99820  Biso   1.000  H
  H95      1.0000 0.30310  0.73560  0.24820  Biso   1.000  H
  H96      1.0000 0.69690  0.26440  0.24820  Biso   1.000  H
  H97      1.0000 0.44430  0.02200  0.11090  Biso   1.000  H
  H98      1.0000 0.55570  0.97800  0.11090  Biso   1.000  H
  H99      1.0000 0.80570  0.27200  0.36090  Biso   1.000  H
  H100     1.0000 0.19430  0.72800  0.36090  Biso   1.000  H
  H101     1.0000 0.44430  0.52200  0.61090  Biso   1.000  H
  H102     1.0000 0.55570  0.47800  0.61090  Biso   1.000  H
  H103     1.0000 0.80570  0.77200  0.86090  Biso   1.000  H
  H104     1.0000 0.19430  0.22800  0.86090  Biso   1.000  H
  H105     1.0000 0.94430  0.02200  0.61090  Biso   1.000  H
  H106     1.0000 0.05570  0.97800  0.61090  Biso   1.000  H
  H107     1.0000 0.30570  0.27200  0.86090  Biso   1.000  H
  H108     1.0000 0.69430  0.72800  0.86090  Biso   1.000  H
  H109     1.0000 0.94430  0.52200  0.11090  Biso   1.000  H
  H110     1.0000 0.05570  0.47800  0.11090  Biso   1.000  H
  H111     1.0000 0.30570  0.77200  0.36090  Biso   1.000  H
  H112     1.0000 0.69430  0.22800  0.36090  Biso   1.000  H
  H113     1.0000 0.37930  0.01040  0.76880  Biso   1.000  H
  H114     1.0000 0.62070  0.98960  0.76880  Biso   1.000  H
  H115     1.0000 0.87070  0.26040  0.01880  Biso   1.000  H
  H116     1.0000 0.12930  0.73960  0.01880  Biso   1.000  H
  H117     1.0000 0.37930  0.51040  0.26880  Biso   1.000  H
  H118     1.0000 0.62070  0.48960  0.26880  Biso   1.000  H
  H119     1.0000 0.87070  0.76040  0.51880  Biso   1.000  H
  H120     1.0000 0.12930  0.23960  0.51880  Biso   1.000  H
  H121     1.0000 0.87930  0.01040  0.26880  Biso   1.000  H
  H122     1.0000 0.12070  0.98960  0.26880  Biso   1.000  H
  H123     1.0000 0.37070  0.26040  0.51880  Biso   1.000  H
  H124     1.0000 0.62930  0.73960  0.51880  Biso   1.000  H
  H125     1.0000 0.87930  0.51040  0.76880  Biso   1.000  H
  H126     1.0000 0.12070  0.48960  0.76880  Biso   1.000  H
  H127     1.0000 0.37070  0.76040  0.01880  Biso   1.000  H
  H128     1.0000 0.62930  0.23960  0.01880  Biso   1.000  H
  H129     1.0000 0.43940  0.03250  0.77720  Biso   1.000  H
  H130     1.0000 0.56060  0.96750  0.77720  Biso   1.000  H
  H131     1.0000 0.81060  0.28250  0.02720  Biso   1.000  H
  H132     1.0000 0.18940  0.71750  0.02720  Biso   1.000  H
  H133     1.0000 0.43940  0.53250  0.27720  Biso   1.000  H
  H134     1.0000 0.56060  0.46750  0.27720  Biso   1.000  H
  H135     1.0000 0.81060  0.78250  0.52720  Biso   1.000  H
  H136     1.0000 0.18940  0.21750  0.52720  Biso   1.000  H
  H137     1.0000 0.93940  0.03250  0.27720  Biso   1.000  H
  H138     1.0000 0.06060  0.96750  0.27720  Biso   1.000  H
  H139     1.0000 0.31060  0.28250  0.52720  Biso   1.000  H
  H140     1.0000 0.68940  0.71750  0.52720  Biso   1.000  H
  H141     1.0000 0.93940  0.53250  0.77720  Biso   1.000  H
  H142     1.0000 0.06060  0.46750  0.77720  Biso   1.000  H
  H143     1.0000 0.31060  0.78250  0.02720  Biso   1.000  H
  H144     1.0000 0.68940  0.21750  0.02720  Biso   1.000  H
  H145     1.0000 0.44690  0.07660  0.01430  Biso   1.000  H
  H146     1.0000 0.55310  0.92340  0.01430  Biso   1.000  H
  H147     1.0000 0.80310  0.32660  0.26430  Biso   1.000  H
  H148     1.0000 0.19690  0.67340  0.26430  Biso   1.000  H
  H149     1.0000 0.44690  0.57660  0.51430  Biso   1.000  H
  H150     1.0000 0.55310  0.42340  0.51430  Biso   1.000  H
  H151     1.0000 0.80310  0.82660  0.76430  Biso   1.000  H
  H152     1.0000 0.19690  0.17340  0.76430  Biso   1.000  H
  H153     1.0000 0.94690  0.07660  0.51430  Biso   1.000  H
  H154     1.0000 0.05310  0.92340  0.51430  Biso   1.000  H
  H155     1.0000 0.30310  0.32660  0.76430  Biso   1.000  H
  H156     1.0000 0.69690  0.67340  0.76430  Biso   1.000  H
  H157     1.0000 0.94690  0.57660  0.01430  Biso   1.000  H
  H158     1.0000 0.05310  0.42340  0.01430  Biso   1.000  H
  H159     1.0000 0.30310  0.82660  0.26430  Biso   1.000  H
  H160     1.0000 0.69690  0.17340  0.26430  Biso   1.000  H
  H161     1.0000 0.40980  0.10880  0.93060  Biso   1.000  H
  H162     1.0000 0.59020  0.89120  0.93060  Biso   1.000  H
  H163     1.0000 0.84020  0.35880  0.18060  Biso   1.000  H
  H164     1.0000 0.15980  0.64120  0.18060  Biso   1.000  H
  H165     1.0000 0.40980  0.60880  0.43060  Biso   1.000  H
  H166     1.0000 0.59020  0.39120  0.43060  Biso   1.000  H
  H167     1.0000 0.84020  0.85880  0.68060  Biso   1.000  H
  H168     1.0000 0.15980  0.14120  0.68060  Biso   1.000  H
  H169     1.0000 0.90980  0.10880  0.43060  Biso   1.000  H
  H170     1.0000 0.09020  0.89120  0.43060  Biso   1.000  H
  H171     1.0000 0.34020  0.35880  0.68060  Biso   1.000  H
  H172     1.0000 0.65980  0.64120  0.68060  Biso   1.000  H
  H173     1.0000 0.90980  0.60880  0.93060  Biso   1.000  H
  H174     1.0000 0.09020  0.39120  0.93060  Biso   1.000  H
  H175     1.0000 0.34020  0.85880  0.18060  Biso   1.000  H
  H176     1.0000 0.65980  0.14120  0.18060  Biso   1.000  H
  H177     1.0000 0.31090  0.12390  0.85160  Biso   1.000  H
  H178     1.0000 0.68910  0.87610  0.85160  Biso   1.000  H
  H179     1.0000 0.93910  0.37390  0.10160  Biso   1.000  H
  H180     1.0000 0.06090  0.62610  0.10160  Biso   1.000  H
  H181     1.0000 0.31090  0.62390  0.35160  Biso   1.000  H
  H182     1.0000 0.68910  0.37610  0.35160  Biso   1.000  H
  H183     1.0000 0.93910  0.87390  0.60160  Biso   1.000  H
  H184     1.0000 0.06090  0.12610  0.60160  Biso   1.000  H
  H185     1.0000 0.81090  0.12390  0.35160  Biso   1.000  H
  H186     1.0000 0.18910  0.87610  0.35160  Biso   1.000  H
  H187     1.0000 0.43910  0.37390  0.60160  Biso   1.000  H
  H188     1.0000 0.56090  0.62610  0.60160  Biso   1.000  H
  H189     1.0000 0.81090  0.62390  0.85160  Biso   1.000  H
  H190     1.0000 0.18910  0.37610  0.85160  Biso   1.000  H
  H191     1.0000 0.43910  0.87390  0.10160  Biso   1.000  H
  H192     1.0000 0.56090  0.12610  0.10160  Biso   1.000  H
  H193     1.0000 0.27400  0.11420  0.66830  Biso   1.000  H
  H194     1.0000 0.72600  0.88580  0.66830  Biso   1.000  H
  H195     1.0000 0.97600  0.36420  0.91830  Biso   1.000  H
  H196     1.0000 0.02400  0.63580  0.91830  Biso   1.000  H
  H197     1.0000 0.27400  0.61420  0.16830  Biso   1.000  H
  H198     1.0000 0.72600  0.38580  0.16830  Biso   1.000  H
  H199     1.0000 0.97600  0.86420  0.41830  Biso   1.000  H
  H200     1.0000 0.02400  0.13580  0.41830  Biso   1.000  H
  H201     1.0000 0.77400  0.11420  0.16830  Biso   1.000  H
  H202     1.0000 0.22600  0.88580  0.16830  Biso   1.000  H
  H203     1.0000 0.47600  0.36420  0.41830  Biso   1.000  H
  H204     1.0000 0.52400  0.63580  0.41830  Biso   1.000  H
  H205     1.0000 0.77400  0.61420  0.66830  Biso   1.000  H
  H206     1.0000 0.22600  0.38580  0.66830  Biso   1.000  H
  H207     1.0000 0.47600  0.86420  0.91830  Biso   1.000  H
  H208     1.0000 0.52400  0.13580  0.91830  Biso   1.000  H
  H209     1.0000 0.37070  0.08610  0.65140  Biso   1.000  H
  H210     1.0000 0.62930  0.91390  0.65140  Biso   1.000  H
  H211     1.0000 0.87930  0.33610  0.90140  Biso   1.000  H
  H212     1.0000 0.12070  0.66390  0.90140  Biso   1.000  H
  H213     1.0000 0.37070  0.58610  0.15140  Biso   1.000  H
  H214     1.0000 0.62930  0.41390  0.15140  Biso   1.000  H
  H215     1.0000 0.87930  0.83610  0.40140  Biso   1.000  H
  H216     1.0000 0.12070  0.16390  0.40140  Biso   1.000  H
  H217     1.0000 0.87070  0.08610  0.15140  Biso   1.000  H
  H218     1.0000 0.12930  0.91390  0.15140  Biso   1.000  H
  H219     1.0000 0.37930  0.33610  0.40140  Biso   1.000  H
  H220     1.0000 0.62070  0.66390  0.40140  Biso   1.000  H
  H221     1.0000 0.87070  0.58610  0.65140  Biso   1.000  H
  H222     1.0000 0.12930  0.41390  0.65140  Biso   1.000  H
  H223     1.0000 0.37930  0.83610  0.90140  Biso   1.000  H
  H224     1.0000 0.62070  0.16390  0.90140  Biso   1.000  H
  H225     1.0000 0.32070  0.05630  0.66000  Biso   1.000  H
  H226     1.0000 0.67930  0.94370  0.66000  Biso   1.000  H
  H227     1.0000 0.92930  0.30630  0.91000  Biso   1.000  H
  H228     1.0000 0.07070  0.69370  0.91000  Biso   1.000  H
  H229     1.0000 0.32070  0.55630  0.16000  Biso   1.000  H
  H230     1.0000 0.67930  0.44370  0.16000  Biso   1.000  H
  H231     1.0000 0.92930  0.80630  0.41000  Biso   1.000  H
  H232     1.0000 0.07070  0.19370  0.41000  Biso   1.000  H
  H233     1.0000 0.82070  0.05630  0.16000  Biso   1.000  H
  H234     1.0000 0.17930  0.94370  0.16000  Biso   1.000  H
  H235     1.0000 0.42930  0.30630  0.41000  Biso   1.000  H
  H236     1.0000 0.57070  0.69370  0.41000  Biso   1.000  H
  H237     1.0000 0.82070  0.55630  0.66000  Biso   1.000  H
  H238     1.0000 0.17930  0.44370  0.66000  Biso   1.000  H
  H239     1.0000 0.42930  0.80630  0.91000  Biso   1.000  H
  H240     1.0000 0.57070  0.19370  0.91000  Biso   1.000  H
  O113     1.0000 0.99570  0.11290  0.09700  Biso   1.000  O
  O114     1.0000 0.00430  0.88710  0.09700  Biso   1.000  O
  O115     1.0000 0.25430  0.36290  0.34700  Biso   1.000  O
  O116     1.0000 0.74570  0.63710  0.34700  Biso   1.000  O
  O117     1.0000 0.99570  0.61290  0.59700  Biso   1.000  O
  O118     1.0000 0.00430  0.38710  0.59700  Biso   1.000  O
  O119     1.0000 0.25430  0.86290  0.84700  Biso   1.000  O
  O120     1.0000 0.74570  0.13710  0.84700  Biso   1.000  O
  O121     1.0000 0.49570  0.11290  0.59700  Biso   1.000  O
  O122     1.0000 0.50430  0.88710  0.59700  Biso   1.000  O
  O123     1.0000 0.75430  0.36290  0.84700  Biso   1.000  O
  O124     1.0000 0.24570  0.63710  0.84700  Biso   1.000  O
  O125     1.0000 0.49570  0.61290  0.09700  Biso   1.000  O
  O126     1.0000 0.50430  0.38710  0.09700  Biso   1.000  O
  O127     1.0000 0.75430  0.86290  0.34700  Biso   1.000  O
  O128     1.0000 0.24570  0.13710  0.34700  Biso   1.000  O
  H241     1.0000 0.97330  0.13560  0.11760  Biso   1.000  H
  H242     1.0000 0.02670  0.86440  0.11760  Biso   1.000  H
  H243     1.0000 0.27670  0.38560  0.36760  Biso   1.000  H
  H244     1.0000 0.72330  0.61440  0.36760  Biso   1.000  H
  H245     1.0000 0.97330  0.63560  0.61760  Biso   1.000  H
  H246     1.0000 0.02670  0.36440  0.61760  Biso   1.000  H
  H247     1.0000 0.27670  0.88560  0.86760  Biso   1.000  H
  H248     1.0000 0.72330  0.11440  0.86760  Biso   1.000  H
  H249     1.0000 0.47330  0.13560  0.61760  Biso   1.000  H
  H250     1.0000 0.52670  0.86440  0.61760  Biso   1.000  H
  H251     1.0000 0.77670  0.38560  0.86760  Biso   1.000  H
  H252     1.0000 0.22330  0.61440  0.86760  Biso   1.000  H
  H253     1.0000 0.47330  0.63560  0.11760  Biso   1.000  H
  H254     1.0000 0.52670  0.36440  0.11760  Biso   1.000  H
  H255     1.0000 0.77670  0.88560  0.36760  Biso   1.000  H
  H256     1.0000 0.22330  0.11440  0.36760  Biso   1.000  H
  H257     1.0000 0.97330  0.09920  0.96830  Biso   1.000  H
  H258     1.0000 0.02670  0.90080  0.96830  Biso   1.000  H
  H259     1.0000 0.27670  0.34920  0.21830  Biso   1.000  H
  H260     1.0000 0.72330  0.65080  0.21830  Biso   1.000  H
  H261     1.0000 0.97330  0.59920  0.46830  Biso   1.000  H
  H262     1.0000 0.02670  0.40080  0.46830  Biso   1.000  H
  H263     1.0000 0.27670  0.84920  0.71830  Biso   1.000  H
  H264     1.0000 0.72330  0.15080  0.71830  Biso   1.000  H
  H265     1.0000 0.47330  0.09920  0.46830  Biso   1.000  H
  H266     1.0000 0.52670  0.90080  0.46830  Biso   1.000  H
  H267     1.0000 0.77670  0.34920  0.71830  Biso   1.000  H
  H268     1.0000 0.22330  0.65080  0.71830  Biso   1.000  H
  H269     1.0000 0.47330  0.59920  0.96830  Biso   1.000  H
  H270     1.0000 0.52670  0.40080  0.96830  Biso   1.000  H
  H271     1.0000 0.77670  0.84920  0.21830  Biso   1.000  H
  H272     1.0000 0.22330  0.15080  0.21830  Biso   1.000  H
