data_image0
_cell_length_a       9.797
_cell_length_b       12.5007
_cell_length_c       13.9823
_cell_angle_alpha    98.453
_cell_angle_beta     105.171
_cell_angle_gamma    110.736

_symmetry_space_group_name_H-M    "P 1"
_symmetry_int_tables_number       1

loop_
  _symmetry_equiv_pos_as_xyz
  'x, y, z'

loop_
  _atom_site_label
  _atom_site_occupancy
  _atom_site_fract_x
  _atom_site_fract_y
  _atom_site_fract_z
  _atom_site_thermal_displace_type
  _atom_site_B_iso_or_equiv
  _atom_site_type_symbol
  Cu1      1.0000 0.00000  0.50000  0.00000  Biso   1.000  Cu
  Cu2      1.0000 0.50000  0.00000  0.50000  Biso   1.000  Cu
  C1       1.0000 0.05370  0.52990  0.22603  Biso   1.000  C
  C2       1.0000 0.94630  0.47010  0.77397  Biso   1.000  C
  H1       1.0000 0.13740  0.51270  0.22210  Biso   1.000  H
  H2       1.0000 0.86260  0.48730  0.77790  Biso   1.000  H
  C3       1.0000 0.03330  0.54720  0.32080  Biso   1.000  C
  C4       1.0000 0.96670  0.45280  0.67920  Biso   1.000  C
  C5       1.0000 0.91060  0.57640  0.32580  Biso   1.000  C
  C6       1.0000 0.08940  0.42360  0.67420  Biso   1.000  C
  H3       1.0000 0.89340  0.59080  0.38780  Biso   1.000  H
  H4       1.0000 0.10660  0.40920  0.61220  Biso   1.000  H
  C7       1.0000 0.81540  0.58350  0.23820  Biso   1.000  C
  C8       1.0000 0.18460  0.41650  0.76180  Biso   1.000  C
  H5       1.0000 0.73290  0.60310  0.24030  Biso   1.000  H
  H6       1.0000 0.26710  0.39690  0.75970  Biso   1.000  H
  C9       1.0000 0.84190  0.56170  0.14720  Biso   1.000  C
  C10      1.0000 0.15810  0.43830  0.85280  Biso   1.000  C
  H7       1.0000 0.77440  0.56480  0.08790  Biso   1.000  H
  H8       1.0000 0.22560  0.43520  0.91210  Biso   1.000  H
  C11      1.0000 0.13090  0.52520  0.40790  Biso   1.000  C
  C12      1.0000 0.86910  0.47480  0.59210  Biso   1.000  C
  H9       1.0000 0.13760  0.55560  0.47460  Biso   1.000  H
  H10      1.0000 0.86240  0.44440  0.52540  Biso   1.000  H
  C13      1.0000 0.42140  0.21000  0.49740  Biso   1.000  C
  C14      1.0000 0.57860  0.79000  0.50260  Biso   1.000  C
  H11      1.0000 0.38240  0.17440  0.42710  Biso   1.000  H
  H12      1.0000 0.61760  0.82560  0.57290  Biso   1.000  H
  C15      1.0000 0.40640  0.31340  0.53118  Biso   1.000  C
  C16      1.0000 0.59360  0.68660  0.46882  Biso   1.000  C
  C17      1.0000 0.46860  0.36800  0.63640  Biso   1.000  C
  C18      1.0000 0.53140  0.63200  0.36360  Biso   1.000  C
  H13      1.0000 0.46240  0.43850  0.66210  Biso   1.000  H
  H14      1.0000 0.53760  0.56150  0.33790  Biso   1.000  H
  C19      1.0000 0.53870  0.31660  0.70110  Biso   1.000  C
  C20      1.0000 0.46130  0.68340  0.29890  Biso   1.000  C
  H15      1.0000 0.58070  0.35170  0.77160  Biso   1.000  H
  H16      1.0000 0.41930  0.64830  0.22840  Biso   1.000  H
  C21      1.0000 0.54680  0.21260  0.66160  Biso   1.000  C
  C22      1.0000 0.45320  0.78740  0.33840  Biso   1.000  C
  H17      1.0000 0.59410  0.17810  0.70660  Biso   1.000  H
  H18      1.0000 0.40590  0.82190  0.29340  Biso   1.000  H
  C23      1.0000 0.32630  0.36000  0.45560  Biso   1.000  C
  C24      1.0000 0.67370  0.64000  0.54440  Biso   1.000  C
  H19      1.0000 0.30470  0.32770  0.38620  Biso   1.000  H
  H20      1.0000 0.69530  0.67230  0.61380  Biso   1.000  H
  C25      1.0000 0.33680  0.84450  0.03210  Biso   1.000  C
  C26      1.0000 0.66320  0.15550  0.96790  Biso   1.000  C
  C27      1.0000 0.17710  0.74500  0.00478  Biso   1.000  C
  C28      1.0000 0.82290  0.25500  0.99522  Biso   1.000  C
  C29      1.0000 0.05310  0.76170  0.94670  Biso   1.000  C
  C30      1.0000 0.94690  0.23830  0.05330  Biso   1.000  C
  H21      1.0000 0.07390  0.82960  0.92330  Biso   1.000  H
  H22      1.0000 0.92610  0.17040  0.07670  Biso   1.000  H
  C31      1.0000 0.89590  0.68220  0.92020  Biso   1.000  C
  C32      1.0000 0.10410  0.31780  0.07980  Biso   1.000  C
  C33      1.0000 0.77520  0.71900  0.87050  Biso   1.000  C
  C34      1.0000 0.22480  0.28100  0.12950  Biso   1.000  C
  C35      1.0000 0.78050  0.81700  0.83640  Biso   1.000  C
  C36      1.0000 0.21950  0.18300  0.16360  Biso   1.000  C
  H23      1.0000 0.87250  0.87810  0.84150  Biso   1.000  H
  H24      1.0000 0.12750  0.12190  0.15850  Biso   1.000  H
  C37      1.0000 0.63370  0.81660  0.79290  Biso   1.000  C
  C38      1.0000 0.36630  0.18340  0.20710  Biso   1.000  C
  H25      1.0000 0.61730  0.87520  0.76380  Biso   1.000  H
  H26      1.0000 0.38270  0.12480  0.23620  Biso   1.000  H
  C39      1.0000 0.52030  0.72120  0.79870  Biso   1.000  C
  C40      1.0000 0.47970  0.27880  0.20130  Biso   1.000  C
  H27      1.0000 0.41560  0.70610  0.77420  Biso   1.000  H
  H28      1.0000 0.58440  0.29390  0.22580  Biso   1.000  H
  S1       1.0000 0.58817  0.63215  0.85490  Biso   1.000  S
  S2       1.0000 0.41183  0.36785  0.14510  Biso   1.000  S
  C41      1.0000 0.61860  0.66100  0.85200  Biso   1.000  C
  C42      1.0000 0.38140  0.33900  0.14800  Biso   1.000  C
  H29      1.0000 0.57430  0.58920  0.86740  Biso   1.000  H
  H30      1.0000 0.42570  0.41080  0.13260  Biso   1.000  H
  C43      1.0000 0.53300  0.72200  0.80900  Biso   1.000  C
  C44      1.0000 0.46700  0.27800  0.19100  Biso   1.000  C
  H31      1.0000 0.42590  0.69520  0.79210  Biso   1.000  H
  H32      1.0000 0.57410  0.30480  0.20790  Biso   1.000  H
  C45      1.0000 0.62400  0.82300  0.79500  Biso   1.000  C
  C46      1.0000 0.37600  0.17700  0.20500  Biso   1.000  C
  H33      1.0000 0.58670  0.87470  0.76720  Biso   1.000  H
  H34      1.0000 0.41330  0.12530  0.23280  Biso   1.000  H
  S3       1.0000 0.81150  0.84700  0.83330  Biso   1.000  S
  S4       1.0000 0.18850  0.15300  0.16670  Biso   1.000  S
  C47      1.0000 0.80950  0.16990  0.33660  Biso   1.000  C
  C48      1.0000 0.19050  0.83010  0.66340  Biso   1.000  C
  C49      1.0000 0.75380  0.11790  0.41840  Biso   1.000  C
  C50      1.0000 0.24620  0.88210  0.58160  Biso   1.000  C
  C51      1.0000 0.86560  0.12070  0.50440  Biso   1.000  C
  C52      1.0000 0.13440  0.87930  0.49560  Biso   1.000  C
  H35      1.0000 0.96600  0.14310  0.50280  Biso   1.000  H
  H36      1.0000 0.03400  0.85690  0.49720  Biso   1.000  H
  C53      1.0000 0.84120  0.09280  0.59320  Biso   1.000  C
  C54      1.0000 0.15880  0.90720  0.40680  Biso   1.000  C
  C55      1.0000 0.97490  0.10970  0.68090  Biso   1.000  C
  C56      1.0000 0.02510  0.89030  0.31910  Biso   1.000  C
  C57      1.0000 0.11950  0.11830  0.68450  Biso   1.000  C
  C58      1.0000 0.88050  0.88170  0.31550  Biso   1.000  C
  H37      1.0000 0.14940  0.11160  0.62680  Biso   1.000  H
  H38      1.0000 0.85060  0.88840  0.37320  Biso   1.000  H
  C59      1.0000 0.21810  0.13850  0.78480  Biso   1.000  C
  C60      1.0000 0.78190  0.86150  0.21520  Biso   1.000  C
  H39      1.0000 0.32120  0.14900  0.80090  Biso   1.000  H
  H40      1.0000 0.67880  0.85100  0.19910  Biso   1.000  H
  C61      1.0000 0.14700  0.14080  0.85530  Biso   1.000  C
  C62      1.0000 0.85300  0.85920  0.14470  Biso   1.000  C
  H41      1.0000 0.19450  0.15270  0.92520  Biso   1.000  H
  H42      1.0000 0.80550  0.84730  0.07480  Biso   1.000  H
  S5       1.0000 0.95748  0.11884  0.79931  Biso   1.000  S
  S6       1.0000 0.04252  0.88116  0.20069  Biso   1.000  S
  C63      1.0000 0.96300  0.10200  0.77550  Biso   1.000  C
  C64      1.0000 0.03700  0.89800  0.22450  Biso   1.000  C
  H43      1.0000 0.87260  0.08970  0.79080  Biso   1.000  H
  H44      1.0000 0.12740  0.91030  0.20920  Biso   1.000  H
  C65      1.0000 0.10200  0.11400  0.84660  Biso   1.000  C
  C66      1.0000 0.89800  0.88600  0.15340  Biso   1.000  C
  H45      1.0000 0.11530  0.11090  0.91430  Biso   1.000  H
  H46      1.0000 0.88470  0.88910  0.08570  Biso   1.000  H
  C67      1.0000 0.21600  0.13100  0.80490  Biso   1.000  C
  C68      1.0000 0.78400  0.86900  0.19510  Biso   1.000  C
  H47      1.0000 0.31580  0.14030  0.84030  Biso   1.000  H
  H48      1.0000 0.68420  0.85970  0.15970  Biso   1.000  H
  S7       1.0000 0.15210  0.13100  0.67810  Biso   1.000  S
  S8       1.0000 0.84790  0.86900  0.32190  Biso   1.000  S
  F1       1.0000 0.40320  0.88900  0.13038  Biso   1.000  F
  F2       1.0000 0.59680  0.11100  0.86962  Biso   1.000  F
  F3       1.0000 0.33810  0.93470  0.99420  Biso   1.000  F
  F4       1.0000 0.66190  0.06530  0.00580  Biso   1.000  F
  F5       1.0000 0.42930  0.80740  0.00100  Biso   1.000  F
  F6       1.0000 0.57070  0.19260  0.99900  Biso   1.000  F
  F7       1.0000 0.82090  0.28127  0.34961  Biso   1.000  F
  F8       1.0000 0.17910  0.71873  0.65039  Biso   1.000  F
  F9       1.0000 0.71240  0.11160  0.24276  Biso   1.000  F
  F10      1.0000 0.28760  0.88840  0.75724  Biso   1.000  F
  F11      1.0000 0.94820  0.17450  0.33819  Biso   1.000  F
  F12      1.0000 0.05180  0.82550  0.66181  Biso   1.000  F
  N1       1.0000 0.96140  0.53615  0.14054  Biso   1.000  N
  N2       1.0000 0.03860  0.46385  0.85946  Biso   1.000  N
  N3       1.0000 0.20540  0.46480  0.39160  Biso   1.000  N
  N4       1.0000 0.79460  0.53520  0.60840  Biso   1.000  N
  N5       1.0000 0.28510  0.44160  0.48007  Biso   1.000  N
  N6       1.0000 0.71490  0.55840  0.51993  Biso   1.000  N
  N7       1.0000 0.48840  0.15830  0.55963  Biso   1.000  N
  N8       1.0000 0.51160  0.84170  0.44037  Biso   1.000  N
  O1       1.0000 0.18100  0.66011  0.04207  Biso   1.000  O
  O2       1.0000 0.81900  0.33989  0.95793  Biso   1.000  O
  O3       1.0000 0.85140  0.58207  0.93750  Biso   1.000  O
  O4       1.0000 0.14860  0.41793  0.06250  Biso   1.000  O
  O5       1.0000 0.61080  0.08233  0.39875  Biso   1.000  O
  O6       1.0000 0.38920  0.91767  0.60125  Biso   1.000  O
  O7       1.0000 0.71100  0.05473  0.60634  Biso   1.000  O
  O8       1.0000 0.28900  0.94527  0.39366  Biso   1.000  O
