data_image0
_cell_length_a       11.0976
_cell_length_b       21.503
_cell_length_c       11.5931
_cell_angle_alpha    90
_cell_angle_beta     117.417
_cell_angle_gamma    90

_symmetry_space_group_name_H-M    "P 1"
_symmetry_int_tables_number       1

loop_
  _symmetry_equiv_pos_as_xyz
  'x, y, z'

loop_
  _atom_site_label
  _atom_site_occupancy
  _atom_site_fract_x
  _atom_site_fract_y
  _atom_site_fract_z
  _atom_site_thermal_displace_type
  _atom_site_B_iso_or_equiv
  _atom_site_type_symbol
  Cu1      1.0000 0.05342  0.15934  0.98613  Biso   1.000  Cu
  Cu2      1.0000 0.44658  0.65934  0.51387  Biso   1.000  Cu
  Cu3      1.0000 0.94658  0.84066  0.01387  Biso   1.000  Cu
  Cu4      1.0000 0.55342  0.34066  0.48613  Biso   1.000  Cu
  F1       1.0000 0.50220  0.13632  0.77830  Biso   1.000  F
  F2       1.0000 0.99780  0.63632  0.72170  Biso   1.000  F
  F3       1.0000 0.49780  0.86368  0.22170  Biso   1.000  F
  F4       1.0000 0.00220  0.36368  0.27830  Biso   1.000  F
  F5       1.0000 0.31120  0.15087  0.61480  Biso   1.000  F
  F6       1.0000 0.18880  0.65087  0.88520  Biso   1.000  F
  F7       1.0000 0.68880  0.84913  0.38520  Biso   1.000  F
  F8       1.0000 0.81120  0.34913  0.11480  Biso   1.000  F
  F9       1.0000 0.40290  0.22511  0.74700  Biso   1.000  F
  F10      1.0000 0.09710  0.72511  0.75300  Biso   1.000  F
  F11      1.0000 0.59710  0.77489  0.25300  Biso   1.000  F
  F12      1.0000 0.90290  0.27489  0.24700  Biso   1.000  F
  F13      1.0000 0.71700  0.13842  0.30111  Biso   1.000  F
  F14      1.0000 0.78300  0.63842  0.19889  Biso   1.000  F
  F15      1.0000 0.28300  0.86158  0.69889  Biso   1.000  F
  F16      1.0000 0.21700  0.36158  0.80111  Biso   1.000  F
  F17      1.0000 0.60619  0.07343  0.14950  Biso   1.000  F
  F18      1.0000 0.89381  0.57343  0.35050  Biso   1.000  F
  F19      1.0000 0.39381  0.92657  0.85050  Biso   1.000  F
  F20      1.0000 0.10619  0.42657  0.64950  Biso   1.000  F
  F21      1.0000 0.60259  0.17077  0.10480  Biso   1.000  F
  F22      1.0000 0.89741  0.67077  0.39520  Biso   1.000  F
  F23      1.0000 0.39741  0.82923  0.89520  Biso   1.000  F
  F24      1.0000 0.10259  0.32923  0.60480  Biso   1.000  F
  N1       1.0000 0.82680  0.15487  0.07610  Biso   1.000  N
  N2       1.0000 0.67320  0.65487  0.42390  Biso   1.000  N
  N3       1.0000 0.17320  0.84513  0.92390  Biso   1.000  N
  N4       1.0000 0.32680  0.34513  0.57610  Biso   1.000  N
  N5       1.0000 0.93960  0.13329  0.07280  Biso   1.000  N
  N6       1.0000 0.56040  0.63329  0.42720  Biso   1.000  N
  N7       1.0000 0.06040  0.86671  0.92720  Biso   1.000  N
  N8       1.0000 0.43960  0.36671  0.57280  Biso   1.000  N
  N9       1.0000 0.13540  0.07719  0.06230  Biso   1.000  N
  N10      1.0000 0.36460  0.57719  0.43770  Biso   1.000  N
  N11      1.0000 0.86460  0.92281  0.93770  Biso   1.000  N
  N12      1.0000 0.63540  0.42281  0.56230  Biso   1.000  N
  N13      1.0000 0.17840  0.14491  0.90350  Biso   1.000  N
  N14      1.0000 0.32160  0.64491  0.59650  Biso   1.000  N
  N15      1.0000 0.82160  0.85509  0.09650  Biso   1.000  N
  N16      1.0000 0.67840  0.35509  0.40350  Biso   1.000  N
  N17      1.0000 0.21900  0.17765  0.82690  Biso   1.000  N
  N18      1.0000 0.28100  0.67765  0.67310  Biso   1.000  N
  N19      1.0000 0.78100  0.82235  0.17310  Biso   1.000  N
  N20      1.0000 0.71900  0.32235  0.32690  Biso   1.000  N
  N21      1.0000 0.22850  0.21412  0.16660  Biso   1.000  N
  N22      1.0000 0.27150  0.71412  0.33340  Biso   1.000  N
  N23      1.0000 0.77150  0.78588  0.83340  Biso   1.000  N
  N24      1.0000 0.72850  0.28588  0.66660  Biso   1.000  N
  N25      1.0000 0.41930  0.27726  0.35650  Biso   1.000  N
  N26      1.0000 0.08070  0.77726  0.14350  Biso   1.000  N
  N27      1.0000 0.58070  0.72274  0.64350  Biso   1.000  N
  N28      1.0000 0.91930  0.22274  0.85650  Biso   1.000  N
  C1       1.0000 0.80310  0.11571  0.15420  Biso   1.000  C
  C2       1.0000 0.69690  0.61571  0.34580  Biso   1.000  C
  C3       1.0000 0.19690  0.88429  0.84580  Biso   1.000  C
  C4       1.0000 0.30310  0.38429  0.65420  Biso   1.000  C
  C5       1.0000 0.89870  0.06791  0.20180  Biso   1.000  C
  C6       1.0000 0.60130  0.56791  0.29820  Biso   1.000  C
  C7       1.0000 0.10130  0.93209  0.79820  Biso   1.000  C
  C8       1.0000 0.39870  0.43209  0.70180  Biso   1.000  C
  H1       1.0000 0.90430  0.03460  0.25790  Biso   1.000  H
  H2       1.0000 0.59570  0.53460  0.24210  Biso   1.000  H
  H3       1.0000 0.09570  0.96540  0.74210  Biso   1.000  H
  H4       1.0000 0.40430  0.46540  0.75790  Biso   1.000  H
  C9       1.0000 0.98310  0.08112  0.14720  Biso   1.000  C
  C10      1.0000 0.51690  0.58112  0.35280  Biso   1.000  C
  C11      1.0000 0.01690  0.91888  0.85280  Biso   1.000  C
  C12      1.0000 0.48310  0.41888  0.64720  Biso   1.000  C
  C13      1.0000 0.09710  0.04910  0.14400  Biso   1.000  C
  C14      1.0000 0.40290  0.54910  0.35600  Biso   1.000  C
  C15      1.0000 0.90290  0.95090  0.85600  Biso   1.000  C
  C16      1.0000 0.59710  0.45090  0.64400  Biso   1.000  C
  C17      1.0000 0.16320  0.99530  0.20930  Biso   1.000  C
  C18      1.0000 0.33680  0.49530  0.29070  Biso   1.000  C
  C19      1.0000 0.83680  0.00470  0.79070  Biso   1.000  C
  C20      1.0000 0.66320  0.50470  0.70930  Biso   1.000  C
  H5       1.0000 0.13710  0.97490  0.26700  Biso   1.000  H
  H6       1.0000 0.36290  0.47490  0.23300  Biso   1.000  H
  H7       1.0000 0.86290  0.02510  0.73300  Biso   1.000  H
  H8       1.0000 0.63710  0.52510  0.76700  Biso   1.000  H
  C21      1.0000 0.26780  0.97222  0.18820  Biso   1.000  C
  C22      1.0000 0.23220  0.47222  0.31180  Biso   1.000  C
  C23      1.0000 0.73220  0.02778  0.81180  Biso   1.000  C
  C24      1.0000 0.76780  0.52778  0.68820  Biso   1.000  C
  H9       1.0000 0.31700  0.93680  0.23520  Biso   1.000  H
  H10      1.0000 0.18300  0.43680  0.26480  Biso   1.000  H
  H11      1.0000 0.68300  0.06320  0.76480  Biso   1.000  H
  H12      1.0000 0.81700  0.56320  0.73520  Biso   1.000  H
  C25      1.0000 0.30150  0.00026  0.09930  Biso   1.000  C
  C26      1.0000 0.19850  0.50026  0.40070  Biso   1.000  C
  C27      1.0000 0.69850  0.99974  0.90070  Biso   1.000  C
  C28      1.0000 0.80150  0.49974  0.59930  Biso   1.000  C
  H13      1.0000 0.37050  0.98340  0.08180  Biso   1.000  H
  H14      1.0000 0.12950  0.48340  0.41820  Biso   1.000  H
  H15      1.0000 0.62950  0.01660  0.91820  Biso   1.000  H
  H16      1.0000 0.87050  0.51660  0.58180  Biso   1.000  H
  C29      1.0000 0.23170  0.05381  0.03650  Biso   1.000  C
  C30      1.0000 0.26830  0.55381  0.46350  Biso   1.000  C
  C31      1.0000 0.76830  0.94619  0.96350  Biso   1.000  C
  C32      1.0000 0.73170  0.44619  0.53650  Biso   1.000  C
  C33      1.0000 0.25220  0.09136  0.94250  Biso   1.000  C
  C34      1.0000 0.24780  0.59136  0.55750  Biso   1.000  C
  C35      1.0000 0.74780  0.90864  0.05750  Biso   1.000  C
  C36      1.0000 0.75220  0.40864  0.44250  Biso   1.000  C
  C37      1.0000 0.34030  0.08789  0.88990  Biso   1.000  C
  C38      1.0000 0.15970  0.58789  0.61010  Biso   1.000  C
  C39      1.0000 0.65970  0.91211  0.11010  Biso   1.000  C
  C40      1.0000 0.84030  0.41211  0.38990  Biso   1.000  C
  H17      1.0000 0.40270  0.05570  0.89900  Biso   1.000  H
  H18      1.0000 0.09730  0.55570  0.60100  Biso   1.000  H
  H19      1.0000 0.59730  0.94430  0.10100  Biso   1.000  H
  H20      1.0000 0.90270  0.44430  0.39900  Biso   1.000  H
  C41      1.0000 0.31600  0.14286  0.82030  Biso   1.000  C
  C42      1.0000 0.18400  0.64286  0.67970  Biso   1.000  C
  C43      1.0000 0.68400  0.85714  0.17970  Biso   1.000  C
  C44      1.0000 0.81600  0.35714  0.32030  Biso   1.000  C
  C45      1.0000 0.38290  0.16453  0.74230  Biso   1.000  C
  C46      1.0000 0.11710  0.66453  0.75770  Biso   1.000  C
  C47      1.0000 0.61710  0.83547  0.25770  Biso   1.000  C
  C48      1.0000 0.88290  0.33547  0.24230  Biso   1.000  C
  C49      1.0000 0.68340  0.12529  0.17620  Biso   1.000  C
  C50      1.0000 0.81660  0.62529  0.32380  Biso   1.000  C
  C51      1.0000 0.31660  0.87471  0.82380  Biso   1.000  C
  C52      1.0000 0.18340  0.37471  0.67620  Biso   1.000  C
  C53      1.0000 0.36530  0.19620  0.18660  Biso   1.000  C
  C54      1.0000 0.13470  0.69620  0.31340  Biso   1.000  C
  C55      1.0000 0.63470  0.80380  0.81340  Biso   1.000  C
  C56      1.0000 0.86530  0.30380  0.68660  Biso   1.000  C
  H21      1.0000 0.36860  0.19870  0.10280  Biso   1.000  H
  H22      1.0000 0.13140  0.69870  0.39720  Biso   1.000  H
  H23      1.0000 0.63140  0.80130  0.89720  Biso   1.000  H
  H24      1.0000 0.86860  0.30130  0.60280  Biso   1.000  H
  H25      1.0000 0.38370  0.15260  0.21720  Biso   1.000  H
  H26      1.0000 0.11630  0.65260  0.28280  Biso   1.000  H
  H27      1.0000 0.61630  0.84740  0.78280  Biso   1.000  H
  H28      1.0000 0.88370  0.34740  0.71720  Biso   1.000  H
  C57      1.0000 0.47580  0.23862  0.28660  Biso   1.000  C
  C58      1.0000 0.02420  0.73862  0.21340  Biso   1.000  C
  C59      1.0000 0.52420  0.76138  0.71340  Biso   1.000  C
  C60      1.0000 0.97580  0.26138  0.78660  Biso   1.000  C
  H29      1.0000 0.55120  0.21280  0.34990  Biso   1.000  H
  H30      1.0000 0.94880  0.71280  0.15010  Biso   1.000  H
  H31      1.0000 0.44880  0.78720  0.65010  Biso   1.000  H
  H32      1.0000 0.05120  0.28720  0.84990  Biso   1.000  H
  H33      1.0000 0.51260  0.26600  0.24170  Biso   1.000  H
  H34      1.0000 0.98740  0.76600  0.25830  Biso   1.000  H
  H35      1.0000 0.48740  0.73400  0.75830  Biso   1.000  H
  H36      1.0000 0.01260  0.23400  0.74170  Biso   1.000  H
  C61      1.0000 0.22490  0.20398  0.29140  Biso   1.000  C
  C62      1.0000 0.27510  0.70398  0.20860  Biso   1.000  C
  C63      1.0000 0.77510  0.79602  0.70860  Biso   1.000  C
  C64      1.0000 0.72490  0.29602  0.79140  Biso   1.000  C
  H37      1.0000 0.22370  0.15880  0.30710  Biso   1.000  H
  H38      1.0000 0.27630  0.65880  0.19290  Biso   1.000  H
  H39      1.0000 0.77630  0.84120  0.69290  Biso   1.000  H
  H40      1.0000 0.72370  0.34120  0.80710  Biso   1.000  H
  H41      1.0000 0.14070  0.22230  0.28630  Biso   1.000  H
  H42      1.0000 0.35930  0.72230  0.21370  Biso   1.000  H
  H43      1.0000 0.85930  0.77770  0.71370  Biso   1.000  H
  H44      1.0000 0.64070  0.27770  0.78630  Biso   1.000  H
  C65      1.0000 0.34930  0.23380  0.40600  Biso   1.000  C
  C66      1.0000 0.15070  0.73380  0.09400  Biso   1.000  C
  C67      1.0000 0.65070  0.76620  0.59400  Biso   1.000  C
  C68      1.0000 0.84930  0.26620  0.90600  Biso   1.000  C
  H45      1.0000 0.31950  0.25670  0.46240  Biso   1.000  H
  H46      1.0000 0.18050  0.75670  0.03760  Biso   1.000  H
  H47      1.0000 0.68050  0.74330  0.53760  Biso   1.000  H
  H48      1.0000 0.81950  0.24330  0.96240  Biso   1.000  H
  H49      1.0000 0.41320  0.20080  0.45860  Biso   1.000  H
  H50      1.0000 0.08680  0.70080  0.04140  Biso   1.000  H
  H51      1.0000 0.58680  0.79920  0.54140  Biso   1.000  H
  H52      1.0000 0.91320  0.29920  0.95860  Biso   1.000  H
  C69      1.0000 0.21420  0.28173  0.14090  Biso   1.000  C
  C70      1.0000 0.28580  0.78173  0.35910  Biso   1.000  C
  C71      1.0000 0.78580  0.71827  0.85910  Biso   1.000  C
  C72      1.0000 0.71420  0.21827  0.64090  Biso   1.000  C
  H53      1.0000 0.12020  0.29460  0.11810  Biso   1.000  H
  H54      1.0000 0.37980  0.79460  0.38190  Biso   1.000  H
  H55      1.0000 0.87980  0.70540  0.88190  Biso   1.000  H
  H56      1.0000 0.62020  0.20540  0.61810  Biso   1.000  H
  H57      1.0000 0.23090  0.29110  0.06590  Biso   1.000  H
  H58      1.0000 0.26910  0.79110  0.43410  Biso   1.000  H
  H59      1.0000 0.76910  0.70890  0.93410  Biso   1.000  H
  H60      1.0000 0.73090  0.20890  0.56590  Biso   1.000  H
  C73      1.0000 0.31440  0.31900  0.26000  Biso   1.000  C
  C74      1.0000 0.18560  0.81900  0.24000  Biso   1.000  C
  C75      1.0000 0.68560  0.68100  0.74000  Biso   1.000  C
  C76      1.0000 0.81440  0.18100  0.76000  Biso   1.000  C
  H61      1.0000 0.35890  0.35130  0.23190  Biso   1.000  H
  H62      1.0000 0.14110  0.85130  0.26810  Biso   1.000  H
  H63      1.0000 0.64110  0.64870  0.76810  Biso   1.000  H
  H64      1.0000 0.85890  0.14870  0.73190  Biso   1.000  H
  H65      1.0000 0.26430  0.34010  0.30080  Biso   1.000  H
  H66      1.0000 0.23570  0.84010  0.19920  Biso   1.000  H
  H67      1.0000 0.73570  0.65990  0.69920  Biso   1.000  H
  H68      1.0000 0.76430  0.15990  0.80080  Biso   1.000  H
  N29      1.0000 0.97140  0.07924  0.59180  Biso   1.000  N
  N30      1.0000 0.52860  0.57924  0.90820  Biso   1.000  N
  N31      1.0000 0.02860  0.92076  0.40820  Biso   1.000  N
  N32      1.0000 0.47140  0.42076  0.09180  Biso   1.000  N
  C77      1.0000 0.00150  0.18222  0.49130  Biso   1.000  C
  C78      1.0000 0.49850  0.68222  0.00870  Biso   1.000  C
  C79      1.0000 0.99850  0.81778  0.50870  Biso   1.000  C
  C80      1.0000 0.50150  0.31778  0.99130  Biso   1.000  C
  H69      1.0000 0.00870  0.17340  0.41180  Biso   1.000  H
  H70      1.0000 0.49130  0.67340  0.08820  Biso   1.000  H
  H71      1.0000 0.99130  0.82660  0.58820  Biso   1.000  H
  H72      1.0000 0.50870  0.32660  0.91180  Biso   1.000  H
  H73      1.0000 0.08400  0.20340  0.55400  Biso   1.000  H
  H74      1.0000 0.41600  0.70340  0.94600  Biso   1.000  H
  H75      1.0000 0.91600  0.79660  0.44600  Biso   1.000  H
  H76      1.0000 0.58400  0.29660  0.05400  Biso   1.000  H
  H77      1.0000 0.92260  0.20900  0.47060  Biso   1.000  H
  H78      1.0000 0.57740  0.70900  0.02940  Biso   1.000  H
  H79      1.0000 0.07740  0.79100  0.52940  Biso   1.000  H
  H80      1.0000 0.42260  0.29100  0.97060  Biso   1.000  H
  C81      1.0000 0.98510  0.12397  0.54730  Biso   1.000  C
  C82      1.0000 0.51490  0.62397  0.95270  Biso   1.000  C
  C83      1.0000 0.01490  0.87603  0.45270  Biso   1.000  C
  C84      1.0000 0.48510  0.37603  0.04730  Biso   1.000  C
  N33      1.0000 0.05000  0.41126  0.98070  Biso   1.000  N
  N34      1.0000 0.45000  0.91126  0.51930  Biso   1.000  N
  N35      1.0000 0.95000  0.58874  0.01930  Biso   1.000  N
  N36      1.0000 0.55000  0.08874  0.48070  Biso   1.000  N
  C85      1.0000 0.16770  0.50313  0.92920  Biso   1.000  C
  C86      1.0000 0.33230  0.00313  0.57080  Biso   1.000  C
  C87      1.0000 0.83230  0.49687  0.07080  Biso   1.000  C
  C88      1.0000 0.66770  0.99687  0.42920  Biso   1.000  C
  H81      1.0000 0.16470  0.53980  0.97810  Biso   1.000  H
  H82      1.0000 0.33530  0.03980  0.52190  Biso   1.000  H
  H83      1.0000 0.83530  0.46020  0.02190  Biso   1.000  H
  H84      1.0000 0.66470  0.96020  0.47810  Biso   1.000  H
  H85      1.0000 0.12040  0.51230  0.83600  Biso   1.000  H
  H86      1.0000 0.37960  0.01230  0.66400  Biso   1.000  H
  H87      1.0000 0.87960  0.48770  0.16400  Biso   1.000  H
  H88      1.0000 0.62040  0.98770  0.33600  Biso   1.000  H
  H89      1.0000 0.26250  0.49240  0.95460  Biso   1.000  H
  H90      1.0000 0.23750  0.99240  0.54540  Biso   1.000  H
  H91      1.0000 0.73750  0.50760  0.04540  Biso   1.000  H
  H92      1.0000 0.76250  0.00760  0.45460  Biso   1.000  H
  C89      1.0000 0.10200  0.45128  0.95730  Biso   1.000  C
  C90      1.0000 0.39800  0.95128  0.54270  Biso   1.000  C
  C91      1.0000 0.89800  0.54872  0.04270  Biso   1.000  C
  C92      1.0000 0.60200  0.04872  0.45730  Biso   1.000  C
