data_image0
_cell_length_a       17.03
_cell_length_b       6.665
_cell_length_c       17.469
_cell_angle_alpha    90
_cell_angle_beta     111.13
_cell_angle_gamma    90

_symmetry_space_group_name_H-M    "P 1"
_symmetry_int_tables_number       1

loop_
  _symmetry_equiv_pos_as_xyz
  'x, y, z'

loop_
  _atom_site_label
  _atom_site_occupancy
  _atom_site_fract_x
  _atom_site_fract_y
  _atom_site_fract_z
  _atom_site_thermal_displace_type
  _atom_site_B_iso_or_equiv
  _atom_site_type_symbol
  Cu1      1.0000 0.12177  0.09233  0.20431  Biso   1.000  Cu
  Cu2      1.0000 0.62177  0.59233  0.20431  Biso   1.000  Cu
  Cu3      1.0000 0.87823  0.09233  0.29569  Biso   1.000  Cu
  Cu4      1.0000 0.37823  0.59233  0.29569  Biso   1.000  Cu
  Cu5      1.0000 0.87823  0.90767  0.79569  Biso   1.000  Cu
  Cu6      1.0000 0.37823  0.40767  0.79569  Biso   1.000  Cu
  Cu7      1.0000 0.12177  0.90767  0.70431  Biso   1.000  Cu
  Cu8      1.0000 0.62177  0.40767  0.70431  Biso   1.000  Cu
  O1       1.0000 0.00669  0.17006  0.14914  Biso   1.000  O
  O2       1.0000 0.50669  0.67006  0.14914  Biso   1.000  O
  O3       1.0000 0.99331  0.17006  0.35086  Biso   1.000  O
  O4       1.0000 0.49331  0.67006  0.35086  Biso   1.000  O
  O5       1.0000 0.99331  0.82994  0.85086  Biso   1.000  O
  O6       1.0000 0.49331  0.32994  0.85086  Biso   1.000  O
  O7       1.0000 0.00669  0.82994  0.64914  Biso   1.000  O
  O8       1.0000 0.50669  0.32994  0.64914  Biso   1.000  O
  O9       1.0000 0.22996  0.95168  0.24576  Biso   1.000  O
  O10      1.0000 0.72996  0.45168  0.24576  Biso   1.000  O
  O11      1.0000 0.77004  0.95168  0.25424  Biso   1.000  O
  O12      1.0000 0.27004  0.45168  0.25424  Biso   1.000  O
  O13      1.0000 0.77004  0.04832  0.75424  Biso   1.000  O
  O14      1.0000 0.27004  0.54832  0.75424  Biso   1.000  O
  O15      1.0000 0.22996  0.04832  0.74576  Biso   1.000  O
  O16      1.0000 0.72996  0.54832  0.74576  Biso   1.000  O
  O17      1.0000 0.15642  0.37912  0.28347  Biso   1.000  O
  O18      1.0000 0.65642  0.87912  0.28347  Biso   1.000  O
  O19      1.0000 0.84358  0.37912  0.21653  Biso   1.000  O
  O20      1.0000 0.34358  0.87912  0.21653  Biso   1.000  O
  O21      1.0000 0.84358  0.62088  0.71653  Biso   1.000  O
  O22      1.0000 0.34358  0.12088  0.71653  Biso   1.000  O
  O23      1.0000 0.15642  0.62088  0.78347  Biso   1.000  O
  O24      1.0000 0.65642  0.12088  0.78347  Biso   1.000  O
  O25      1.0000 0.09484  0.96834  0.29722  Biso   1.000  O
  O26      1.0000 0.59484  0.46834  0.29722  Biso   1.000  O
  O27      1.0000 0.90516  0.96834  0.20278  Biso   1.000  O
  O28      1.0000 0.40516  0.46834  0.20278  Biso   1.000  O
  O29      1.0000 0.90516  0.03166  0.70278  Biso   1.000  O
  O30      1.0000 0.40516  0.53166  0.70278  Biso   1.000  O
  O31      1.0000 0.09484  0.03166  0.79722  Biso   1.000  O
  O32      1.0000 0.59484  0.53166  0.79722  Biso   1.000  O
  O33      1.0000 0.50000  0.09434  0.25000  Biso   1.000  O
  O34      1.0000 0.00000  0.59434  0.25000  Biso   1.000  O
  O35      1.0000 0.50000  0.90566  0.75000  Biso   1.000  O
  O36      1.0000 0.00000  0.40566  0.75000  Biso   1.000  O
  N1       1.0000 0.15266  0.14282  0.10974  Biso   1.000  N
  N2       1.0000 0.65266  0.64282  0.10974  Biso   1.000  N
  N3       1.0000 0.84734  0.14282  0.39026  Biso   1.000  N
  N4       1.0000 0.34734  0.64282  0.39026  Biso   1.000  N
  N5       1.0000 0.84734  0.85718  0.89026  Biso   1.000  N
  N6       1.0000 0.34734  0.35718  0.89026  Biso   1.000  N
  N7       1.0000 0.15266  0.85718  0.60974  Biso   1.000  N
  N8       1.0000 0.65266  0.35718  0.60974  Biso   1.000  N
  C1       1.0000 0.27431  0.96440  0.20111  Biso   1.000  C
  C2       1.0000 0.77431  0.46440  0.20111  Biso   1.000  C
  C3       1.0000 0.72569  0.96440  0.29889  Biso   1.000  C
  C4       1.0000 0.22569  0.46440  0.29889  Biso   1.000  C
  C5       1.0000 0.72569  0.03560  0.79889  Biso   1.000  C
  C6       1.0000 0.22569  0.53560  0.79889  Biso   1.000  C
  C7       1.0000 0.27431  0.03560  0.70111  Biso   1.000  C
  C8       1.0000 0.77431  0.53560  0.70111  Biso   1.000  C
  C9       1.0000 0.24067  0.09799  0.12535  Biso   1.000  C
  C10      1.0000 0.74067  0.59799  0.12535  Biso   1.000  C
  C11      1.0000 0.75933  0.09799  0.37465  Biso   1.000  C
  C12      1.0000 0.25933  0.59799  0.37465  Biso   1.000  C
  C13      1.0000 0.75933  0.90201  0.87465  Biso   1.000  C
  C14      1.0000 0.25933  0.40201  0.87465  Biso   1.000  C
  C15      1.0000 0.24067  0.90201  0.62535  Biso   1.000  C
  C16      1.0000 0.74067  0.40201  0.62535  Biso   1.000  C
  C17      1.0000 0.10235  0.18757  0.03717  Biso   1.000  C
  C18      1.0000 0.60235  0.68757  0.03717  Biso   1.000  C
  C19      1.0000 0.89765  0.18757  0.46283  Biso   1.000  C
  C20      1.0000 0.39765  0.68757  0.46283  Biso   1.000  C
  C21      1.0000 0.89765  0.81243  0.96283  Biso   1.000  C
  C22      1.0000 0.39765  0.31243  0.96283  Biso   1.000  C
  C23      1.0000 0.10235  0.81243  0.53717  Biso   1.000  C
  C24      1.0000 0.60235  0.31243  0.53717  Biso   1.000  C
  C25      1.0000 0.01418  0.23492  0.01529  Biso   1.000  C
  C26      1.0000 0.51418  0.73492  0.01529  Biso   1.000  C
  C27      1.0000 0.98582  0.23492  0.48471  Biso   1.000  C
  C28      1.0000 0.48582  0.73492  0.48471  Biso   1.000  C
  C29      1.0000 0.98582  0.76508  0.98471  Biso   1.000  C
  C30      1.0000 0.48582  0.26508  0.98471  Biso   1.000  C
  C31      1.0000 0.01418  0.76508  0.51529  Biso   1.000  C
  C32      1.0000 0.51418  0.26508  0.51529  Biso   1.000  C
  C33      1.0000 0.97046  0.29369  0.93359  Biso   1.000  C
  C34      1.0000 0.47046  0.79369  0.93359  Biso   1.000  C
  C35      1.0000 0.02954  0.29369  0.56641  Biso   1.000  C
  C36      1.0000 0.52954  0.79369  0.56641  Biso   1.000  C
  C37      1.0000 0.02954  0.70631  0.06641  Biso   1.000  C
  C38      1.0000 0.52954  0.20631  0.06641  Biso   1.000  C
  C39      1.0000 0.97046  0.70631  0.43359  Biso   1.000  C
  C40      1.0000 0.47046  0.20631  0.43359  Biso   1.000  C
  C41      1.0000 0.88636  0.34745  0.90622  Biso   1.000  C
  C42      1.0000 0.38636  0.84745  0.90622  Biso   1.000  C
  C43      1.0000 0.11364  0.34745  0.59378  Biso   1.000  C
  C44      1.0000 0.61364  0.84745  0.59378  Biso   1.000  C
  C45      1.0000 0.11364  0.65255  0.09378  Biso   1.000  C
  C46      1.0000 0.61364  0.15255  0.09378  Biso   1.000  C
  C47      1.0000 0.88636  0.65255  0.40622  Biso   1.000  C
  C48      1.0000 0.38636  0.15255  0.40622  Biso   1.000  C
  C49      1.0000 0.84429  0.34333  0.96199  Biso   1.000  C
  C50      1.0000 0.34429  0.84333  0.96199  Biso   1.000  C
  C51      1.0000 0.15571  0.34333  0.53801  Biso   1.000  C
  C52      1.0000 0.65571  0.84333  0.53801  Biso   1.000  C
  C53      1.0000 0.15571  0.65667  0.03801  Biso   1.000  C
  C54      1.0000 0.65571  0.15667  0.03801  Biso   1.000  C
  C55      1.0000 0.84429  0.65667  0.46199  Biso   1.000  C
  C56      1.0000 0.34429  0.15667  0.46199  Biso   1.000  C
  C57      1.0000 0.88565  0.28401  0.04274  Biso   1.000  C
  C58      1.0000 0.38565  0.78401  0.04274  Biso   1.000  C
  C59      1.0000 0.11435  0.28401  0.45726  Biso   1.000  C
  C60      1.0000 0.61435  0.78401  0.45726  Biso   1.000  C
  C61      1.0000 0.11435  0.71599  0.95726  Biso   1.000  C
  C62      1.0000 0.61435  0.21599  0.95726  Biso   1.000  C
  C63      1.0000 0.88565  0.71599  0.54274  Biso   1.000  C
  C64      1.0000 0.38565  0.21599  0.54274  Biso   1.000  C
  C65      1.0000 0.97135  0.22758  0.07162  Biso   1.000  C
  C66      1.0000 0.47135  0.72758  0.07162  Biso   1.000  C
  C67      1.0000 0.02865  0.22758  0.42838  Biso   1.000  C
  C68      1.0000 0.52865  0.72758  0.42838  Biso   1.000  C
  C69      1.0000 0.02865  0.77242  0.92838  Biso   1.000  C
  C70      1.0000 0.52865  0.27242  0.92838  Biso   1.000  C
  C71      1.0000 0.97135  0.77242  0.57162  Biso   1.000  C
  C72      1.0000 0.47135  0.27242  0.57162  Biso   1.000  C
  H1       1.0000 0.06770  0.83910  0.28527  Biso   1.000  H
  H2       1.0000 0.56770  0.33910  0.28527  Biso   1.000  H
  H3       1.0000 0.93230  0.83910  0.21473  Biso   1.000  H
  H4       1.0000 0.43230  0.33910  0.21473  Biso   1.000  H
  H5       1.0000 0.93230  0.16090  0.71473  Biso   1.000  H
  H6       1.0000 0.43230  0.66090  0.71473  Biso   1.000  H
  H7       1.0000 0.06770  0.16090  0.78527  Biso   1.000  H
  H8       1.0000 0.56770  0.66090  0.78527  Biso   1.000  H
  H9       1.0000 0.05742  0.05339  0.31749  Biso   1.000  H
  H10      1.0000 0.55742  0.55339  0.31749  Biso   1.000  H
  H11      1.0000 0.94258  0.05339  0.18251  Biso   1.000  H
  H12      1.0000 0.44258  0.55339  0.18251  Biso   1.000  H
  H13      1.0000 0.94258  0.94661  0.68251  Biso   1.000  H
  H14      1.0000 0.44258  0.44661  0.68251  Biso   1.000  H
  H15      1.0000 0.05742  0.94661  0.81749  Biso   1.000  H
  H16      1.0000 0.55742  0.44661  0.81749  Biso   1.000  H
  H17      1.0000 0.45317  0.00578  0.24289  Biso   1.000  H
  H18      1.0000 0.95317  0.50578  0.24289  Biso   1.000  H
  H19      1.0000 0.54683  0.00578  0.25711  Biso   1.000  H
  H20      1.0000 0.04683  0.50578  0.25711  Biso   1.000  H
  H21      1.0000 0.54683  0.99422  0.75711  Biso   1.000  H
  H22      1.0000 0.04683  0.49422  0.75711  Biso   1.000  H
  H23      1.0000 0.45317  0.99422  0.74289  Biso   1.000  H
  H24      1.0000 0.95317  0.49422  0.74289  Biso   1.000  H
  H25      1.0000 0.24936  0.02549  0.07276  Biso   1.000  H
  H26      1.0000 0.74936  0.52549  0.07276  Biso   1.000  H
  H27      1.0000 0.75064  0.02549  0.42724  Biso   1.000  H
  H28      1.0000 0.25064  0.52549  0.42724  Biso   1.000  H
  H29      1.0000 0.75064  0.97451  0.92724  Biso   1.000  H
  H30      1.0000 0.25064  0.47451  0.92724  Biso   1.000  H
  H31      1.0000 0.24936  0.97451  0.57276  Biso   1.000  H
  H32      1.0000 0.74936  0.47451  0.57276  Biso   1.000  H
  H33      1.0000 0.27722  0.23817  0.13999  Biso   1.000  H
  H34      1.0000 0.77722  0.73817  0.13999  Biso   1.000  H
  H35      1.0000 0.72278  0.23817  0.36001  Biso   1.000  H
  H36      1.0000 0.22278  0.73817  0.36001  Biso   1.000  H
  H37      1.0000 0.72278  0.76183  0.86001  Biso   1.000  H
  H38      1.0000 0.22278  0.26183  0.86001  Biso   1.000  H
  H39      1.0000 0.27722  0.76183  0.63999  Biso   1.000  H
  H40      1.0000 0.77722  0.26183  0.63999  Biso   1.000  H
  H41      1.0000 0.12675  0.19285  0.98695  Biso   1.000  H
  H42      1.0000 0.62675  0.69285  0.98695  Biso   1.000  H
  H43      1.0000 0.87325  0.19285  0.51305  Biso   1.000  H
  H44      1.0000 0.37325  0.69285  0.51305  Biso   1.000  H
  H45      1.0000 0.87325  0.80715  0.01305  Biso   1.000  H
  H46      1.0000 0.37325  0.30715  0.01305  Biso   1.000  H
  H47      1.0000 0.12675  0.80715  0.48695  Biso   1.000  H
  H48      1.0000 0.62675  0.30715  0.48695  Biso   1.000  H
  H49      1.0000 0.00473  0.30197  0.89176  Biso   1.000  H
  H50      1.0000 0.50473  0.80197  0.89176  Biso   1.000  H
  H51      1.0000 0.99527  0.30197  0.60824  Biso   1.000  H
  H52      1.0000 0.49527  0.80197  0.60824  Biso   1.000  H
  H53      1.0000 0.99527  0.69803  0.10824  Biso   1.000  H
  H54      1.0000 0.49527  0.19803  0.10824  Biso   1.000  H
  H55      1.0000 0.00473  0.69803  0.39176  Biso   1.000  H
  H56      1.0000 0.50473  0.19803  0.39176  Biso   1.000  H
  H57      1.0000 0.85394  0.39756  0.84390  Biso   1.000  H
  H58      1.0000 0.35394  0.89756  0.84390  Biso   1.000  H
  H59      1.0000 0.14606  0.39756  0.65610  Biso   1.000  H
  H60      1.0000 0.64606  0.89756  0.65610  Biso   1.000  H
  H61      1.0000 0.14606  0.60244  0.15610  Biso   1.000  H
  H62      1.0000 0.64606  0.10244  0.15610  Biso   1.000  H
  H63      1.0000 0.85394  0.60244  0.34390  Biso   1.000  H
  H64      1.0000 0.35394  0.10244  0.34390  Biso   1.000  H
  H65      1.0000 0.77831  0.38834  0.94147  Biso   1.000  H
  H66      1.0000 0.27831  0.88834  0.94147  Biso   1.000  H
  H67      1.0000 0.22169  0.38834  0.55853  Biso   1.000  H
  H68      1.0000 0.72169  0.88834  0.55853  Biso   1.000  H
  H69      1.0000 0.22169  0.61166  0.05853  Biso   1.000  H
  H70      1.0000 0.72169  0.11166  0.05853  Biso   1.000  H
  H71      1.0000 0.77831  0.61166  0.44147  Biso   1.000  H
  H72      1.0000 0.27831  0.11166  0.44147  Biso   1.000  H
  H73      1.0000 0.85404  0.28313  0.08689  Biso   1.000  H
  H74      1.0000 0.35404  0.78313  0.08689  Biso   1.000  H
  H75      1.0000 0.14596  0.28313  0.41311  Biso   1.000  H
  H76      1.0000 0.64596  0.78313  0.41311  Biso   1.000  H
  H77      1.0000 0.14596  0.71687  0.91311  Biso   1.000  H
  H78      1.0000 0.64596  0.21687  0.91311  Biso   1.000  H
  H79      1.0000 0.85404  0.71687  0.58689  Biso   1.000  H
  H80      1.0000 0.35404  0.21687  0.58689  Biso   1.000  H
