data_image0
_cell_length_a       6.7837
_cell_length_b       8.182
_cell_length_c       10.1959
_cell_angle_alpha    108.068
_cell_angle_beta     101.188
_cell_angle_gamma    90.137

_symmetry_space_group_name_H-M    "P 1"
_symmetry_int_tables_number       1

loop_
  _symmetry_equiv_pos_as_xyz
  'x, y, z'

loop_
  _atom_site_label
  _atom_site_occupancy
  _atom_site_fract_x
  _atom_site_fract_y
  _atom_site_fract_z
  _atom_site_thermal_displace_type
  _atom_site_B_iso_or_equiv
  _atom_site_type_symbol
  Cu1      1.0000 0.50000  0.00000  0.50000  Biso   1.000  Cu
  Cl1      1.0000 0.16780  0.33632  0.59374  Biso   1.000  Cl
  Cl2      1.0000 0.83220  0.66368  0.40626  Biso   1.000  Cl
  O1       1.0000 0.20460  0.16300  0.50200  Biso   1.000  O
  O2       1.0000 0.79540  0.83700  0.49800  Biso   1.000  O
  O3       1.0000 0.29550  0.46590  0.56980  Biso   1.000  O
  O4       1.0000 0.70450  0.53410  0.43020  Biso   1.000  O
  O5       1.0000 0.23340  0.34070  0.74180  Biso   1.000  O
  O6       1.0000 0.76660  0.65930  0.25820  Biso   1.000  O
  N1       1.0000 0.78590  0.44670  0.78270  Biso   1.000  N
  N2       1.0000 0.21410  0.55330  0.21730  Biso   1.000  N
  N3       1.0000 0.79500  0.35160  0.87010  Biso   1.000  N
  N4       1.0000 0.20500  0.64840  0.12990  Biso   1.000  N
  N5       1.0000 0.71940  0.19900  0.79230  Biso   1.000  N
  N6       1.0000 0.28060  0.80100  0.20770  Biso   1.000  N
  N7       1.0000 0.66320  0.19480  0.65520  Biso   1.000  N
  N8       1.0000 0.33680  0.80520  0.34480  Biso   1.000  N
  N9       1.0000 0.26160  0.86760  0.80550  Biso   1.000  N
  N10      1.0000 0.73840  0.13240  0.19450  Biso   1.000  N
  N11      1.0000 0.44850  0.81090  0.81410  Biso   1.000  N
  N12      1.0000 0.55150  0.18910  0.18590  Biso   1.000  N
  N13      1.0000 0.54140  0.83210  0.71870  Biso   1.000  N
  N14      1.0000 0.45860  0.16790  0.28130  Biso   1.000  N
  N15      1.0000 0.41340  0.90850  0.64410  Biso   1.000  N
  N16      1.0000 0.58660  0.09150  0.35590  Biso   1.000  N
  C1       1.0000 0.70630  0.35140  0.65420  Biso   1.000  C
  C2       1.0000 0.29370  0.64860  0.34580  Biso   1.000  C
  H1       1.0000 0.68330  0.38880  0.57340  Biso   1.000  H
  H2       1.0000 0.31670  0.61120  0.42660  Biso   1.000  H
  C3       1.0000 0.86390  0.62780  0.83370  Biso   1.000  C
  C4       1.0000 0.13610  0.37220  0.16630  Biso   1.000  C
  H3       1.0000 0.84090  0.67530  0.75410  Biso   1.000  H
  H4       1.0000 0.15910  0.32470  0.24590  Biso   1.000  H
  H5       1.0000 0.01090  0.63450  0.87050  Biso   1.000  H
  H6       1.0000 0.98910  0.36550  0.12950  Biso   1.000  H
  C5       1.0000 0.76300  0.73480  0.94860  Biso   1.000  C
  C6       1.0000 0.23700  0.26520  0.05140  Biso   1.000  C
  H7       1.0000 0.81060  0.85690  0.97190  Biso   1.000  H
  H8       1.0000 0.18940  0.14310  0.02810  Biso   1.000  H
  H9       1.0000 0.80960  0.70040  0.03380  Biso   1.000  H
  H10      1.0000 0.19040  0.29960  0.96620  Biso   1.000  H
  C7       1.0000 0.53480  0.72380  0.91730  Biso   1.000  C
  C8       1.0000 0.46520  0.27620  0.08270  Biso   1.000  C
  H11      1.0000 0.48760  0.77680  0.00610  Biso   1.000  H
  H12      1.0000 0.51240  0.22320  0.99390  Biso   1.000  H
  H13      1.0000 0.48470  0.60110  0.88030  Biso   1.000  H
  H14      1.0000 0.51530  0.39890  0.11970  Biso   1.000  H
  C9       1.0000 0.24790  0.92750  0.69790  Biso   1.000  C
  C10      1.0000 0.75210  0.07250  0.30210  Biso   1.000  C
  H15      1.0000 0.13240  0.97850  0.66280  Biso   1.000  H
  H16      1.0000 0.86760  0.02150  0.33720  Biso   1.000  H
