data_image0
_cell_length_a       15.0672
_cell_length_b       9.0113
_cell_length_c       17.5426
_cell_angle_alpha    90
_cell_angle_beta     97.696
_cell_angle_gamma    90

_symmetry_space_group_name_H-M    "P 1"
_symmetry_int_tables_number       1

loop_
  _symmetry_equiv_pos_as_xyz
  'x, y, z'

loop_
  _atom_site_label
  _atom_site_occupancy
  _atom_site_fract_x
  _atom_site_fract_y
  _atom_site_fract_z
  _atom_site_thermal_displace_type
  _atom_site_B_iso_or_equiv
  _atom_site_type_symbol
  Cu1      1.0000 0.50000  0.00000  0.00000  Biso   1.000  Cu
  Cu2      1.0000 0.50000  0.00000  0.50000  Biso   1.000  Cu
  Cu3      1.0000 0.00000  0.50000  0.00000  Biso   1.000  Cu
  Cu4      1.0000 0.00000  0.50000  0.50000  Biso   1.000  Cu
  O1       1.0000 0.40710  0.19330  0.95761  Biso   1.000  O
  O2       1.0000 0.59290  0.19330  0.54239  Biso   1.000  O
  O3       1.0000 0.90710  0.69330  0.95761  Biso   1.000  O
  O4       1.0000 0.09290  0.69330  0.54239  Biso   1.000  O
  O5       1.0000 0.59290  0.80670  0.04239  Biso   1.000  O
  O6       1.0000 0.40710  0.80670  0.45761  Biso   1.000  O
  O7       1.0000 0.09290  0.30670  0.04239  Biso   1.000  O
  O8       1.0000 0.90710  0.30670  0.45761  Biso   1.000  O
  N1       1.0000 0.56720  0.14940  0.07475  Biso   1.000  N
  N2       1.0000 0.43280  0.14940  0.42525  Biso   1.000  N
  N3       1.0000 0.06720  0.64940  0.07475  Biso   1.000  N
  N4       1.0000 0.93280  0.64940  0.42525  Biso   1.000  N
  N5       1.0000 0.43280  0.85060  0.92525  Biso   1.000  N
  N6       1.0000 0.56720  0.85060  0.57475  Biso   1.000  N
  N7       1.0000 0.93280  0.35060  0.92525  Biso   1.000  N
  N8       1.0000 0.06720  0.35060  0.57475  Biso   1.000  N
  N9       1.0000 0.59023  0.12030  0.15092  Biso   1.000  N
  N10      1.0000 0.40977  0.12030  0.34908  Biso   1.000  N
  N11      1.0000 0.09023  0.62030  0.15092  Biso   1.000  N
  N12      1.0000 0.90977  0.62030  0.34908  Biso   1.000  N
  N13      1.0000 0.40977  0.87970  0.84908  Biso   1.000  N
  N14      1.0000 0.59023  0.87970  0.65092  Biso   1.000  N
  N15      1.0000 0.90977  0.37970  0.84908  Biso   1.000  N
  N16      1.0000 0.09023  0.37970  0.65092  Biso   1.000  N
  N17      1.0000 0.62608  0.23650  0.18530  Biso   1.000  N
  N18      1.0000 0.37392  0.23650  0.31470  Biso   1.000  N
  N19      1.0000 0.12608  0.73650  0.18530  Biso   1.000  N
  N20      1.0000 0.87392  0.73650  0.31470  Biso   1.000  N
  N21      1.0000 0.37392  0.76350  0.81470  Biso   1.000  N
  N22      1.0000 0.62608  0.76350  0.68530  Biso   1.000  N
  N23      1.0000 0.87392  0.26350  0.81470  Biso   1.000  N
  N24      1.0000 0.12608  0.26350  0.68530  Biso   1.000  N
  N25      1.0000 0.62712  0.34320  0.13081  Biso   1.000  N
  N26      1.0000 0.37288  0.34320  0.36919  Biso   1.000  N
  N27      1.0000 0.12712  0.84320  0.13081  Biso   1.000  N
  N28      1.0000 0.87288  0.84320  0.36919  Biso   1.000  N
  N29      1.0000 0.37288  0.65680  0.86919  Biso   1.000  N
  N30      1.0000 0.62712  0.65680  0.63081  Biso   1.000  N
  N31      1.0000 0.87288  0.15680  0.86919  Biso   1.000  N
  N32      1.0000 0.12712  0.15680  0.63081  Biso   1.000  N
  N33      1.0000 0.92021  0.44840  0.08074  Biso   1.000  N
  N34      1.0000 0.07979  0.44840  0.41926  Biso   1.000  N
  N35      1.0000 0.42021  0.94840  0.08074  Biso   1.000  N
  N36      1.0000 0.57979  0.94840  0.41926  Biso   1.000  N
  N37      1.0000 0.07979  0.55160  0.91926  Biso   1.000  N
  N38      1.0000 0.92021  0.55160  0.58074  Biso   1.000  N
  N39      1.0000 0.57979  0.05160  0.91926  Biso   1.000  N
  N40      1.0000 0.42021  0.05160  0.58074  Biso   1.000  N
  N41      1.0000 0.90063  0.30760  0.10153  Biso   1.000  N
  N42      1.0000 0.09937  0.30760  0.39847  Biso   1.000  N
  N43      1.0000 0.40063  0.80760  0.10153  Biso   1.000  N
  N44      1.0000 0.59937  0.80760  0.39847  Biso   1.000  N
  N45      1.0000 0.09937  0.69240  0.89847  Biso   1.000  N
  N46      1.0000 0.90063  0.69240  0.60153  Biso   1.000  N
  N47      1.0000 0.59937  0.19240  0.89847  Biso   1.000  N
  N48      1.0000 0.40063  0.19240  0.60153  Biso   1.000  N
  N49      1.0000 0.83981  0.31100  0.14659  Biso   1.000  N
  N50      1.0000 0.16019  0.31100  0.35341  Biso   1.000  N
  N51      1.0000 0.33981  0.81100  0.14659  Biso   1.000  N
  N52      1.0000 0.66019  0.81100  0.35341  Biso   1.000  N
  N53      1.0000 0.16019  0.68900  0.85341  Biso   1.000  N
  N54      1.0000 0.83981  0.68900  0.64659  Biso   1.000  N
  N55      1.0000 0.66019  0.18900  0.85341  Biso   1.000  N
  N56      1.0000 0.33981  0.18900  0.64659  Biso   1.000  N
  N57      1.0000 0.81938  0.45520  0.15565  Biso   1.000  N
  N58      1.0000 0.18062  0.45520  0.34435  Biso   1.000  N
  N59      1.0000 0.31938  0.95520  0.15565  Biso   1.000  N
  N60      1.0000 0.68062  0.95520  0.34435  Biso   1.000  N
  N61      1.0000 0.18062  0.54480  0.84435  Biso   1.000  N
  N62      1.0000 0.81938  0.54480  0.65565  Biso   1.000  N
  N63      1.0000 0.68062  0.04480  0.84435  Biso   1.000  N
  N64      1.0000 0.31938  0.04480  0.65565  Biso   1.000  N
  C1       1.0000 0.59110  0.28750  0.06402  Biso   1.000  C
  C2       1.0000 0.40890  0.28750  0.43598  Biso   1.000  C
  C3       1.0000 0.09110  0.78750  0.06402  Biso   1.000  C
  C4       1.0000 0.90890  0.78750  0.43598  Biso   1.000  C
  C5       1.0000 0.40890  0.71250  0.93598  Biso   1.000  C
  C6       1.0000 0.59110  0.71250  0.56402  Biso   1.000  C
  C7       1.0000 0.90890  0.21250  0.93598  Biso   1.000  C
  C8       1.0000 0.09110  0.21250  0.56402  Biso   1.000  C
  C9       1.0000 0.65585  0.49730  0.15097  Biso   1.000  C
  C10      1.0000 0.34415  0.49730  0.34903  Biso   1.000  C
  C11      1.0000 0.15585  0.99730  0.15097  Biso   1.000  C
  C12      1.0000 0.84415  0.99730  0.34903  Biso   1.000  C
  C13      1.0000 0.34415  0.50270  0.84903  Biso   1.000  C
  C14      1.0000 0.65585  0.50270  0.65097  Biso   1.000  C
  C15      1.0000 0.84415  0.00270  0.84903  Biso   1.000  C
  C16      1.0000 0.15585  0.00270  0.65097  Biso   1.000  C
  C17      1.0000 0.58702  0.57260  0.19302  Biso   1.000  C
  C18      1.0000 0.41298  0.57260  0.30698  Biso   1.000  C
  C19      1.0000 0.08702  0.07260  0.19302  Biso   1.000  C
  C20      1.0000 0.91298  0.07260  0.30698  Biso   1.000  C
  C21      1.0000 0.41298  0.42740  0.80698  Biso   1.000  C
  C22      1.0000 0.58702  0.42740  0.69302  Biso   1.000  C
  C23      1.0000 0.91298  0.92740  0.80698  Biso   1.000  C
  C24      1.0000 0.08702  0.92740  0.69302  Biso   1.000  C
  H1       1.0000 0.52830  0.56860  0.16140  Biso   1.000  H
  H2       1.0000 0.47170  0.56860  0.33860  Biso   1.000  H
  H3       1.0000 0.02830  0.06860  0.16140  Biso   1.000  H
  H4       1.0000 0.97170  0.06860  0.33860  Biso   1.000  H
  H5       1.0000 0.47170  0.43140  0.83860  Biso   1.000  H
  H6       1.0000 0.52830  0.43140  0.66140  Biso   1.000  H
  H7       1.0000 0.97170  0.93140  0.83860  Biso   1.000  H
  H8       1.0000 0.02830  0.93140  0.66140  Biso   1.000  H
  H9       1.0000 0.60420  0.67640  0.20300  Biso   1.000  H
  H10      1.0000 0.39580  0.67640  0.29700  Biso   1.000  H
  H11      1.0000 0.10420  0.17640  0.20300  Biso   1.000  H
  H12      1.0000 0.89580  0.17640  0.29700  Biso   1.000  H
  H13      1.0000 0.39580  0.32360  0.79700  Biso   1.000  H
  H14      1.0000 0.60420  0.32360  0.70300  Biso   1.000  H
  H15      1.0000 0.89580  0.82360  0.79700  Biso   1.000  H
  H16      1.0000 0.10420  0.82360  0.70300  Biso   1.000  H
  H17      1.0000 0.58390  0.52160  0.24190  Biso   1.000  H
  H18      1.0000 0.41610  0.52160  0.25810  Biso   1.000  H
  H19      1.0000 0.08390  0.02160  0.24190  Biso   1.000  H
  H20      1.0000 0.91610  0.02160  0.25810  Biso   1.000  H
  H21      1.0000 0.41610  0.47840  0.75810  Biso   1.000  H
  H22      1.0000 0.58390  0.47840  0.74190  Biso   1.000  H
  H23      1.0000 0.91610  0.97840  0.75810  Biso   1.000  H
  H24      1.0000 0.08390  0.97840  0.74190  Biso   1.000  H
  C25      1.0000 0.86891  0.53730  0.11480  Biso   1.000  C
  C26      1.0000 0.13109  0.53730  0.38520  Biso   1.000  C
  C27      1.0000 0.36891  0.03730  0.11480  Biso   1.000  C
  C28      1.0000 0.63109  0.03730  0.38520  Biso   1.000  C
  C29      1.0000 0.13109  0.46270  0.88520  Biso   1.000  C
  C30      1.0000 0.86891  0.46270  0.61480  Biso   1.000  C
  C31      1.0000 0.63109  0.96270  0.88520  Biso   1.000  C
  C32      1.0000 0.36891  0.96270  0.61480  Biso   1.000  C
  C33      1.0000 0.74760  0.49980  0.19933  Biso   1.000  C
  C34      1.0000 0.25240  0.49980  0.30067  Biso   1.000  C
  C35      1.0000 0.24760  0.99980  0.19933  Biso   1.000  C
  C36      1.0000 0.75240  0.99980  0.30067  Biso   1.000  C
  C37      1.0000 0.25240  0.50020  0.80067  Biso   1.000  C
  C38      1.0000 0.74760  0.50020  0.69933  Biso   1.000  C
  C39      1.0000 0.75240  0.00020  0.80067  Biso   1.000  C
  C40      1.0000 0.24760  0.00020  0.69933  Biso   1.000  C
  H25      1.0000 0.58150  0.33300  0.01770  Biso   1.000  H
  H26      1.0000 0.41850  0.33300  0.48230  Biso   1.000  H
  H27      1.0000 0.08150  0.83300  0.01770  Biso   1.000  H
  H28      1.0000 0.91850  0.83300  0.48230  Biso   1.000  H
  H29      1.0000 0.41850  0.66700  0.98230  Biso   1.000  H
  H30      1.0000 0.58150  0.66700  0.51770  Biso   1.000  H
  H31      1.0000 0.91850  0.16700  0.98230  Biso   1.000  H
  H32      1.0000 0.08150  0.16700  0.51770  Biso   1.000  H
  H33      1.0000 0.86500  0.63900  0.11130  Biso   1.000  H
  H34      1.0000 0.13500  0.63900  0.38870  Biso   1.000  H
  H35      1.0000 0.36500  0.13900  0.11130  Biso   1.000  H
  H36      1.0000 0.63500  0.13900  0.38870  Biso   1.000  H
  H37      1.0000 0.13500  0.36100  0.88870  Biso   1.000  H
  H38      1.0000 0.86500  0.36100  0.61130  Biso   1.000  H
  H39      1.0000 0.63500  0.86100  0.88870  Biso   1.000  H
  H40      1.0000 0.36500  0.86100  0.61130  Biso   1.000  H
  H41      1.0000 0.35700  0.16800  0.93620  Biso   1.000  H
  H42      1.0000 0.64300  0.16800  0.56380  Biso   1.000  H
  H43      1.0000 0.85700  0.66800  0.93620  Biso   1.000  H
  H44      1.0000 0.14300  0.66800  0.56380  Biso   1.000  H
  H45      1.0000 0.64300  0.83200  0.06380  Biso   1.000  H
  H46      1.0000 0.35700  0.83200  0.43620  Biso   1.000  H
  H47      1.0000 0.14300  0.33200  0.06380  Biso   1.000  H
  H48      1.0000 0.85700  0.33200  0.43620  Biso   1.000  H
  H49      1.0000 0.40200  0.25500  0.98870  Biso   1.000  H
  H50      1.0000 0.59800  0.25500  0.51130  Biso   1.000  H
  H51      1.0000 0.90200  0.75500  0.98870  Biso   1.000  H
  H52      1.0000 0.09800  0.75500  0.51130  Biso   1.000  H
  H53      1.0000 0.59800  0.74500  0.01130  Biso   1.000  H
  H54      1.0000 0.40200  0.74500  0.48870  Biso   1.000  H
  H55      1.0000 0.09800  0.24500  0.01130  Biso   1.000  H
  H56      1.0000 0.90200  0.24500  0.48870  Biso   1.000  H
  H57      1.0000 0.75020  0.43900  0.24450  Biso   1.000  H
  H58      1.0000 0.24980  0.43900  0.25550  Biso   1.000  H
  H59      1.0000 0.25020  0.93900  0.24450  Biso   1.000  H
  H60      1.0000 0.74980  0.93900  0.25550  Biso   1.000  H
  H61      1.0000 0.24980  0.56100  0.75550  Biso   1.000  H
  H62      1.0000 0.75020  0.56100  0.74450  Biso   1.000  H
  H63      1.0000 0.74980  0.06100  0.75550  Biso   1.000  H
  H64      1.0000 0.25020  0.06100  0.74450  Biso   1.000  H
  H65      1.0000 0.66130  0.54300  0.10130  Biso   1.000  H
  H66      1.0000 0.33870  0.54300  0.39870  Biso   1.000  H
  H67      1.0000 0.16130  0.04300  0.10130  Biso   1.000  H
  H68      1.0000 0.83870  0.04300  0.39870  Biso   1.000  H
  H69      1.0000 0.33870  0.45700  0.89870  Biso   1.000  H
  H70      1.0000 0.66130  0.45700  0.60130  Biso   1.000  H
  H71      1.0000 0.83870  0.95700  0.89870  Biso   1.000  H
  H72      1.0000 0.16130  0.95700  0.60130  Biso   1.000  H
  H73      1.0000 0.76170  0.59900  0.21920  Biso   1.000  H
  H74      1.0000 0.23830  0.59900  0.28080  Biso   1.000  H
  H75      1.0000 0.26170  0.09900  0.21920  Biso   1.000  H
  H76      1.0000 0.73830  0.09900  0.28080  Biso   1.000  H
  H77      1.0000 0.23830  0.40100  0.78080  Biso   1.000  H
  H78      1.0000 0.76170  0.40100  0.71920  Biso   1.000  H
  H79      1.0000 0.73830  0.90100  0.78080  Biso   1.000  H
  H80      1.0000 0.26170  0.90100  0.71920  Biso   1.000  H
  Cl1      1.0000 0.31929  0.47051  0.09306  Biso   1.000  Cl
  Cl2      1.0000 0.68071  0.47051  0.40694  Biso   1.000  Cl
  Cl3      1.0000 0.81929  0.97051  0.09306  Biso   1.000  Cl
  Cl4      1.0000 0.18071  0.97051  0.40694  Biso   1.000  Cl
  Cl5      1.0000 0.68071  0.52949  0.90694  Biso   1.000  Cl
  Cl6      1.0000 0.31929  0.52949  0.59306  Biso   1.000  Cl
  Cl7      1.0000 0.18071  0.02949  0.90694  Biso   1.000  Cl
  Cl8      1.0000 0.81929  0.02949  0.59306  Biso   1.000  Cl
  O9       1.0000 0.40413  0.40660  0.07340  Biso   1.000  O
  O10      1.0000 0.59587  0.40660  0.42660  Biso   1.000  O
  O11      1.0000 0.90413  0.90660  0.07340  Biso   1.000  O
  O12      1.0000 0.09587  0.90660  0.42660  Biso   1.000  O
  O13      1.0000 0.59587  0.59340  0.92660  Biso   1.000  O
  O14      1.0000 0.40413  0.59340  0.57340  Biso   1.000  O
  O15      1.0000 0.09587  0.09340  0.92660  Biso   1.000  O
  O16      1.0000 0.90413  0.09340  0.57340  Biso   1.000  O
  O17      1.0000 0.26837  0.52370  0.02178  Biso   1.000  O
  O18      1.0000 0.73163  0.52370  0.47822  Biso   1.000  O
  O19      1.0000 0.76837  0.02370  0.02178  Biso   1.000  O
  O20      1.0000 0.23163  0.02370  0.47822  Biso   1.000  O
  O21      1.0000 0.73163  0.47630  0.97822  Biso   1.000  O
  O22      1.0000 0.26837  0.47630  0.52178  Biso   1.000  O
  O23      1.0000 0.23163  0.97630  0.97822  Biso   1.000  O
  O24      1.0000 0.76837  0.97630  0.52178  Biso   1.000  O
  O25      1.0000 0.26754  0.34486  0.12094  Biso   1.000  O
  O26      1.0000 0.73246  0.34486  0.37906  Biso   1.000  O
  O27      1.0000 0.76754  0.84486  0.12094  Biso   1.000  O
  O28      1.0000 0.23246  0.84486  0.37906  Biso   1.000  O
  O29      1.0000 0.73246  0.65514  0.87906  Biso   1.000  O
  O30      1.0000 0.26754  0.65514  0.62094  Biso   1.000  O
  O31      1.0000 0.23246  0.15514  0.87906  Biso   1.000  O
  O32      1.0000 0.76754  0.15514  0.62094  Biso   1.000  O
