data_image0
_cell_length_a       14.6638
_cell_length_b       8.9883
_cell_length_c       16.3538
_cell_angle_alpha    90
_cell_angle_beta     90.324
_cell_angle_gamma    90

_symmetry_space_group_name_H-M    "P 1"
_symmetry_int_tables_number       1

loop_
  _symmetry_equiv_pos_as_xyz
  'x, y, z'

loop_
  _atom_site_label
  _atom_site_occupancy
  _atom_site_fract_x
  _atom_site_fract_y
  _atom_site_fract_z
  _atom_site_thermal_displace_type
  _atom_site_B_iso_or_equiv
  _atom_site_type_symbol
  Cu1      1.0000 0.50000  0.00000  0.50000  Biso   1.000  Cu
  Cu2      1.0000 0.50000  0.00000  0.00000  Biso   1.000  Cu
  Cu3      1.0000 0.00000  0.50000  0.50000  Biso   1.000  Cu
  Cu4      1.0000 0.00000  0.50000  0.00000  Biso   1.000  Cu
  Cl1      1.0000 0.40245  0.29663  0.60092  Biso   1.000  Cl
  Cl2      1.0000 0.59755  0.29663  0.89908  Biso   1.000  Cl
  Cl3      1.0000 0.90245  0.79663  0.60092  Biso   1.000  Cl
  Cl4      1.0000 0.09755  0.79663  0.89908  Biso   1.000  Cl
  Cl5      1.0000 0.59755  0.70337  0.39908  Biso   1.000  Cl
  Cl6      1.0000 0.40245  0.70337  0.10092  Biso   1.000  Cl
  Cl7      1.0000 0.09755  0.20337  0.39908  Biso   1.000  Cl
  Cl8      1.0000 0.90245  0.20337  0.10092  Biso   1.000  Cl
  N1       1.0000 0.40640  0.21280  0.39050  Biso   1.000  N
  N2       1.0000 0.59360  0.21280  0.10950  Biso   1.000  N
  N3       1.0000 0.90640  0.71280  0.39050  Biso   1.000  N
  N4       1.0000 0.09360  0.71280  0.10950  Biso   1.000  N
  N5       1.0000 0.59360  0.78720  0.60950  Biso   1.000  N
  N6       1.0000 0.40640  0.78720  0.89050  Biso   1.000  N
  N7       1.0000 0.09360  0.28720  0.60950  Biso   1.000  N
  N8       1.0000 0.90640  0.28720  0.89050  Biso   1.000  N
  O1       1.0000 0.48585  0.22810  0.56407  Biso   1.000  O
  O2       1.0000 0.51415  0.22810  0.93593  Biso   1.000  O
  O3       1.0000 0.98585  0.72810  0.56407  Biso   1.000  O
  O4       1.0000 0.01415  0.72810  0.93593  Biso   1.000  O
  O5       1.0000 0.51415  0.77190  0.43593  Biso   1.000  O
  O6       1.0000 0.48585  0.77190  0.06407  Biso   1.000  O
  O7       1.0000 0.01415  0.27190  0.43593  Biso   1.000  O
  O8       1.0000 0.98585  0.27190  0.06407  Biso   1.000  O
  O9       1.0000 0.42170  0.45590  0.61120  Biso   1.000  O
  O10      1.0000 0.57830  0.45590  0.88880  Biso   1.000  O
  O11      1.0000 0.92170  0.95590  0.61120  Biso   1.000  O
  O12      1.0000 0.07830  0.95590  0.88880  Biso   1.000  O
  O13      1.0000 0.57830  0.54410  0.38880  Biso   1.000  O
  O14      1.0000 0.42170  0.54410  0.11120  Biso   1.000  O
  O15      1.0000 0.07830  0.04410  0.38880  Biso   1.000  O
  O16      1.0000 0.92170  0.04410  0.11120  Biso   1.000  O
  O17      1.0000 0.39250  0.22950  0.68182  Biso   1.000  O
  O18      1.0000 0.60750  0.22950  0.81818  Biso   1.000  O
  O19      1.0000 0.89250  0.72950  0.68182  Biso   1.000  O
  O20      1.0000 0.10750  0.72950  0.81818  Biso   1.000  O
  O21      1.0000 0.60750  0.77050  0.31818  Biso   1.000  O
  O22      1.0000 0.39250  0.77050  0.18182  Biso   1.000  O
  O23      1.0000 0.10750  0.27050  0.31818  Biso   1.000  O
  O24      1.0000 0.89250  0.27050  0.18182  Biso   1.000  O
  N9       1.0000 0.36960  0.10050  0.27680  Biso   1.000  N
  N10      1.0000 0.63040  0.10050  0.22320  Biso   1.000  N
  N11      1.0000 0.86960  0.60050  0.27680  Biso   1.000  N
  N12      1.0000 0.13040  0.60050  0.22320  Biso   1.000  N
  N13      1.0000 0.63040  0.89950  0.72320  Biso   1.000  N
  N14      1.0000 0.36960  0.89950  0.77680  Biso   1.000  N
  N15      1.0000 0.13040  0.39950  0.72320  Biso   1.000  N
  N16      1.0000 0.86960  0.39950  0.77680  Biso   1.000  N
  C1       1.0000 0.32100  0.36190  0.28980  Biso   1.000  C
  C2       1.0000 0.67900  0.36190  0.21020  Biso   1.000  C
  C3       1.0000 0.82100  0.86190  0.28980  Biso   1.000  C
  C4       1.0000 0.17900  0.86190  0.21020  Biso   1.000  C
  C5       1.0000 0.67900  0.63810  0.71020  Biso   1.000  C
  C6       1.0000 0.32100  0.63810  0.78980  Biso   1.000  C
  C7       1.0000 0.17900  0.13810  0.71020  Biso   1.000  C
  C8       1.0000 0.82100  0.13810  0.78980  Biso   1.000  C
  H1       1.0000 0.32090  0.36240  0.22930  Biso   1.000  H
  H2       1.0000 0.67910  0.36240  0.27070  Biso   1.000  H
  H3       1.0000 0.82090  0.86240  0.22930  Biso   1.000  H
  H4       1.0000 0.17910  0.86240  0.27070  Biso   1.000  H
  H5       1.0000 0.67910  0.63760  0.77070  Biso   1.000  H
  H6       1.0000 0.32090  0.63760  0.72930  Biso   1.000  H
  H7       1.0000 0.17910  0.13760  0.77070  Biso   1.000  H
  H8       1.0000 0.82090  0.13760  0.72930  Biso   1.000  H
  H9       1.0000 0.25680  0.36100  0.30810  Biso   1.000  H
  H10      1.0000 0.74320  0.36100  0.19190  Biso   1.000  H
  H11      1.0000 0.75680  0.86100  0.30810  Biso   1.000  H
  H12      1.0000 0.24320  0.86100  0.19190  Biso   1.000  H
  H13      1.0000 0.74320  0.63900  0.69190  Biso   1.000  H
  H14      1.0000 0.25680  0.63900  0.80810  Biso   1.000  H
  H15      1.0000 0.24320  0.13900  0.69190  Biso   1.000  H
  H16      1.0000 0.75680  0.13900  0.80810  Biso   1.000  H
  N17      1.0000 0.25500  0.58770  0.42286  Biso   1.000  N
  N18      1.0000 0.74500  0.58770  0.07714  Biso   1.000  N
  N19      1.0000 0.75500  0.08770  0.42286  Biso   1.000  N
  N20      1.0000 0.24500  0.08770  0.07714  Biso   1.000  N
  N21      1.0000 0.74500  0.41230  0.57714  Biso   1.000  N
  N22      1.0000 0.25500  0.41230  0.92286  Biso   1.000  N
  N23      1.0000 0.24500  0.91230  0.57714  Biso   1.000  N
  N24      1.0000 0.75500  0.91230  0.92286  Biso   1.000  N
  N25      1.0000 0.11840  0.58230  0.45807  Biso   1.000  N
  N26      1.0000 0.88160  0.58230  0.04193  Biso   1.000  N
  N27      1.0000 0.61840  0.08230  0.45807  Biso   1.000  N
  N28      1.0000 0.38160  0.08230  0.04193  Biso   1.000  N
  N29      1.0000 0.88160  0.41770  0.54193  Biso   1.000  N
  N30      1.0000 0.11840  0.41770  0.95807  Biso   1.000  N
  N31      1.0000 0.38160  0.91770  0.54193  Biso   1.000  N
  N32      1.0000 0.61840  0.91770  0.95807  Biso   1.000  N
  N33      1.0000 0.43490  0.07480  0.39694  Biso   1.000  N
  N34      1.0000 0.56510  0.07480  0.10306  Biso   1.000  N
  N35      1.0000 0.93490  0.57480  0.39694  Biso   1.000  N
  N36      1.0000 0.06510  0.57480  0.10306  Biso   1.000  N
  N37      1.0000 0.56510  0.92520  0.60306  Biso   1.000  N
  N38      1.0000 0.43490  0.92520  0.89694  Biso   1.000  N
  N39      1.0000 0.06510  0.42520  0.60306  Biso   1.000  N
  N40      1.0000 0.93490  0.42520  0.89694  Biso   1.000  N
  N41      1.0000 0.22500  0.72430  0.40488  Biso   1.000  N
  N42      1.0000 0.77500  0.72430  0.09512  Biso   1.000  N
  N43      1.0000 0.72500  0.22430  0.40488  Biso   1.000  N
  N44      1.0000 0.27500  0.22430  0.09512  Biso   1.000  N
  N45      1.0000 0.77500  0.27570  0.59512  Biso   1.000  N
  N46      1.0000 0.22500  0.27570  0.90488  Biso   1.000  N
  N47      1.0000 0.27500  0.77570  0.59512  Biso   1.000  N
  N48      1.0000 0.72500  0.77570  0.90488  Biso   1.000  N
  N49      1.0000 0.19370  0.50050  0.45479  Biso   1.000  N
  N50      1.0000 0.80630  0.50050  0.04521  Biso   1.000  N
  N51      1.0000 0.69370  0.00050  0.45479  Biso   1.000  N
  N52      1.0000 0.30630  0.00050  0.04521  Biso   1.000  N
  N53      1.0000 0.80630  0.49950  0.54521  Biso   1.000  N
  N54      1.0000 0.19370  0.49950  0.95479  Biso   1.000  N
  N55      1.0000 0.30630  0.99950  0.54521  Biso   1.000  N
  N56      1.0000 0.69370  0.99950  0.95479  Biso   1.000  N
  C9       1.0000 0.13910  0.71640  0.42770  Biso   1.000  C
  C10      1.0000 0.86090  0.71640  0.07230  Biso   1.000  C
  C11      1.0000 0.63910  0.21640  0.42770  Biso   1.000  C
  C12      1.0000 0.36090  0.21640  0.07230  Biso   1.000  C
  C13      1.0000 0.86090  0.28360  0.57230  Biso   1.000  C
  C14      1.0000 0.13910  0.28360  0.92770  Biso   1.000  C
  C15      1.0000 0.36090  0.78360  0.57230  Biso   1.000  C
  C16      1.0000 0.63910  0.78360  0.92770  Biso   1.000  C
  H17      1.0000 0.09690  0.79620  0.42320  Biso   1.000  H
  H18      1.0000 0.90310  0.79620  0.07680  Biso   1.000  H
  H19      1.0000 0.59690  0.29620  0.42320  Biso   1.000  H
  H20      1.0000 0.40310  0.29620  0.07680  Biso   1.000  H
  H21      1.0000 0.90310  0.20380  0.57680  Biso   1.000  H
  H22      1.0000 0.09690  0.20380  0.92320  Biso   1.000  H
  H23      1.0000 0.40310  0.70380  0.57680  Biso   1.000  H
  H24      1.0000 0.59690  0.70380  0.92320  Biso   1.000  H
  N57      1.0000 0.36700  0.22450  0.31921  Biso   1.000  N
  N58      1.0000 0.63300  0.22450  0.18079  Biso   1.000  N
  N59      1.0000 0.86700  0.72450  0.31921  Biso   1.000  N
  N60      1.0000 0.13300  0.72450  0.18079  Biso   1.000  N
  N61      1.0000 0.63300  0.77550  0.68079  Biso   1.000  N
  N62      1.0000 0.36700  0.77550  0.81921  Biso   1.000  N
  N63      1.0000 0.13300  0.27550  0.68079  Biso   1.000  N
  N64      1.0000 0.86700  0.27550  0.81921  Biso   1.000  N
  C17      1.0000 0.34920  0.53990  0.40770  Biso   1.000  C
  C18      1.0000 0.65080  0.53990  0.09230  Biso   1.000  C
  C19      1.0000 0.84920  0.03990  0.40770  Biso   1.000  C
  C20      1.0000 0.15080  0.03990  0.09230  Biso   1.000  C
  C21      1.0000 0.65080  0.46010  0.59230  Biso   1.000  C
  C22      1.0000 0.34920  0.46010  0.90770  Biso   1.000  C
  C23      1.0000 0.15080  0.96010  0.59230  Biso   1.000  C
  C24      1.0000 0.84920  0.96010  0.90770  Biso   1.000  C
  H25      1.0000 0.39130  0.62110  0.42370  Biso   1.000  H
  H26      1.0000 0.60870  0.62110  0.07630  Biso   1.000  H
  H27      1.0000 0.89130  0.12110  0.42370  Biso   1.000  H
  H28      1.0000 0.10870  0.12110  0.07630  Biso   1.000  H
  H29      1.0000 0.60870  0.37890  0.57630  Biso   1.000  H
  H30      1.0000 0.39130  0.37890  0.92370  Biso   1.000  H
  H31      1.0000 0.10870  0.87890  0.57630  Biso   1.000  H
  H32      1.0000 0.89130  0.87890  0.92370  Biso   1.000  H
  H33      1.0000 0.36310  0.45260  0.44260  Biso   1.000  H
  H34      1.0000 0.63690  0.45260  0.05740  Biso   1.000  H
  H35      1.0000 0.86310  0.95260  0.44260  Biso   1.000  H
  H36      1.0000 0.13690  0.95260  0.05740  Biso   1.000  H
  H37      1.0000 0.63690  0.54740  0.55740  Biso   1.000  H
  H38      1.0000 0.36310  0.54740  0.94260  Biso   1.000  H
  H39      1.0000 0.13690  0.04740  0.55740  Biso   1.000  H
  H40      1.0000 0.86310  0.04740  0.94260  Biso   1.000  H
  C25      1.0000 0.41110  0.00930  0.32750  Biso   1.000  C
  C26      1.0000 0.58890  0.00930  0.17250  Biso   1.000  C
  C27      1.0000 0.91110  0.50930  0.32750  Biso   1.000  C
  C28      1.0000 0.08890  0.50930  0.17250  Biso   1.000  C
  C29      1.0000 0.58890  0.99070  0.67250  Biso   1.000  C
  C30      1.0000 0.41110  0.99070  0.82750  Biso   1.000  C
  C31      1.0000 0.08890  0.49070  0.67250  Biso   1.000  C
  C32      1.0000 0.91110  0.49070  0.82750  Biso   1.000  C
  H41      1.0000 0.42270  0.90760  0.31570  Biso   1.000  H
  H42      1.0000 0.57730  0.90760  0.18430  Biso   1.000  H
  H43      1.0000 0.92270  0.40760  0.31570  Biso   1.000  H
  H44      1.0000 0.07730  0.40760  0.18430  Biso   1.000  H
  H45      1.0000 0.57730  0.09240  0.68430  Biso   1.000  H
  H46      1.0000 0.42270  0.09240  0.81570  Biso   1.000  H
  H47      1.0000 0.07730  0.59240  0.68430  Biso   1.000  H
  H48      1.0000 0.92270  0.59240  0.81570  Biso   1.000  H
  C33      1.0000 0.36580  0.49960  0.31990  Biso   1.000  C
  C34      1.0000 0.63420  0.49960  0.18010  Biso   1.000  C
  C35      1.0000 0.86580  0.99960  0.31990  Biso   1.000  C
  C36      1.0000 0.13420  0.99960  0.18010  Biso   1.000  C
  C37      1.0000 0.63420  0.50040  0.68010  Biso   1.000  C
  C38      1.0000 0.36580  0.50040  0.81990  Biso   1.000  C
  C39      1.0000 0.13420  0.00040  0.68010  Biso   1.000  C
  C40      1.0000 0.86580  0.00040  0.81990  Biso   1.000  C
  H49      1.0000 0.34510  0.58360  0.28530  Biso   1.000  H
  H50      1.0000 0.65490  0.58360  0.21470  Biso   1.000  H
  H51      1.0000 0.84510  0.08360  0.28530  Biso   1.000  H
  H52      1.0000 0.15490  0.08360  0.21470  Biso   1.000  H
  H53      1.0000 0.65490  0.41640  0.71470  Biso   1.000  H
  H54      1.0000 0.34510  0.41640  0.78530  Biso   1.000  H
  H55      1.0000 0.15490  0.91640  0.71470  Biso   1.000  H
  H56      1.0000 0.84510  0.91640  0.78530  Biso   1.000  H
  H57      1.0000 0.43240  0.48910  0.31200  Biso   1.000  H
  H58      1.0000 0.56760  0.48910  0.18800  Biso   1.000  H
  H59      1.0000 0.93240  0.98910  0.31200  Biso   1.000  H
  H60      1.0000 0.06760  0.98910  0.18800  Biso   1.000  H
  H61      1.0000 0.56760  0.51090  0.68800  Biso   1.000  H
  H62      1.0000 0.43240  0.51090  0.81200  Biso   1.000  H
  H63      1.0000 0.06760  0.01090  0.68800  Biso   1.000  H
  H64      1.0000 0.93240  0.01090  0.81200  Biso   1.000  H
