data_image0
_cell_length_a       10.9642
_cell_length_b       10.9642
_cell_length_c       14.3772
_cell_angle_alpha    90
_cell_angle_beta     90
_cell_angle_gamma    120

_symmetry_space_group_name_H-M    "P 1"
_symmetry_int_tables_number       1

loop_
  _symmetry_equiv_pos_as_xyz
  'x, y, z'

loop_
  _atom_site_label
  _atom_site_occupancy
  _atom_site_fract_x
  _atom_site_fract_y
  _atom_site_fract_z
  _atom_site_thermal_displace_type
  _atom_site_B_iso_or_equiv
  _atom_site_type_symbol
  Cu1      1.0000 0.00000  0.00000  0.00000  Biso   1.000  Cu
  Cu2      1.0000 0.00000  0.00000  0.50000  Biso   1.000  Cu
  N1       1.0000 0.04132  0.17669  0.08369  Biso   1.000  N
  N2       1.0000 0.82331  0.86463  0.08369  Biso   1.000  N
  N3       1.0000 0.13537  0.95868  0.08369  Biso   1.000  N
  N4       1.0000 0.17669  0.04132  0.41631  Biso   1.000  N
  N5       1.0000 0.95868  0.13537  0.41631  Biso   1.000  N
  N6       1.0000 0.86463  0.82331  0.41631  Biso   1.000  N
  N7       1.0000 0.95868  0.82331  0.91631  Biso   1.000  N
  N8       1.0000 0.17669  0.13537  0.91631  Biso   1.000  N
  N9       1.0000 0.86463  0.04132  0.91631  Biso   1.000  N
  N10      1.0000 0.82331  0.95868  0.58369  Biso   1.000  N
  N11      1.0000 0.04132  0.86463  0.58369  Biso   1.000  N
  N12      1.0000 0.13537  0.17669  0.58369  Biso   1.000  N
  N13      1.0000 0.16380  0.25050  0.13184  Biso   1.000  N
  N14      1.0000 0.74950  0.91330  0.13184  Biso   1.000  N
  N15      1.0000 0.08670  0.83620  0.13184  Biso   1.000  N
  N16      1.0000 0.25050  0.16380  0.36816  Biso   1.000  N
  N17      1.0000 0.83620  0.08670  0.36816  Biso   1.000  N
  N18      1.0000 0.91330  0.74950  0.36816  Biso   1.000  N
  N19      1.0000 0.83620  0.74950  0.86816  Biso   1.000  N
  N20      1.0000 0.25050  0.08670  0.86816  Biso   1.000  N
  N21      1.0000 0.91330  0.16380  0.86816  Biso   1.000  N
  N22      1.0000 0.74950  0.83620  0.63184  Biso   1.000  N
  N23      1.0000 0.16380  0.91330  0.63184  Biso   1.000  N
  N24      1.0000 0.08670  0.25050  0.63184  Biso   1.000  N
  N25      1.0000 0.17020  0.36110  0.16775  Biso   1.000  N
  N26      1.0000 0.63890  0.80910  0.16775  Biso   1.000  N
  N27      1.0000 0.19090  0.82980  0.16775  Biso   1.000  N
  N28      1.0000 0.36110  0.17020  0.33225  Biso   1.000  N
  N29      1.0000 0.82980  0.19090  0.33225  Biso   1.000  N
  N30      1.0000 0.80910  0.63890  0.33225  Biso   1.000  N
  N31      1.0000 0.82980  0.63890  0.83225  Biso   1.000  N
  N32      1.0000 0.36110  0.19090  0.83225  Biso   1.000  N
  N33      1.0000 0.80910  0.17020  0.83225  Biso   1.000  N
  N34      1.0000 0.63890  0.82980  0.66775  Biso   1.000  N
  N35      1.0000 0.17020  0.80910  0.66775  Biso   1.000  N
  N36      1.0000 0.19090  0.36110  0.66775  Biso   1.000  N
  N37      1.0000 0.05109  0.35955  0.14377  Biso   1.000  N
  N38      1.0000 0.64045  0.69154  0.14377  Biso   1.000  N
  N39      1.0000 0.30846  0.94891  0.14377  Biso   1.000  N
  N40      1.0000 0.35955  0.05109  0.35623  Biso   1.000  N
  N41      1.0000 0.94891  0.30846  0.35623  Biso   1.000  N
  N42      1.0000 0.69154  0.64045  0.35623  Biso   1.000  N
  N43      1.0000 0.94891  0.64045  0.85623  Biso   1.000  N
  N44      1.0000 0.35955  0.30846  0.85623  Biso   1.000  N
  N45      1.0000 0.69154  0.05109  0.85623  Biso   1.000  N
  N46      1.0000 0.64045  0.94891  0.64377  Biso   1.000  N
  N47      1.0000 0.05109  0.69154  0.64377  Biso   1.000  N
  N48      1.0000 0.30846  0.35955  0.64377  Biso   1.000  N
  C1       1.0000 0.97460  0.24680  0.09282  Biso   1.000  C
  C2       1.0000 0.75320  0.72780  0.09282  Biso   1.000  C
  C3       1.0000 0.27220  0.02540  0.09282  Biso   1.000  C
  C4       1.0000 0.24680  0.97460  0.40718  Biso   1.000  C
  C5       1.0000 0.02540  0.27220  0.40718  Biso   1.000  C
  C6       1.0000 0.72780  0.75320  0.40718  Biso   1.000  C
  C7       1.0000 0.02540  0.75320  0.90718  Biso   1.000  C
  C8       1.0000 0.24680  0.27220  0.90718  Biso   1.000  C
  C9       1.0000 0.72780  0.97460  0.90718  Biso   1.000  C
  C10      1.0000 0.75320  0.02540  0.59282  Biso   1.000  C
  C11      1.0000 0.97460  0.72780  0.59282  Biso   1.000  C
  C12      1.0000 0.27220  0.24680  0.59282  Biso   1.000  C
  C13      1.0000 0.03080  0.47980  0.16420  Biso   1.000  C
  C14      1.0000 0.52020  0.55100  0.16420  Biso   1.000  C
  C15      1.0000 0.44900  0.96920  0.16420  Biso   1.000  C
  C16      1.0000 0.47980  0.03080  0.33580  Biso   1.000  C
  C17      1.0000 0.96920  0.44900  0.33580  Biso   1.000  C
  C18      1.0000 0.55100  0.52020  0.33580  Biso   1.000  C
  C19      1.0000 0.96920  0.52020  0.83580  Biso   1.000  C
  C20      1.0000 0.47980  0.44900  0.83580  Biso   1.000  C
  C21      1.0000 0.55100  0.03080  0.83580  Biso   1.000  C
  C22      1.0000 0.52020  0.96920  0.66420  Biso   1.000  C
  C23      1.0000 0.03080  0.55100  0.66420  Biso   1.000  C
  C24      1.0000 0.44900  0.47980  0.66420  Biso   1.000  C
  C25      1.0000 0.93550  0.46580  0.22590  Biso   1.000  C
  C26      1.0000 0.53420  0.46970  0.22590  Biso   1.000  C
  C27      1.0000 0.53030  0.06450  0.22590  Biso   1.000  C
  C28      1.0000 0.46580  0.93550  0.27410  Biso   1.000  C
  C29      1.0000 0.06450  0.53030  0.27410  Biso   1.000  C
  C30      1.0000 0.46970  0.53420  0.27410  Biso   1.000  C
  C31      1.0000 0.06450  0.53420  0.77410  Biso   1.000  C
  C32      1.0000 0.46580  0.53030  0.77410  Biso   1.000  C
  C33      1.0000 0.46970  0.93550  0.77410  Biso   1.000  C
  C34      1.0000 0.53420  0.06450  0.72590  Biso   1.000  C
  C35      1.0000 0.93550  0.46970  0.72590  Biso   1.000  C
  C36      1.0000 0.53030  0.46580  0.72590  Biso   1.000  C
  H1       1.0000 0.89700  0.22900  0.07150  Biso   1.000  H
  H2       1.0000 0.77100  0.66800  0.07150  Biso   1.000  H
  H3       1.0000 0.33200  0.10300  0.07150  Biso   1.000  H
  H4       1.0000 0.22900  0.89700  0.42850  Biso   1.000  H
  H5       1.0000 0.10300  0.33200  0.42850  Biso   1.000  H
  H6       1.0000 0.66800  0.77100  0.42850  Biso   1.000  H
  H7       1.0000 0.10300  0.77100  0.92850  Biso   1.000  H
  H8       1.0000 0.22900  0.33200  0.92850  Biso   1.000  H
  H9       1.0000 0.66800  0.89700  0.92850  Biso   1.000  H
  H10      1.0000 0.77100  0.10300  0.57150  Biso   1.000  H
  H11      1.0000 0.89700  0.66800  0.57150  Biso   1.000  H
  H12      1.0000 0.33200  0.22900  0.57150  Biso   1.000  H
  H13      1.0000 0.11600  0.55500  0.16000  Biso   1.000  H
  H14      1.0000 0.44500  0.56100  0.16000  Biso   1.000  H
  H15      1.0000 0.43900  0.88400  0.16000  Biso   1.000  H
  H16      1.0000 0.55500  0.11600  0.34000  Biso   1.000  H
  H17      1.0000 0.88400  0.43900  0.34000  Biso   1.000  H
  H18      1.0000 0.56100  0.44500  0.34000  Biso   1.000  H
  H19      1.0000 0.88400  0.44500  0.84000  Biso   1.000  H
  H20      1.0000 0.55500  0.43900  0.84000  Biso   1.000  H
  H21      1.0000 0.56100  0.11600  0.84000  Biso   1.000  H
  H22      1.0000 0.44500  0.88400  0.66000  Biso   1.000  H
  H23      1.0000 0.11600  0.56100  0.66000  Biso   1.000  H
  H24      1.0000 0.43900  0.55500  0.66000  Biso   1.000  H
  H25      1.0000 0.02000  0.50900  0.11600  Biso   1.000  H
  H26      1.0000 0.49100  0.51100  0.11600  Biso   1.000  H
  H27      1.0000 0.48900  0.98000  0.11600  Biso   1.000  H
  H28      1.0000 0.50900  0.02000  0.38400  Biso   1.000  H
  H29      1.0000 0.98000  0.48900  0.38400  Biso   1.000  H
  H30      1.0000 0.51100  0.49100  0.38400  Biso   1.000  H
  H31      1.0000 0.98000  0.49100  0.88400  Biso   1.000  H
  H32      1.0000 0.50900  0.48900  0.88400  Biso   1.000  H
  H33      1.0000 0.51100  0.02000  0.88400  Biso   1.000  H
  H34      1.0000 0.49100  0.98000  0.61600  Biso   1.000  H
  H35      1.0000 0.02000  0.51100  0.61600  Biso   1.000  H
  H36      1.0000 0.48900  0.50900  0.61600  Biso   1.000  H
  H37      1.0000 0.85100  0.39400  0.20700  Biso   1.000  H
  H38      1.0000 0.60600  0.45700  0.20700  Biso   1.000  H
  H39      1.0000 0.54300  0.14900  0.20700  Biso   1.000  H
  H40      1.0000 0.39400  0.85100  0.29300  Biso   1.000  H
  H41      1.0000 0.14900  0.54300  0.29300  Biso   1.000  H
  H42      1.0000 0.45700  0.60600  0.29300  Biso   1.000  H
  H43      1.0000 0.14900  0.60600  0.79300  Biso   1.000  H
  H44      1.0000 0.39400  0.54300  0.79300  Biso   1.000  H
  H45      1.0000 0.45700  0.85100  0.79300  Biso   1.000  H
  H46      1.0000 0.60600  0.14900  0.70700  Biso   1.000  H
  H47      1.0000 0.85100  0.45700  0.70700  Biso   1.000  H
  H48      1.0000 0.54300  0.39400  0.70700  Biso   1.000  H
  H49      1.0000 0.93100  0.54300  0.22000  Biso   1.000  H
  H50      1.0000 0.45700  0.38800  0.22000  Biso   1.000  H
  H51      1.0000 0.61200  0.06900  0.22000  Biso   1.000  H
  H52      1.0000 0.54300  0.93100  0.28000  Biso   1.000  H
  H53      1.0000 0.06900  0.61200  0.28000  Biso   1.000  H
  H54      1.0000 0.38800  0.45700  0.28000  Biso   1.000  H
  H55      1.0000 0.06900  0.45700  0.78000  Biso   1.000  H
  H56      1.0000 0.54300  0.61200  0.78000  Biso   1.000  H
  H57      1.0000 0.38800  0.93100  0.78000  Biso   1.000  H
  H58      1.0000 0.45700  0.06900  0.72000  Biso   1.000  H
  H59      1.0000 0.93100  0.38800  0.72000  Biso   1.000  H
  H60      1.0000 0.61200  0.54300  0.72000  Biso   1.000  H
  Cl1      1.0000 0.66670  0.33330  0.99549  Biso   1.000  Cl
  Cl2      1.0000 0.33330  0.66670  0.50451  Biso   1.000  Cl
  Cl3      1.0000 0.33330  0.66670  0.00451  Biso   1.000  Cl
  Cl4      1.0000 0.66670  0.33330  0.49549  Biso   1.000  Cl
  O1       1.0000 0.53289  0.31354  0.03221  Biso   1.000  O
  O2       1.0000 0.68646  0.21935  0.03221  Biso   1.000  O
  O3       1.0000 0.78065  0.46711  0.03221  Biso   1.000  O
  O4       1.0000 0.31354  0.53289  0.46779  Biso   1.000  O
  O5       1.0000 0.46711  0.78065  0.46779  Biso   1.000  O
  O6       1.0000 0.21935  0.68646  0.46779  Biso   1.000  O
  O7       1.0000 0.46711  0.68646  0.96779  Biso   1.000  O
  O8       1.0000 0.31354  0.78065  0.96779  Biso   1.000  O
  O9       1.0000 0.21935  0.53289  0.96779  Biso   1.000  O
  O10      1.0000 0.68646  0.46711  0.53221  Biso   1.000  O
  O11      1.0000 0.53289  0.21935  0.53221  Biso   1.000  O
  O12      1.0000 0.78065  0.31354  0.53221  Biso   1.000  O
