data_image0
_cell_length_a       13.5622
_cell_length_b       15.5713
_cell_length_c       7.7338
_cell_angle_alpha    90
_cell_angle_beta     91.559
_cell_angle_gamma    90

_symmetry_space_group_name_H-M    "P 1"
_symmetry_int_tables_number       1

loop_
  _symmetry_equiv_pos_as_xyz
  'x, y, z'

loop_
  _atom_site_label
  _atom_site_occupancy
  _atom_site_fract_x
  _atom_site_fract_y
  _atom_site_fract_z
  _atom_site_thermal_displace_type
  _atom_site_B_iso_or_equiv
  _atom_site_type_symbol
  Cu1      1.0000 0.50000  0.50000  0.00000  Biso   1.000  Cu
  Cu2      1.0000 0.00000  0.00000  0.00000  Biso   1.000  Cu
  Cu3      1.0000 0.50000  0.50000  0.50000  Biso   1.000  Cu
  Cu4      1.0000 0.00000  0.00000  0.50000  Biso   1.000  Cu
  N1       1.0000 0.44200  0.40270  0.17090  Biso   1.000  N
  N2       1.0000 0.55800  0.40270  0.82910  Biso   1.000  N
  N3       1.0000 0.94200  0.90270  0.17090  Biso   1.000  N
  N4       1.0000 0.05800  0.90270  0.82910  Biso   1.000  N
  N5       1.0000 0.55800  0.59730  0.82910  Biso   1.000  N
  N6       1.0000 0.44200  0.59730  0.17090  Biso   1.000  N
  N7       1.0000 0.05800  0.09730  0.82910  Biso   1.000  N
  N8       1.0000 0.94200  0.09730  0.17090  Biso   1.000  N
  N9       1.0000 0.43900  0.40660  0.34640  Biso   1.000  N
  N10      1.0000 0.56100  0.40660  0.65360  Biso   1.000  N
  N11      1.0000 0.93900  0.90660  0.34640  Biso   1.000  N
  N12      1.0000 0.06100  0.90660  0.65360  Biso   1.000  N
  N13      1.0000 0.56100  0.59340  0.65360  Biso   1.000  N
  N14      1.0000 0.43900  0.59340  0.34640  Biso   1.000  N
  N15      1.0000 0.06100  0.09340  0.65360  Biso   1.000  N
  N16      1.0000 0.93900  0.09340  0.34640  Biso   1.000  N
  N17      1.0000 0.37070  0.28810  0.26510  Biso   1.000  N
  N18      1.0000 0.62930  0.28810  0.73490  Biso   1.000  N
  N19      1.0000 0.87070  0.78810  0.26510  Biso   1.000  N
  N20      1.0000 0.12930  0.78810  0.73490  Biso   1.000  N
  N21      1.0000 0.62930  0.71190  0.73490  Biso   1.000  N
  N22      1.0000 0.37070  0.71190  0.26510  Biso   1.000  N
  N23      1.0000 0.12930  0.21190  0.73490  Biso   1.000  N
  N24      1.0000 0.87070  0.21190  0.26510  Biso   1.000  N
  N25      1.0000 0.32200  0.20730  0.26800  Biso   1.000  N
  N26      1.0000 0.67800  0.20730  0.73200  Biso   1.000  N
  N27      1.0000 0.82200  0.70730  0.26800  Biso   1.000  N
  N28      1.0000 0.17800  0.70730  0.73200  Biso   1.000  N
  N29      1.0000 0.67800  0.79270  0.73200  Biso   1.000  N
  N30      1.0000 0.32200  0.79270  0.26800  Biso   1.000  N
  N31      1.0000 0.17800  0.29270  0.73200  Biso   1.000  N
  N32      1.0000 0.82200  0.29270  0.26800  Biso   1.000  N
  H1       1.0000 0.26130  0.21550  0.26360  Biso   1.000  H
  H2       1.0000 0.73870  0.21550  0.73640  Biso   1.000  H
  H3       1.0000 0.76130  0.71550  0.26360  Biso   1.000  H
  H4       1.0000 0.23870  0.71550  0.73640  Biso   1.000  H
  H5       1.0000 0.73870  0.78450  0.73640  Biso   1.000  H
  H6       1.0000 0.26130  0.78450  0.26360  Biso   1.000  H
  H7       1.0000 0.23870  0.28450  0.73640  Biso   1.000  H
  H8       1.0000 0.76130  0.28450  0.26360  Biso   1.000  H
  H9       1.0000 0.34450  0.19740  0.14570  Biso   1.000  H
  H10      1.0000 0.65550  0.19740  0.85430  Biso   1.000  H
  H11      1.0000 0.84450  0.69740  0.14570  Biso   1.000  H
  H12      1.0000 0.15550  0.69740  0.85430  Biso   1.000  H
  H13      1.0000 0.65550  0.80260  0.85430  Biso   1.000  H
  H14      1.0000 0.34450  0.80260  0.14570  Biso   1.000  H
  H15      1.0000 0.15550  0.30260  0.85430  Biso   1.000  H
  H16      1.0000 0.84450  0.30260  0.14570  Biso   1.000  H
  N33      1.0000 0.36930  0.50000  0.86450  Biso   1.000  N
  N34      1.0000 0.63070  0.50000  0.13550  Biso   1.000  N
  N35      1.0000 0.86930  0.00000  0.86450  Biso   1.000  N
  N36      1.0000 0.13070  0.00000  0.13550  Biso   1.000  N
  N37      1.0000 0.36120  0.50000  0.68830  Biso   1.000  N
  N38      1.0000 0.63880  0.50000  0.31170  Biso   1.000  N
  N39      1.0000 0.86120  0.00000  0.68830  Biso   1.000  N
  N40      1.0000 0.13880  0.00000  0.31170  Biso   1.000  N
  N41      1.0000 0.21500  0.50000  0.79090  Biso   1.000  N
  N42      1.0000 0.78500  0.50000  0.20910  Biso   1.000  N
  N43      1.0000 0.71500  0.00000  0.79090  Biso   1.000  N
  N44      1.0000 0.28500  0.00000  0.20910  Biso   1.000  N
  N45      1.0000 0.11070  0.50000  0.79260  Biso   1.000  N
  N46      1.0000 0.88930  0.50000  0.20740  Biso   1.000  N
  N47      1.0000 0.61070  0.00000  0.79260  Biso   1.000  N
  N48      1.0000 0.38930  0.00000  0.20740  Biso   1.000  N
  C1       1.0000 0.39560  0.33600  0.40230  Biso   1.000  C
  C2       1.0000 0.60440  0.33600  0.59770  Biso   1.000  C
  C3       1.0000 0.89560  0.83600  0.40230  Biso   1.000  C
  C4       1.0000 0.10440  0.83600  0.59770  Biso   1.000  C
  C5       1.0000 0.60440  0.66400  0.59770  Biso   1.000  C
  C6       1.0000 0.39560  0.66400  0.40230  Biso   1.000  C
  C7       1.0000 0.10440  0.16400  0.59770  Biso   1.000  C
  C8       1.0000 0.89560  0.16400  0.40230  Biso   1.000  C
  H17      1.0000 0.38420  0.32190  0.51970  Biso   1.000  H
  H18      1.0000 0.61580  0.32190  0.48030  Biso   1.000  H
  H19      1.0000 0.88420  0.82190  0.51970  Biso   1.000  H
  H20      1.0000 0.11580  0.82190  0.48030  Biso   1.000  H
  H21      1.0000 0.61580  0.67810  0.48030  Biso   1.000  H
  H22      1.0000 0.38420  0.67810  0.51970  Biso   1.000  H
  H23      1.0000 0.11580  0.17810  0.48030  Biso   1.000  H
  H24      1.0000 0.88420  0.17810  0.51970  Biso   1.000  H
  C9       1.0000 0.39980  0.33070  0.12490  Biso   1.000  C
  C10      1.0000 0.60020  0.33070  0.87510  Biso   1.000  C
  C11      1.0000 0.89980  0.83070  0.12490  Biso   1.000  C
  C12      1.0000 0.10020  0.83070  0.87510  Biso   1.000  C
  C13      1.0000 0.60020  0.66930  0.87510  Biso   1.000  C
  C14      1.0000 0.39980  0.66930  0.12490  Biso   1.000  C
  C15      1.0000 0.10020  0.16930  0.87510  Biso   1.000  C
  C16      1.0000 0.89980  0.16930  0.12490  Biso   1.000  C
  H25      1.0000 0.39100  0.31120  0.00910  Biso   1.000  H
  H26      1.0000 0.60900  0.31120  0.99090  Biso   1.000  H
  H27      1.0000 0.89100  0.81120  0.00910  Biso   1.000  H
  H28      1.0000 0.10900  0.81120  0.99090  Biso   1.000  H
  H29      1.0000 0.60900  0.68880  0.99090  Biso   1.000  H
  H30      1.0000 0.39100  0.68880  0.00910  Biso   1.000  H
  H31      1.0000 0.10900  0.18880  0.99090  Biso   1.000  H
  H32      1.0000 0.89100  0.18880  0.00910  Biso   1.000  H
  C17      1.0000 0.26660  0.50000  0.65020  Biso   1.000  C
  C18      1.0000 0.73340  0.50000  0.34980  Biso   1.000  C
  C19      1.0000 0.76660  0.00000  0.65020  Biso   1.000  C
  C20      1.0000 0.23340  0.00000  0.34980  Biso   1.000  C
  H33      1.0000 0.23910  0.50000  0.53590  Biso   1.000  H
  H34      1.0000 0.76090  0.50000  0.46410  Biso   1.000  H
  H35      1.0000 0.73910  0.00000  0.53590  Biso   1.000  H
  H36      1.0000 0.26090  0.00000  0.46410  Biso   1.000  H
  C21      1.0000 0.28020  0.50000  0.92440  Biso   1.000  C
  C22      1.0000 0.71980  0.50000  0.07560  Biso   1.000  C
  C23      1.0000 0.78020  0.00000  0.92440  Biso   1.000  C
  C24      1.0000 0.21980  0.00000  0.07560  Biso   1.000  C
  H37      1.0000 0.26420  0.50000  0.04330  Biso   1.000  H
  H38      1.0000 0.73580  0.50000  0.95670  Biso   1.000  H
  H39      1.0000 0.76420  0.00000  0.04330  Biso   1.000  H
  H40      1.0000 0.23580  0.00000  0.95670  Biso   1.000  H
  H41      1.0000 0.09300  0.46700  0.85400  Biso   1.000  H
  H42      1.0000 0.90700  0.46700  0.14600  Biso   1.000  H
  H43      1.0000 0.59300  0.96700  0.85400  Biso   1.000  H
  H44      1.0000 0.40700  0.96700  0.14600  Biso   1.000  H
  H45      1.0000 0.90700  0.53300  0.14600  Biso   1.000  H
  H46      1.0000 0.09300  0.53300  0.85400  Biso   1.000  H
  H47      1.0000 0.40700  0.03300  0.14600  Biso   1.000  H
  H48      1.0000 0.59300  0.03300  0.85400  Biso   1.000  H
  Cl1      1.0000 0.10133  0.35430  0.24770  Biso   1.000  Cl
  Cl2      1.0000 0.89867  0.35430  0.75230  Biso   1.000  Cl
  Cl3      1.0000 0.60133  0.85430  0.24770  Biso   1.000  Cl
  Cl4      1.0000 0.39867  0.85430  0.75230  Biso   1.000  Cl
  Cl5      1.0000 0.89867  0.64570  0.75230  Biso   1.000  Cl
  Cl6      1.0000 0.10133  0.64570  0.24770  Biso   1.000  Cl
  Cl7      1.0000 0.39867  0.14570  0.75230  Biso   1.000  Cl
  Cl8      1.0000 0.60133  0.14570  0.24770  Biso   1.000  Cl
  O1       1.0000 0.10590  0.25890  0.24710  Biso   1.000  O
  O2       1.0000 0.89410  0.25890  0.75290  Biso   1.000  O
  O3       1.0000 0.60590  0.75890  0.24710  Biso   1.000  O
  O4       1.0000 0.39410  0.75890  0.75290  Biso   1.000  O
  O5       1.0000 0.89410  0.74110  0.75290  Biso   1.000  O
  O6       1.0000 0.10590  0.74110  0.24710  Biso   1.000  O
  O7       1.0000 0.39410  0.24110  0.75290  Biso   1.000  O
  O8       1.0000 0.60590  0.24110  0.24710  Biso   1.000  O
  O9       1.0000 0.18550  0.39280  0.25710  Biso   1.000  O
  O10      1.0000 0.81450  0.39280  0.74290  Biso   1.000  O
  O11      1.0000 0.68550  0.89280  0.25710  Biso   1.000  O
  O12      1.0000 0.31450  0.89280  0.74290  Biso   1.000  O
  O13      1.0000 0.81450  0.60720  0.74290  Biso   1.000  O
  O14      1.0000 0.18550  0.60720  0.25710  Biso   1.000  O
  O15      1.0000 0.31450  0.10720  0.74290  Biso   1.000  O
  O16      1.0000 0.68550  0.10720  0.25710  Biso   1.000  O
  O17      1.0000 0.03170  0.37370  0.10870  Biso   1.000  O
  O18      1.0000 0.96830  0.37370  0.89130  Biso   1.000  O
  O19      1.0000 0.53170  0.87370  0.10870  Biso   1.000  O
  O20      1.0000 0.46830  0.87370  0.89130  Biso   1.000  O
  O21      1.0000 0.96830  0.62630  0.89130  Biso   1.000  O
  O22      1.0000 0.03170  0.62630  0.10870  Biso   1.000  O
  O23      1.0000 0.46830  0.12630  0.89130  Biso   1.000  O
  O24      1.0000 0.53170  0.12630  0.10870  Biso   1.000  O
  O25      1.0000 0.17200  0.38180  0.38470  Biso   1.000  O
  O26      1.0000 0.82800  0.38180  0.61530  Biso   1.000  O
  O27      1.0000 0.67200  0.88180  0.38470  Biso   1.000  O
  O28      1.0000 0.32800  0.88180  0.61530  Biso   1.000  O
  O29      1.0000 0.82800  0.61820  0.61530  Biso   1.000  O
  O30      1.0000 0.17200  0.61820  0.38470  Biso   1.000  O
  O31      1.0000 0.32800  0.11820  0.61530  Biso   1.000  O
  O32      1.0000 0.67200  0.11820  0.38470  Biso   1.000  O
  O33      1.0000 0.17720  0.37650  0.08500  Biso   1.000  O
  O34      1.0000 0.82280  0.37650  0.91500  Biso   1.000  O
  O35      1.0000 0.67720  0.87650  0.08500  Biso   1.000  O
  O36      1.0000 0.32280  0.87650  0.91500  Biso   1.000  O
  O37      1.0000 0.82280  0.62350  0.91500  Biso   1.000  O
  O38      1.0000 0.17720  0.62350  0.08500  Biso   1.000  O
  O39      1.0000 0.32280  0.12350  0.91500  Biso   1.000  O
  O40      1.0000 0.67720  0.12350  0.08500  Biso   1.000  O
