data_image0
_cell_length_a       10.7286
_cell_length_b       6.8178
_cell_length_c       15.5263
_cell_angle_alpha    90
_cell_angle_beta     100.469
_cell_angle_gamma    90

_symmetry_space_group_name_H-M    "P 1"
_symmetry_int_tables_number       1

loop_
  _symmetry_equiv_pos_as_xyz
  'x, y, z'

loop_
  _atom_site_label
  _atom_site_occupancy
  _atom_site_fract_x
  _atom_site_fract_y
  _atom_site_fract_z
  _atom_site_thermal_displace_type
  _atom_site_B_iso_or_equiv
  _atom_site_type_symbol
  Cu1      1.0000 0.50000  0.50000  0.50000  Biso   1.000  Cu
  Cu2      1.0000 0.00000  0.00000  0.00000  Biso   1.000  Cu
  Cl1      1.0000 0.70041  0.76122  0.64548  Biso   1.000  Cl
  Cl2      1.0000 0.79959  0.26122  0.85452  Biso   1.000  Cl
  Cl3      1.0000 0.29959  0.23878  0.35452  Biso   1.000  Cl
  Cl4      1.0000 0.20041  0.73878  0.14548  Biso   1.000  Cl
  C1       1.0000 0.57120  0.02940  0.16310  Biso   1.000  C
  C2       1.0000 0.92880  0.52940  0.33690  Biso   1.000  C
  C3       1.0000 0.42880  0.97060  0.83690  Biso   1.000  C
  C4       1.0000 0.07120  0.47060  0.66310  Biso   1.000  C
  H1       1.0000 0.48540  0.97270  0.14550  Biso   1.000  H
  H2       1.0000 0.01460  0.47270  0.35450  Biso   1.000  H
  H3       1.0000 0.51460  0.02730  0.85450  Biso   1.000  H
  H4       1.0000 0.98540  0.52730  0.64550  Biso   1.000  H
  H5       1.0000 0.63260  0.93930  0.14320  Biso   1.000  H
  H6       1.0000 0.86740  0.43930  0.35680  Biso   1.000  H
  H7       1.0000 0.36740  0.06070  0.85680  Biso   1.000  H
  H8       1.0000 0.13260  0.56070  0.64320  Biso   1.000  H
  C5       1.0000 0.60220  0.04760  0.26240  Biso   1.000  C
  C6       1.0000 0.89780  0.54760  0.23760  Biso   1.000  C
  C7       1.0000 0.39780  0.95240  0.73760  Biso   1.000  C
  C8       1.0000 0.10220  0.45240  0.76240  Biso   1.000  C
  H9       1.0000 0.69170  0.08800  0.28040  Biso   1.000  H
  H10      1.0000 0.80830  0.58800  0.21960  Biso   1.000  H
  H11      1.0000 0.30830  0.91200  0.71960  Biso   1.000  H
  H12      1.0000 0.19170  0.41200  0.78040  Biso   1.000  H
  H13      1.0000 0.54810  0.15040  0.28160  Biso   1.000  H
  H14      1.0000 0.95190  0.65040  0.21840  Biso   1.000  H
  H15      1.0000 0.45190  0.84960  0.71840  Biso   1.000  H
  H16      1.0000 0.04810  0.34960  0.78160  Biso   1.000  H
  N1       1.0000 0.54430  0.63970  0.39509  Biso   1.000  N
  N2       1.0000 0.95570  0.13970  0.10491  Biso   1.000  N
  N3       1.0000 0.45570  0.36030  0.60491  Biso   1.000  N
  N4       1.0000 0.04430  0.86030  0.89509  Biso   1.000  N
  C9       1.0000 0.55370  0.82930  0.38350  Biso   1.000  C
  C10      1.0000 0.94630  0.32930  0.11650  Biso   1.000  C
  C11      1.0000 0.44630  0.17070  0.61650  Biso   1.000  C
  C12      1.0000 0.05370  0.67070  0.88350  Biso   1.000  C
  H17      1.0000 0.54240  0.92770  0.42470  Biso   1.000  H
  H18      1.0000 0.95760  0.42770  0.07530  Biso   1.000  H
  H19      1.0000 0.45760  0.07230  0.57530  Biso   1.000  H
  H20      1.0000 0.04240  0.57230  0.92470  Biso   1.000  H
  N5       1.0000 0.21560  0.23200  0.95188  Biso   1.000  N
  N6       1.0000 0.28440  0.73200  0.54812  Biso   1.000  N
  N7       1.0000 0.78440  0.76800  0.04812  Biso   1.000  N
  N8       1.0000 0.71560  0.26800  0.45188  Biso   1.000  N
  N9       1.0000 0.59060  0.68620  0.26655  Biso   1.000  N
  N10      1.0000 0.90940  0.18620  0.23345  Biso   1.000  N
  N11      1.0000 0.40940  0.31380  0.73345  Biso   1.000  N
  N12      1.0000 0.09060  0.81380  0.76655  Biso   1.000  N
  N13      1.0000 0.58150  0.86140  0.30497  Biso   1.000  N
  N14      1.0000 0.91850  0.36140  0.19503  Biso   1.000  N
  N15      1.0000 0.41850  0.13860  0.69503  Biso   1.000  N
  N16      1.0000 0.08150  0.63860  0.80497  Biso   1.000  N
  N17      1.0000 0.16690  0.15390  0.01957  Biso   1.000  N
  N18      1.0000 0.33310  0.65390  0.48043  Biso   1.000  N
  N19      1.0000 0.83310  0.84610  0.98043  Biso   1.000  N
  N20      1.0000 0.66690  0.34610  0.51957  Biso   1.000  N
  C13      1.0000 0.57650  0.22890  0.11920  Biso   1.000  C
  C14      1.0000 0.92350  0.72890  0.38080  Biso   1.000  C
  C15      1.0000 0.42350  0.77110  0.88080  Biso   1.000  C
  C16      1.0000 0.07650  0.27110  0.61920  Biso   1.000  C
  H21      1.0000 0.65460  0.29750  0.14760  Biso   1.000  H
  H22      1.0000 0.84540  0.79750  0.35240  Biso   1.000  H
  H23      1.0000 0.34540  0.70250  0.85240  Biso   1.000  H
  H24      1.0000 0.15460  0.20250  0.64760  Biso   1.000  H
  H25      1.0000 0.58290  0.20750  0.05700  Biso   1.000  H
  H26      1.0000 0.91710  0.70750  0.44300  Biso   1.000  H
  H27      1.0000 0.41710  0.79250  0.94300  Biso   1.000  H
  H28      1.0000 0.08290  0.29250  0.55700  Biso   1.000  H
  N21      1.0000 0.34670  0.28630  0.06891  Biso   1.000  N
  N22      1.0000 0.15330  0.78630  0.43109  Biso   1.000  N
  N23      1.0000 0.65330  0.71370  0.93109  Biso   1.000  N
  N24      1.0000 0.84670  0.21370  0.56891  Biso   1.000  N
  O1       1.0000 0.70760  0.93550  0.70324  Biso   1.000  O
  O2       1.0000 0.79240  0.43550  0.79676  Biso   1.000  O
  O3       1.0000 0.29240  0.06450  0.29676  Biso   1.000  O
  O4       1.0000 0.20760  0.56450  0.20324  Biso   1.000  O
  O5       1.0000 0.58010  0.77830  0.58225  Biso   1.000  O
  O6       1.0000 0.91990  0.27830  0.91775  Biso   1.000  O
  O7       1.0000 0.41990  0.22170  0.41775  Biso   1.000  O
  O8       1.0000 0.08010  0.72170  0.08225  Biso   1.000  O
  N25      1.0000 0.32330  0.31160  0.98125  Biso   1.000  N
  N26      1.0000 0.17670  0.81160  0.51875  Biso   1.000  N
  N27      1.0000 0.67670  0.68840  0.01875  Biso   1.000  N
  N28      1.0000 0.82330  0.18840  0.48125  Biso   1.000  N
  C17      1.0000 0.24960  0.19290  0.09130  Biso   1.000  C
  C18      1.0000 0.25040  0.69290  0.40870  Biso   1.000  C
  C19      1.0000 0.75040  0.80710  0.90870  Biso   1.000  C
  C20      1.0000 0.74960  0.30710  0.59130  Biso   1.000  C
  H29      1.0000 0.24070  0.15950  0.14930  Biso   1.000  H
  H30      1.0000 0.25930  0.65950  0.35070  Biso   1.000  H
  H31      1.0000 0.75930  0.84050  0.85070  Biso   1.000  H
  H32      1.0000 0.74070  0.34050  0.64930  Biso   1.000  H
  N29      1.0000 0.56750  0.55250  0.32064  Biso   1.000  N
  N30      1.0000 0.93250  0.05250  0.17936  Biso   1.000  N
  N31      1.0000 0.43250  0.44750  0.67936  Biso   1.000  N
  N32      1.0000 0.06750  0.94750  0.82064  Biso   1.000  N
  C21      1.0000 0.46380  0.36110  0.12260  Biso   1.000  C
  C22      1.0000 0.03620  0.86110  0.37740  Biso   1.000  C
  C23      1.0000 0.53620  0.63890  0.87740  Biso   1.000  C
  C24      1.0000 0.96380  0.13890  0.62260  Biso   1.000  C
  H33      1.0000 0.48170  0.49360  0.10170  Biso   1.000  H
  H34      1.0000 0.01830  0.99360  0.39830  Biso   1.000  H
  H35      1.0000 0.51830  0.50640  0.89830  Biso   1.000  H
  H36      1.0000 0.98170  0.00640  0.60170  Biso   1.000  H
  H37      1.0000 0.45180  0.37310  0.18410  Biso   1.000  H
  H38      1.0000 0.04820  0.87310  0.31590  Biso   1.000  H
  H39      1.0000 0.54820  0.62690  0.81590  Biso   1.000  H
  H40      1.0000 0.95180  0.12690  0.68410  Biso   1.000  H
  O9       1.0000 0.80190  0.77020  0.59600  Biso   1.000  O
  O10      1.0000 0.69810  0.27020  0.90400  Biso   1.000  O
  O11      1.0000 0.19810  0.22980  0.40400  Biso   1.000  O
  O12      1.0000 0.30190  0.72980  0.09600  Biso   1.000  O
