data_image0
_cell_length_a       6.4942
_cell_length_b       6.7704
_cell_length_c       13.8801
_cell_angle_alpha    90
_cell_angle_beta     101.578
_cell_angle_gamma    90

_symmetry_space_group_name_H-M    "P 1"
_symmetry_int_tables_number       1

loop_
  _symmetry_equiv_pos_as_xyz
  'x, y, z'

loop_
  _atom_site_label
  _atom_site_occupancy
  _atom_site_fract_x
  _atom_site_fract_y
  _atom_site_fract_z
  _atom_site_thermal_displace_type
  _atom_site_B_iso_or_equiv
  _atom_site_type_symbol
  Cu1      1.0000 0.00000  0.50000  0.50000  Biso   1.000  Cu
  Cu2      1.0000 0.00000  0.00000  0.50000  Biso   1.000  Cu
  Cl1      1.0000 0.49897  0.75000  0.25214  Biso   1.000  Cl
  Cl2      1.0000 0.50103  0.25000  0.74786  Biso   1.000  Cl
  O1       1.0000 0.87720  0.75000  0.15758  Biso   1.000  O
  O2       1.0000 0.12280  0.25000  0.84242  Biso   1.000  O
  H1       1.0000 0.75760  0.75000  0.16830  Biso   1.000  H
  H2       1.0000 0.24240  0.25000  0.83170  Biso   1.000  H
  O3       1.0000 0.98920  0.75000  0.42977  Biso   1.000  O
  O4       1.0000 0.01080  0.25000  0.57023  Biso   1.000  O
  H3       1.0000 0.90400  0.75000  0.39200  Biso   1.000  H
  H4       1.0000 0.09600  0.25000  0.60800  Biso   1.000  H
  O5       1.0000 0.38910  0.55030  0.57108  Biso   1.000  O
  O6       1.0000 0.61090  0.05030  0.42892  Biso   1.000  O
  O7       1.0000 0.61090  0.44970  0.42892  Biso   1.000  O
  O8       1.0000 0.38910  0.94970  0.57108  Biso   1.000  O
  N1       1.0000 0.93780  0.64860  0.61629  Biso   1.000  N
  N2       1.0000 0.06220  0.14860  0.38371  Biso   1.000  N
  N3       1.0000 0.06220  0.35140  0.38371  Biso   1.000  N
  N4       1.0000 0.93780  0.85140  0.61629  Biso   1.000  N
  N5       1.0000 0.88450  0.75000  0.75780  Biso   1.000  N
  N6       1.0000 0.11550  0.25000  0.24220  Biso   1.000  N
  C1       1.0000 0.90470  0.59150  0.70152  Biso   1.000  C
  C2       1.0000 0.09530  0.09150  0.29848  Biso   1.000  C
  C3       1.0000 0.09530  0.40850  0.29848  Biso   1.000  C
  C4       1.0000 0.90470  0.90850  0.70152  Biso   1.000  C
  H5       1.0000 0.89620  0.46070  0.72070  Biso   1.000  H
  H6       1.0000 0.10380  0.96070  0.27930  Biso   1.000  H
  H7       1.0000 0.10380  0.53930  0.27930  Biso   1.000  H
  H8       1.0000 0.89620  0.03930  0.72070  Biso   1.000  H
  C5       1.0000 0.87430  0.75000  0.86130  Biso   1.000  C
  C6       1.0000 0.12570  0.25000  0.13870  Biso   1.000  C
  C7       1.0000 0.68430  0.75000  0.89020  Biso   1.000  C
  C8       1.0000 0.31570  0.25000  0.10980  Biso   1.000  C
  H9       1.0000 0.55930  0.75000  0.84370  Biso   1.000  H
  H10      1.0000 0.44070  0.25000  0.15630  Biso   1.000  H
  C9       1.0000 0.68200  0.75000  0.99090  Biso   1.000  C
  C10      1.0000 0.31800  0.25000  0.00910  Biso   1.000  C
  H11      1.0000 0.55470  0.75000  0.01200  Biso   1.000  H
  H12      1.0000 0.44530  0.25000  0.98800  Biso   1.000  H
  C11      1.0000 0.86860  0.75000  0.05860  Biso   1.000  C
  C12      1.0000 0.13140  0.25000  0.94140  Biso   1.000  C
  C13      1.0000 0.05830  0.75000  0.02850  Biso   1.000  C
  C14      1.0000 0.94170  0.25000  0.97150  Biso   1.000  C
  H13      1.0000 0.18390  0.75000  0.07460  Biso   1.000  H
  H14      1.0000 0.81610  0.25000  0.92540  Biso   1.000  H
  C15      1.0000 0.06010  0.75000  0.92880  Biso   1.000  C
  C16      1.0000 0.93990  0.25000  0.07120  Biso   1.000  C
  H15      1.0000 0.18720  0.75000  0.90770  Biso   1.000  H
  H16      1.0000 0.81280  0.25000  0.09230  Biso   1.000  H
