data_image0
_cell_length_a       18.023
_cell_length_b       25.517
_cell_length_c       5.7625
_cell_angle_alpha    90
_cell_angle_beta     98.971
_cell_angle_gamma    90

_symmetry_space_group_name_H-M    "P 1"
_symmetry_int_tables_number       1

loop_
  _symmetry_equiv_pos_as_xyz
  'x, y, z'

loop_
  _atom_site_label
  _atom_site_occupancy
  _atom_site_fract_x
  _atom_site_fract_y
  _atom_site_fract_z
  _atom_site_thermal_displace_type
  _atom_site_B_iso_or_equiv
  _atom_site_type_symbol
  Cu1      1.0000 0.91692  0.52179  0.54829  Biso   1.000  Cu
  Cu2      1.0000 0.08308  0.52179  0.95171  Biso   1.000  Cu
  Cu3      1.0000 0.41692  0.02179  0.54829  Biso   1.000  Cu
  Cu4      1.0000 0.58308  0.02179  0.95171  Biso   1.000  Cu
  Cu5      1.0000 0.08308  0.47821  0.45171  Biso   1.000  Cu
  Cu6      1.0000 0.91692  0.47821  0.04829  Biso   1.000  Cu
  Cu7      1.0000 0.58308  0.97821  0.45171  Biso   1.000  Cu
  Cu8      1.0000 0.41692  0.97821  0.04829  Biso   1.000  Cu
  O1       1.0000 0.96010  0.59143  0.58070  Biso   1.000  O
  O2       1.0000 0.03990  0.59143  0.91930  Biso   1.000  O
  O3       1.0000 0.46010  0.09143  0.58070  Biso   1.000  O
  O4       1.0000 0.53990  0.09143  0.91930  Biso   1.000  O
  O5       1.0000 0.03990  0.40857  0.41930  Biso   1.000  O
  O6       1.0000 0.96010  0.40857  0.08070  Biso   1.000  O
  O7       1.0000 0.53990  0.90857  0.41930  Biso   1.000  O
  O8       1.0000 0.46010  0.90857  0.08070  Biso   1.000  O
  O9       1.0000 0.66680  0.94554  0.65550  Biso   1.000  O
  O10      1.0000 0.33320  0.94554  0.84450  Biso   1.000  O
  O11      1.0000 0.16680  0.44554  0.65550  Biso   1.000  O
  O12      1.0000 0.83320  0.44554  0.84450  Biso   1.000  O
  O13      1.0000 0.33320  0.05446  0.34450  Biso   1.000  O
  O14      1.0000 0.66680  0.05446  0.15550  Biso   1.000  O
  O15      1.0000 0.83320  0.55446  0.34450  Biso   1.000  O
  O16      1.0000 0.16680  0.55446  0.15550  Biso   1.000  O
  O17      1.0000 0.63080  0.95369  0.00680  Biso   1.000  O
  O18      1.0000 0.36920  0.95369  0.49320  Biso   1.000  O
  O19      1.0000 0.13080  0.45369  0.00680  Biso   1.000  O
  O20      1.0000 0.86920  0.45369  0.49320  Biso   1.000  O
  O21      1.0000 0.36920  0.04631  0.99320  Biso   1.000  O
  O22      1.0000 0.63080  0.04631  0.50680  Biso   1.000  O
  O23      1.0000 0.86920  0.54631  0.99320  Biso   1.000  O
  O24      1.0000 0.13080  0.54631  0.50680  Biso   1.000  O
  O25      1.0000 0.91250  0.78481  0.41170  Biso   1.000  O
  O26      1.0000 0.08750  0.78481  0.08830  Biso   1.000  O
  O27      1.0000 0.41250  0.28481  0.41170  Biso   1.000  O
  O28      1.0000 0.58750  0.28481  0.08830  Biso   1.000  O
  O29      1.0000 0.08750  0.21519  0.58830  Biso   1.000  O
  O30      1.0000 0.91250  0.21519  0.91170  Biso   1.000  O
  O31      1.0000 0.58750  0.71519  0.58830  Biso   1.000  O
  O32      1.0000 0.41250  0.71519  0.91170  Biso   1.000  O
  O33      1.0000 0.00000  0.49050  0.75000  Biso   1.000  O
  O34      1.0000 0.50000  0.99050  0.75000  Biso   1.000  O
  O35      1.0000 0.00000  0.50950  0.25000  Biso   1.000  O
  O36      1.0000 0.50000  0.00950  0.25000  Biso   1.000  O
  H1       1.0000 0.00000  0.45410  0.75000  Biso   1.000  H
  H2       1.0000 0.50000  0.95410  0.75000  Biso   1.000  H
  H3       1.0000 0.00000  0.54590  0.25000  Biso   1.000  H
  H4       1.0000 0.50000  0.04590  0.25000  Biso   1.000  H
  C1       1.0000 0.00000  0.61360  0.75000  Biso   1.000  C
  C2       1.0000 0.50000  0.11360  0.75000  Biso   1.000  C
  C3       1.0000 0.00000  0.38640  0.25000  Biso   1.000  C
  C4       1.0000 0.50000  0.88640  0.25000  Biso   1.000  C
  C5       1.0000 0.00000  0.67270  0.75000  Biso   1.000  C
  C6       1.0000 0.50000  0.17270  0.75000  Biso   1.000  C
  C7       1.0000 0.00000  0.32730  0.25000  Biso   1.000  C
  C8       1.0000 0.50000  0.82730  0.25000  Biso   1.000  C
  C9       1.0000 0.95560  0.69950  0.56990  Biso   1.000  C
  C10      1.0000 0.04440  0.69950  0.93010  Biso   1.000  C
  C11      1.0000 0.45560  0.19950  0.56990  Biso   1.000  C
  C12      1.0000 0.54440  0.19950  0.93010  Biso   1.000  C
  C13      1.0000 0.04440  0.30050  0.43010  Biso   1.000  C
  C14      1.0000 0.95560  0.30050  0.06990  Biso   1.000  C
  C15      1.0000 0.54440  0.80050  0.43010  Biso   1.000  C
  C16      1.0000 0.45560  0.80050  0.06990  Biso   1.000  C
  H5       1.0000 0.92620  0.68130  0.44920  Biso   1.000  H
  H6       1.0000 0.07380  0.68130  0.05080  Biso   1.000  H
  H7       1.0000 0.42620  0.18130  0.44920  Biso   1.000  H
  H8       1.0000 0.57380  0.18130  0.05080  Biso   1.000  H
  H9       1.0000 0.07380  0.31870  0.55080  Biso   1.000  H
  H10      1.0000 0.92620  0.31870  0.94920  Biso   1.000  H
  H11      1.0000 0.57380  0.81870  0.55080  Biso   1.000  H
  H12      1.0000 0.42620  0.81870  0.94920  Biso   1.000  H
  C17      1.0000 0.95560  0.75340  0.57270  Biso   1.000  C
  C18      1.0000 0.04440  0.75340  0.92730  Biso   1.000  C
  C19      1.0000 0.45560  0.25340  0.57270  Biso   1.000  C
  C20      1.0000 0.54440  0.25340  0.92730  Biso   1.000  C
  C21      1.0000 0.04440  0.24660  0.42730  Biso   1.000  C
  C22      1.0000 0.95560  0.24660  0.07270  Biso   1.000  C
  C23      1.0000 0.54440  0.74660  0.42730  Biso   1.000  C
  C24      1.0000 0.45560  0.74660  0.07270  Biso   1.000  C
  C25      1.0000 0.00000  0.78030  0.75000  Biso   1.000  C
  C26      1.0000 0.50000  0.28030  0.75000  Biso   1.000  C
  C27      1.0000 0.00000  0.21970  0.25000  Biso   1.000  C
  C28      1.0000 0.50000  0.71970  0.25000  Biso   1.000  C
  H13      1.0000 0.00000  0.81680  0.75000  Biso   1.000  H
  H14      1.0000 0.50000  0.31680  0.75000  Biso   1.000  H
  H15      1.0000 0.00000  0.18320  0.25000  Biso   1.000  H
  H16      1.0000 0.50000  0.68320  0.25000  Biso   1.000  H
  C29      1.0000 0.86160  0.76100  0.22590  Biso   1.000  C
  C30      1.0000 0.13840  0.76100  0.27410  Biso   1.000  C
  C31      1.0000 0.36160  0.26100  0.22590  Biso   1.000  C
  C32      1.0000 0.63840  0.26100  0.27410  Biso   1.000  C
  C33      1.0000 0.13840  0.23900  0.77410  Biso   1.000  C
  C34      1.0000 0.86160  0.23900  0.72590  Biso   1.000  C
  C35      1.0000 0.63840  0.73900  0.77410  Biso   1.000  C
  C36      1.0000 0.36160  0.73900  0.72590  Biso   1.000  C
  H17      1.0000 0.83370  0.73300  0.28670  Biso   1.000  H
  H18      1.0000 0.16630  0.73300  0.21330  Biso   1.000  H
  H19      1.0000 0.33370  0.23300  0.28670  Biso   1.000  H
  H20      1.0000 0.66630  0.23300  0.21330  Biso   1.000  H
  H21      1.0000 0.16630  0.26700  0.71330  Biso   1.000  H
  H22      1.0000 0.83370  0.26700  0.78670  Biso   1.000  H
  H23      1.0000 0.66630  0.76700  0.71330  Biso   1.000  H
  H24      1.0000 0.33370  0.76700  0.78670  Biso   1.000  H
  H25      1.0000 0.88880  0.74650  0.10810  Biso   1.000  H
  H26      1.0000 0.11120  0.74650  0.39190  Biso   1.000  H
  H27      1.0000 0.38880  0.24650  0.10810  Biso   1.000  H
  H28      1.0000 0.61120  0.24650  0.39190  Biso   1.000  H
  H29      1.0000 0.11120  0.25350  0.89190  Biso   1.000  H
  H30      1.0000 0.88880  0.25350  0.60810  Biso   1.000  H
  H31      1.0000 0.61120  0.75350  0.89190  Biso   1.000  H
  H32      1.0000 0.38880  0.75350  0.60810  Biso   1.000  H
  C37      1.0000 0.80970  0.80340  0.12250  Biso   1.000  C
  C38      1.0000 0.19030  0.80340  0.37750  Biso   1.000  C
  C39      1.0000 0.30970  0.30340  0.12250  Biso   1.000  C
  C40      1.0000 0.69030  0.30340  0.37750  Biso   1.000  C
  C41      1.0000 0.19030  0.19660  0.87750  Biso   1.000  C
  C42      1.0000 0.80970  0.19660  0.62250  Biso   1.000  C
  C43      1.0000 0.69030  0.69660  0.87750  Biso   1.000  C
  C44      1.0000 0.30970  0.69660  0.62250  Biso   1.000  C
  C45      1.0000 0.75280  0.82010  0.24240  Biso   1.000  C
  C46      1.0000 0.24720  0.82010  0.25760  Biso   1.000  C
  C47      1.0000 0.25280  0.32010  0.24240  Biso   1.000  C
  C48      1.0000 0.74720  0.32010  0.25760  Biso   1.000  C
  C49      1.0000 0.24720  0.17990  0.75760  Biso   1.000  C
  C50      1.0000 0.75280  0.17990  0.74240  Biso   1.000  C
  C51      1.0000 0.74720  0.67990  0.75760  Biso   1.000  C
  C52      1.0000 0.25280  0.67990  0.74240  Biso   1.000  C
  H33      1.0000 0.74530  0.80290  0.37920  Biso   1.000  H
  H34      1.0000 0.25470  0.80290  0.12080  Biso   1.000  H
  H35      1.0000 0.24530  0.30290  0.37920  Biso   1.000  H
  H36      1.0000 0.75470  0.30290  0.12080  Biso   1.000  H
  H37      1.0000 0.25470  0.19710  0.62080  Biso   1.000  H
  H38      1.0000 0.74530  0.19710  0.87920  Biso   1.000  H
  H39      1.0000 0.75470  0.69710  0.62080  Biso   1.000  H
  H40      1.0000 0.24530  0.69710  0.87920  Biso   1.000  H
  C53      1.0000 0.70710  0.86180  0.16180  Biso   1.000  C
  C54      1.0000 0.29290  0.86180  0.33820  Biso   1.000  C
  C55      1.0000 0.20710  0.36180  0.16180  Biso   1.000  C
  C56      1.0000 0.79290  0.36180  0.33820  Biso   1.000  C
  C57      1.0000 0.29290  0.13820  0.83820  Biso   1.000  C
  C58      1.0000 0.70710  0.13820  0.66180  Biso   1.000  C
  C59      1.0000 0.79290  0.63820  0.83820  Biso   1.000  C
  C60      1.0000 0.20710  0.63820  0.66180  Biso   1.000  C
  H41      1.0000 0.67010  0.87310  0.24610  Biso   1.000  H
  H42      1.0000 0.32990  0.87310  0.25390  Biso   1.000  H
  H43      1.0000 0.17010  0.37310  0.24610  Biso   1.000  H
  H44      1.0000 0.82990  0.37310  0.25390  Biso   1.000  H
  H45      1.0000 0.32990  0.12690  0.75390  Biso   1.000  H
  H46      1.0000 0.67010  0.12690  0.74610  Biso   1.000  H
  H47      1.0000 0.82990  0.62690  0.75390  Biso   1.000  H
  H48      1.0000 0.17010  0.62690  0.74610  Biso   1.000  H
  C61      1.0000 0.71660  0.88710  0.95380  Biso   1.000  C
  C62      1.0000 0.28340  0.88710  0.54620  Biso   1.000  C
  C63      1.0000 0.21660  0.38710  0.95380  Biso   1.000  C
  C64      1.0000 0.78340  0.38710  0.54620  Biso   1.000  C
  C65      1.0000 0.28340  0.11290  0.04620  Biso   1.000  C
  C66      1.0000 0.71660  0.11290  0.45380  Biso   1.000  C
  C67      1.0000 0.78340  0.61290  0.04620  Biso   1.000  C
  C68      1.0000 0.21660  0.61290  0.45380  Biso   1.000  C
  C69      1.0000 0.77080  0.86870  0.83210  Biso   1.000  C
  C70      1.0000 0.22920  0.86870  0.66790  Biso   1.000  C
  C71      1.0000 0.27080  0.36870  0.83210  Biso   1.000  C
  C72      1.0000 0.72920  0.36870  0.66790  Biso   1.000  C
  C73      1.0000 0.22920  0.13130  0.16790  Biso   1.000  C
  C74      1.0000 0.77080  0.13130  0.33210  Biso   1.000  C
  C75      1.0000 0.72920  0.63130  0.16790  Biso   1.000  C
  C76      1.0000 0.27080  0.63130  0.33210  Biso   1.000  C
  H49      1.0000 0.77640  0.88420  0.68990  Biso   1.000  H
  H50      1.0000 0.22360  0.88420  0.81010  Biso   1.000  H
  H51      1.0000 0.27640  0.38420  0.68990  Biso   1.000  H
  H52      1.0000 0.72360  0.38420  0.81010  Biso   1.000  H
  H53      1.0000 0.22360  0.11580  0.31010  Biso   1.000  H
  H54      1.0000 0.77640  0.11580  0.18990  Biso   1.000  H
  H55      1.0000 0.72360  0.61580  0.31010  Biso   1.000  H
  H56      1.0000 0.27640  0.61580  0.18990  Biso   1.000  H
  C77      1.0000 0.81750  0.82740  0.91640  Biso   1.000  C
  C78      1.0000 0.18250  0.82740  0.58360  Biso   1.000  C
  C79      1.0000 0.31750  0.32740  0.91640  Biso   1.000  C
  C80      1.0000 0.68250  0.32740  0.58360  Biso   1.000  C
  C81      1.0000 0.18250  0.17260  0.08360  Biso   1.000  C
  C82      1.0000 0.81750  0.17260  0.41640  Biso   1.000  C
  C83      1.0000 0.68250  0.67260  0.08360  Biso   1.000  C
  C84      1.0000 0.31750  0.67260  0.41640  Biso   1.000  C
  H57      1.0000 0.85430  0.81600  0.83160  Biso   1.000  H
  H58      1.0000 0.14570  0.81600  0.66840  Biso   1.000  H
  H59      1.0000 0.35430  0.31600  0.83160  Biso   1.000  H
  H60      1.0000 0.64570  0.31600  0.66840  Biso   1.000  H
  H61      1.0000 0.14570  0.18400  0.16840  Biso   1.000  H
  H62      1.0000 0.85430  0.18400  0.33160  Biso   1.000  H
  H63      1.0000 0.64570  0.68400  0.16840  Biso   1.000  H
  H64      1.0000 0.35430  0.68400  0.33160  Biso   1.000  H
  C85      1.0000 0.66810  0.93170  0.86640  Biso   1.000  C
  C86      1.0000 0.33190  0.93170  0.63360  Biso   1.000  C
  C87      1.0000 0.16810  0.43170  0.86640  Biso   1.000  C
  C88      1.0000 0.83190  0.43170  0.63360  Biso   1.000  C
  C89      1.0000 0.33190  0.06830  0.13360  Biso   1.000  C
  C90      1.0000 0.66810  0.06830  0.36640  Biso   1.000  C
  C91      1.0000 0.83190  0.56830  0.13360  Biso   1.000  C
  C92      1.0000 0.16810  0.56830  0.36640  Biso   1.000  C
  O37      1.0000 0.50000  0.40800  0.25000  Biso   1.000  O
  O38      1.0000 0.00000  0.90800  0.25000  Biso   1.000  O
  O39      1.0000 0.50000  0.59200  0.75000  Biso   1.000  O
  O40      1.0000 0.00000  0.09200  0.75000  Biso   1.000  O
  O41      1.0000 0.83500  0.97910  0.40100  Biso   1.000  O
  O42      1.0000 0.16500  0.97910  0.09900  Biso   1.000  O
  O43      1.0000 0.33500  0.47910  0.40100  Biso   1.000  O
  O44      1.0000 0.66500  0.47910  0.09900  Biso   1.000  O
  O45      1.0000 0.16500  0.02090  0.59900  Biso   1.000  O
  O46      1.0000 0.83500  0.02090  0.90100  Biso   1.000  O
  O47      1.0000 0.66500  0.52090  0.59900  Biso   1.000  O
  O48      1.0000 0.33500  0.52090  0.90100  Biso   1.000  O
  H65      1.0000 0.79180  0.96640  0.40150  Biso   1.000  H
  H66      1.0000 0.20820  0.96640  0.09850  Biso   1.000  H
  H67      1.0000 0.29180  0.46640  0.40150  Biso   1.000  H
  H68      1.0000 0.70820  0.46640  0.09850  Biso   1.000  H
  H69      1.0000 0.20820  0.03360  0.59850  Biso   1.000  H
  H70      1.0000 0.79180  0.03360  0.90150  Biso   1.000  H
  H71      1.0000 0.70820  0.53360  0.59850  Biso   1.000  H
  H72      1.0000 0.29180  0.53360  0.90150  Biso   1.000  H
  O49      1.0000 0.50000  0.42800  0.75000  Biso   1.000  O
  O50      1.0000 0.00000  0.92800  0.75000  Biso   1.000  O
  O51      1.0000 0.50000  0.57200  0.25000  Biso   1.000  O
  O52      1.0000 0.00000  0.07200  0.25000  Biso   1.000  O
  H73      1.0000 0.50840  0.38000  0.17520  Biso   1.000  H
  H74      1.0000 0.49160  0.38000  0.32480  Biso   1.000  H
  H75      1.0000 0.00840  0.88000  0.17520  Biso   1.000  H
  H76      1.0000 0.99160  0.88000  0.32480  Biso   1.000  H
  H77      1.0000 0.49160  0.62000  0.82480  Biso   1.000  H
  H78      1.0000 0.50840  0.62000  0.67520  Biso   1.000  H
  H79      1.0000 0.99160  0.12000  0.82480  Biso   1.000  H
  H80      1.0000 0.00840  0.12000  0.67520  Biso   1.000  H
  H81      1.0000 0.54510  0.43850  0.76630  Biso   1.000  H
  H82      1.0000 0.45490  0.43850  0.73370  Biso   1.000  H
  H83      1.0000 0.04510  0.93850  0.76630  Biso   1.000  H
  H84      1.0000 0.95490  0.93850  0.73370  Biso   1.000  H
  H85      1.0000 0.45490  0.56150  0.23370  Biso   1.000  H
  H86      1.0000 0.54510  0.56150  0.26630  Biso   1.000  H
  H87      1.0000 0.95490  0.06150  0.23370  Biso   1.000  H
  H88      1.0000 0.04510  0.06150  0.26630  Biso   1.000  H
  H89      1.0000 0.46620  0.40670  0.33750  Biso   1.000  H
  H90      1.0000 0.53380  0.40670  0.16250  Biso   1.000  H
  H91      1.0000 0.96620  0.90670  0.33750  Biso   1.000  H
  H92      1.0000 0.03380  0.90670  0.16250  Biso   1.000  H
  H93      1.0000 0.53380  0.59330  0.66250  Biso   1.000  H
  H94      1.0000 0.46620  0.59330  0.83750  Biso   1.000  H
  H95      1.0000 0.03380  0.09330  0.66250  Biso   1.000  H
  H96      1.0000 0.96620  0.09330  0.83750  Biso   1.000  H
  H97      1.0000 0.50000  0.42280  0.60410  Biso   1.000  H
  H98      1.0000 0.50000  0.42280  0.89590  Biso   1.000  H
  H99      1.0000 0.00000  0.92280  0.60410  Biso   1.000  H
  H100     1.0000 0.00000  0.92280  0.89590  Biso   1.000  H
  H101     1.0000 0.50000  0.57720  0.39590  Biso   1.000  H
  H102     1.0000 0.50000  0.57720  0.10410  Biso   1.000  H
  H103     1.0000 0.00000  0.07720  0.39590  Biso   1.000  H
  H104     1.0000 0.00000  0.07720  0.10410  Biso   1.000  H
  H105     1.0000 0.81020  0.00640  0.35380  Biso   1.000  H
  H106     1.0000 0.18980  0.00640  0.14620  Biso   1.000  H
  H107     1.0000 0.31020  0.50640  0.35380  Biso   1.000  H
  H108     1.0000 0.68980  0.50640  0.14620  Biso   1.000  H
  H109     1.0000 0.18980  0.99360  0.64620  Biso   1.000  H
  H110     1.0000 0.81020  0.99360  0.85380  Biso   1.000  H
  H111     1.0000 0.68980  0.49360  0.64620  Biso   1.000  H
  H112     1.0000 0.31020  0.49360  0.85380  Biso   1.000  H
