data_image0
_cell_length_a       6.2062
_cell_length_b       19.1198
_cell_length_c       25.5158
_cell_angle_alpha    90
_cell_angle_beta     90
_cell_angle_gamma    90

_symmetry_space_group_name_H-M    "P 1"
_symmetry_int_tables_number       1

loop_
  _symmetry_equiv_pos_as_xyz
  'x, y, z'

loop_
  _atom_site_label
  _atom_site_occupancy
  _atom_site_fract_x
  _atom_site_fract_y
  _atom_site_fract_z
  _atom_site_thermal_displace_type
  _atom_site_B_iso_or_equiv
  _atom_site_type_symbol
  Cu1      1.0000 0.11777  0.49704  0.80304  Biso   1.000  Cu
  Cu2      1.0000 0.38223  0.50296  0.30304  Biso   1.000  Cu
  Cu3      1.0000 0.88223  0.99704  0.69696  Biso   1.000  Cu
  Cu4      1.0000 0.61777  0.00296  0.19696  Biso   1.000  Cu
  O1       1.0000 0.24390  0.58550  0.83105  Biso   1.000  O
  O2       1.0000 0.25610  0.41450  0.33105  Biso   1.000  O
  O3       1.0000 0.75610  0.08550  0.66895  Biso   1.000  O
  O4       1.0000 0.74390  0.91450  0.16895  Biso   1.000  O
  O5       1.0000 0.95170  0.60857  0.78630  Biso   1.000  O
  O6       1.0000 0.54830  0.39143  0.28630  Biso   1.000  O
  O7       1.0000 0.04830  0.10857  0.71370  Biso   1.000  O
  O8       1.0000 0.45170  0.89143  0.21370  Biso   1.000  O
  O9       1.0000 0.82960  0.84430  0.71045  Biso   1.000  O
  O10      1.0000 0.67040  0.15570  0.21045  Biso   1.000  O
  O11      1.0000 0.17040  0.34430  0.78955  Biso   1.000  O
  O12      1.0000 0.32960  0.65570  0.28955  Biso   1.000  O
  O13      1.0000 0.05460  0.92942  0.73337  Biso   1.000  O
  O14      1.0000 0.44540  0.07058  0.23337  Biso   1.000  O
  O15      1.0000 0.94540  0.42942  0.76663  Biso   1.000  O
  O16      1.0000 0.55460  0.57058  0.26663  Biso   1.000  O
  O17      1.0000 0.75060  0.80730  0.61028  Biso   1.000  O
  O18      1.0000 0.74940  0.19270  0.11028  Biso   1.000  O
  O19      1.0000 0.24940  0.30730  0.88972  Biso   1.000  O
  O20      1.0000 0.25060  0.69270  0.38972  Biso   1.000  O
  H1       1.0000 0.77530  0.81450  0.64140  Biso   1.000  H
  H2       1.0000 0.72470  0.18550  0.14140  Biso   1.000  H
  H3       1.0000 0.22470  0.31450  0.85860  Biso   1.000  H
  H4       1.0000 0.27530  0.68550  0.35860  Biso   1.000  H
  N1       1.0000 0.31790  0.50740  0.74104  Biso   1.000  N
  N2       1.0000 0.18210  0.49260  0.24104  Biso   1.000  N
  N3       1.0000 0.68210  0.00740  0.75896  Biso   1.000  N
  N4       1.0000 0.81790  0.99260  0.25896  Biso   1.000  N
  N5       1.0000 0.65550  0.55099  0.56442  Biso   1.000  N
  N6       1.0000 0.84450  0.44901  0.06442  Biso   1.000  N
  N7       1.0000 0.34450  0.05099  0.93558  Biso   1.000  N
  N8       1.0000 0.15550  0.94901  0.43558  Biso   1.000  N
  N9       1.0000 0.51000  0.52674  0.37270  Biso   1.000  N
  N10      1.0000 0.99000  0.47326  0.87270  Biso   1.000  N
  N11      1.0000 0.49000  0.02674  0.12730  Biso   1.000  N
  N12      1.0000 0.01000  0.97326  0.62730  Biso   1.000  N
  C1       1.0000 0.12090  0.62758  0.80727  Biso   1.000  C
  C2       1.0000 0.37910  0.37242  0.30727  Biso   1.000  C
  C3       1.0000 0.87910  0.12758  0.69273  Biso   1.000  C
  C4       1.0000 0.62090  0.87242  0.19273  Biso   1.000  C
  C5       1.0000 0.19180  0.70273  0.80173  Biso   1.000  C
  C6       1.0000 0.30820  0.29727  0.30173  Biso   1.000  C
  C7       1.0000 0.80820  0.20273  0.69827  Biso   1.000  C
  C8       1.0000 0.69180  0.79727  0.19827  Biso   1.000  C
  C9       1.0000 0.06270  0.74903  0.77357  Biso   1.000  C
  C10      1.0000 0.43730  0.25097  0.27357  Biso   1.000  C
  C11      1.0000 0.93730  0.24903  0.72643  Biso   1.000  C
  C12      1.0000 0.56270  0.75097  0.22643  Biso   1.000  C
  H5       1.0000 0.93160  0.73390  0.76010  Biso   1.000  H
  H6       1.0000 0.56840  0.26610  0.26010  Biso   1.000  H
  H7       1.0000 0.06840  0.23390  0.73990  Biso   1.000  H
  H8       1.0000 0.43160  0.76610  0.23990  Biso   1.000  H
  C13      1.0000 0.12810  0.81722  0.76558  Biso   1.000  C
  C14      1.0000 0.37190  0.18278  0.26558  Biso   1.000  C
  C15      1.0000 0.87190  0.31722  0.73442  Biso   1.000  C
  C16      1.0000 0.62810  0.68278  0.23442  Biso   1.000  C
  C17      1.0000 0.32540  0.83900  0.78530  Biso   1.000  C
  C18      1.0000 0.17460  0.16100  0.28530  Biso   1.000  C
  C19      1.0000 0.67460  0.33900  0.71470  Biso   1.000  C
  C20      1.0000 0.82540  0.66100  0.21470  Biso   1.000  C
  H9       1.0000 0.36980  0.88500  0.78060  Biso   1.000  H
  H10      1.0000 0.13020  0.11500  0.28060  Biso   1.000  H
  H11      1.0000 0.63020  0.38500  0.71940  Biso   1.000  H
  H12      1.0000 0.86980  0.61500  0.21940  Biso   1.000  H
  C21      1.0000 0.45530  0.79280  0.81170  Biso   1.000  C
  C22      1.0000 0.04470  0.20720  0.31170  Biso   1.000  C
  C23      1.0000 0.54470  0.29280  0.68830  Biso   1.000  C
  C24      1.0000 0.95530  0.70720  0.18830  Biso   1.000  C
  H13      1.0000 0.58830  0.80760  0.82430  Biso   1.000  H
  H14      1.0000 0.91170  0.19240  0.32430  Biso   1.000  H
  H15      1.0000 0.41170  0.30760  0.67570  Biso   1.000  H
  H16      1.0000 0.08830  0.69240  0.17570  Biso   1.000  H
  C25      1.0000 0.39030  0.72440  0.81970  Biso   1.000  C
  C26      1.0000 0.10970  0.27560  0.31970  Biso   1.000  C
  C27      1.0000 0.60970  0.22440  0.68030  Biso   1.000  C
  C28      1.0000 0.89030  0.77560  0.18030  Biso   1.000  C
  H17      1.0000 0.48010  0.69320  0.83720  Biso   1.000  H
  H18      1.0000 0.01990  0.30680  0.33720  Biso   1.000  H
  H19      1.0000 0.51990  0.19320  0.66280  Biso   1.000  H
  H20      1.0000 0.98010  0.80680  0.16280  Biso   1.000  H
  C29      1.0000 0.99030  0.86568  0.73405  Biso   1.000  C
  C30      1.0000 0.50970  0.13432  0.23405  Biso   1.000  C
  C31      1.0000 0.00970  0.36568  0.76595  Biso   1.000  C
  C32      1.0000 0.49030  0.63432  0.26595  Biso   1.000  C
  C33      1.0000 0.25880  0.49490  0.69121  Biso   1.000  C
  C34      1.0000 0.24120  0.50510  0.19121  Biso   1.000  C
  C35      1.0000 0.74120  0.99490  0.80879  Biso   1.000  C
  C36      1.0000 0.75880  0.00510  0.30879  Biso   1.000  C
  H21      1.0000 0.12680  0.47340  0.68500  Biso   1.000  H
  H22      1.0000 0.37320  0.52660  0.18500  Biso   1.000  H
  H23      1.0000 0.87320  0.97340  0.81500  Biso   1.000  H
  H24      1.0000 0.62680  0.02660  0.31500  Biso   1.000  H
  C37      1.0000 0.38640  0.51270  0.64877  Biso   1.000  C
  C38      1.0000 0.11360  0.48730  0.14877  Biso   1.000  C
  C39      1.0000 0.61360  0.01270  0.85123  Biso   1.000  C
  C40      1.0000 0.88640  0.98730  0.35123  Biso   1.000  C
  H25      1.0000 0.33930  0.50360  0.61490  Biso   1.000  H
  H26      1.0000 0.16070  0.49640  0.11490  Biso   1.000  H
  H27      1.0000 0.66070  0.00360  0.88510  Biso   1.000  H
  H28      1.0000 0.83930  0.99640  0.38510  Biso   1.000  H
  C41      1.0000 0.58310  0.54411  0.65686  Biso   1.000  C
  C42      1.0000 0.91690  0.45589  0.15686  Biso   1.000  C
  C43      1.0000 0.41690  0.04411  0.84314  Biso   1.000  C
  C44      1.0000 0.08310  0.95589  0.34314  Biso   1.000  C
  C45      1.0000 0.64580  0.55370  0.70803  Biso   1.000  C
  C46      1.0000 0.85420  0.44630  0.20803  Biso   1.000  C
  C47      1.0000 0.35420  0.05370  0.79197  Biso   1.000  C
  C48      1.0000 0.14580  0.94630  0.29197  Biso   1.000  C
  H29      1.0000 0.78010  0.57300  0.71520  Biso   1.000  H
  H30      1.0000 0.71990  0.42700  0.21520  Biso   1.000  H
  H31      1.0000 0.21990  0.07300  0.78480  Biso   1.000  H
  H32      1.0000 0.28010  0.92700  0.28480  Biso   1.000  H
  C49      1.0000 0.51310  0.53520  0.74831  Biso   1.000  C
  C50      1.0000 0.98690  0.46480  0.24831  Biso   1.000  C
  C51      1.0000 0.48690  0.03520  0.75169  Biso   1.000  C
  C52      1.0000 0.01310  0.96480  0.25169  Biso   1.000  C
  H33      1.0000 0.56070  0.54230  0.78250  Biso   1.000  H
  H34      1.0000 0.93930  0.45770  0.28250  Biso   1.000  H
  H35      1.0000 0.43930  0.04230  0.71750  Biso   1.000  H
  H36      1.0000 0.06070  0.95770  0.21750  Biso   1.000  H
  C53      1.0000 0.71880  0.56870  0.61256  Biso   1.000  C
  C54      1.0000 0.78120  0.43130  0.11256  Biso   1.000  C
  C55      1.0000 0.28120  0.06870  0.88744  Biso   1.000  C
  C56      1.0000 0.21880  0.93130  0.38744  Biso   1.000  C
  C57      1.0000 0.90160  0.60950  0.62154  Biso   1.000  C
  C58      1.0000 0.59840  0.39050  0.12154  Biso   1.000  C
  C59      1.0000 0.09840  0.10950  0.87846  Biso   1.000  C
  C60      1.0000 0.40160  0.89050  0.37846  Biso   1.000  C
  H37      1.0000 0.94020  0.62030  0.65580  Biso   1.000  H
  H38      1.0000 0.55980  0.37970  0.15580  Biso   1.000  H
  H39      1.0000 0.05980  0.12030  0.84420  Biso   1.000  H
  H40      1.0000 0.44020  0.87970  0.34420  Biso   1.000  H
  C61      1.0000 0.02640  0.63400  0.58075  Biso   1.000  C
  C62      1.0000 0.47360  0.36600  0.08075  Biso   1.000  C
  C63      1.0000 0.97360  0.13400  0.91925  Biso   1.000  C
  C64      1.0000 0.52640  0.86600  0.41925  Biso   1.000  C
  C65      1.0000 0.95610  0.61500  0.52980  Biso   1.000  C
  C66      1.0000 0.54390  0.38500  0.02980  Biso   1.000  C
  C67      1.0000 0.04390  0.11500  0.97020  Biso   1.000  C
  C68      1.0000 0.45610  0.88500  0.47020  Biso   1.000  C
  H41      1.0000 0.03250  0.62970  0.50040  Biso   1.000  H
  H42      1.0000 0.46750  0.37030  0.00040  Biso   1.000  H
  H43      1.0000 0.96750  0.12970  0.99960  Biso   1.000  H
  H44      1.0000 0.53250  0.87030  0.49960  Biso   1.000  H
  C69      1.0000 0.77220  0.57420  0.52412  Biso   1.000  C
  C70      1.0000 0.72780  0.42580  0.02412  Biso   1.000  C
  C71      1.0000 0.22780  0.07420  0.97588  Biso   1.000  C
  C72      1.0000 0.27220  0.92580  0.47588  Biso   1.000  C
  C73      1.0000 0.41090  0.50910  0.41672  Biso   1.000  C
  C74      1.0000 0.08910  0.49090  0.91672  Biso   1.000  C
  C75      1.0000 0.58910  0.00910  0.08328  Biso   1.000  C
  C76      1.0000 0.91090  0.99090  0.58328  Biso   1.000  C
  H45      1.0000 0.28040  0.48540  0.41440  Biso   1.000  H
  H46      1.0000 0.21960  0.51460  0.91440  Biso   1.000  H
  H47      1.0000 0.71960  0.98540  0.08560  Biso   1.000  H
  H48      1.0000 0.78040  0.01460  0.58560  Biso   1.000  H
  C77      1.0000 0.49080  0.52400  0.46568  Biso   1.000  C
  C78      1.0000 0.00920  0.47600  0.96568  Biso   1.000  C
  C79      1.0000 0.50920  0.02400  0.03432  Biso   1.000  C
  C80      1.0000 0.99080  0.97600  0.53432  Biso   1.000  C
  H49      1.0000 0.41250  0.51150  0.49530  Biso   1.000  H
  H50      1.0000 0.08750  0.48850  0.99530  Biso   1.000  H
  H51      1.0000 0.58750  0.01150  0.00470  Biso   1.000  H
  H52      1.0000 0.91250  0.98850  0.50470  Biso   1.000  H
  C81      1.0000 0.68500  0.55720  0.47108  Biso   1.000  C
  C82      1.0000 0.81500  0.44280  0.97108  Biso   1.000  C
  C83      1.0000 0.31500  0.05720  0.02892  Biso   1.000  C
  C84      1.0000 0.18500  0.94280  0.52892  Biso   1.000  C
  C85      1.0000 0.78890  0.57550  0.42509  Biso   1.000  C
  C86      1.0000 0.71110  0.42450  0.92509  Biso   1.000  C
  C87      1.0000 0.21110  0.07550  0.07491  Biso   1.000  C
  C88      1.0000 0.28890  0.92450  0.57491  Biso   1.000  C
  H53      1.0000 0.92190  0.59780  0.42630  Biso   1.000  H
  H54      1.0000 0.57810  0.40220  0.92630  Biso   1.000  H
  H55      1.0000 0.07810  0.09780  0.07370  Biso   1.000  H
  H56      1.0000 0.42190  0.90220  0.57370  Biso   1.000  H
  C89      1.0000 0.69510  0.56050  0.37779  Biso   1.000  C
  C90      1.0000 0.80490  0.43950  0.87779  Biso   1.000  C
  C91      1.0000 0.30490  0.06050  0.12221  Biso   1.000  C
  C92      1.0000 0.19510  0.93950  0.62221  Biso   1.000  C
  H57      1.0000 0.76550  0.57500  0.34750  Biso   1.000  H
  H58      1.0000 0.73450  0.42500  0.84750  Biso   1.000  H
  H59      1.0000 0.23450  0.07500  0.15250  Biso   1.000  H
  H60      1.0000 0.26550  0.92500  0.65250  Biso   1.000  H
  C93      1.0000 0.21740  0.67890  0.58904  Biso   1.000  C
  C94      1.0000 0.28260  0.32110  0.08904  Biso   1.000  C
  C95      1.0000 0.78260  0.17890  0.91096  Biso   1.000  C
  C96      1.0000 0.71740  0.82110  0.41096  Biso   1.000  C
  C97      1.0000 0.25550  0.71150  0.63703  Biso   1.000  C
  C98      1.0000 0.24450  0.28850  0.13703  Biso   1.000  C
  C99      1.0000 0.74450  0.21150  0.86297  Biso   1.000  C
  C100     1.0000 0.75550  0.78850  0.36297  Biso   1.000  C
  H61      1.0000 0.15790  0.70470  0.66420  Biso   1.000  H
  H62      1.0000 0.34210  0.29530  0.16420  Biso   1.000  H
  H63      1.0000 0.84210  0.20470  0.83580  Biso   1.000  H
  H64      1.0000 0.65790  0.79530  0.33580  Biso   1.000  H
  C101     1.0000 0.43160  0.75300  0.64550  Biso   1.000  C
  C102     1.0000 0.06840  0.24700  0.14550  Biso   1.000  C
  C103     1.0000 0.56840  0.25300  0.85450  Biso   1.000  C
  C104     1.0000 0.93160  0.74700  0.35450  Biso   1.000  C
  H65      1.0000 0.45330  0.77320  0.67820  Biso   1.000  H
  H66      1.0000 0.04670  0.22680  0.17820  Biso   1.000  H
  H67      1.0000 0.54670  0.27320  0.82180  Biso   1.000  H
  H68      1.0000 0.95330  0.72680  0.32180  Biso   1.000  H
  C105     1.0000 0.57690  0.76480  0.60566  Biso   1.000  C
  C106     1.0000 0.92310  0.23520  0.10566  Biso   1.000  C
  C107     1.0000 0.42310  0.26480  0.89434  Biso   1.000  C
  C108     1.0000 0.07690  0.73520  0.39434  Biso   1.000  C
  C109     1.0000 0.54280  0.73290  0.55754  Biso   1.000  C
  C110     1.0000 0.95720  0.26710  0.05754  Biso   1.000  C
  C111     1.0000 0.45720  0.23290  0.94246  Biso   1.000  C
  C112     1.0000 0.04280  0.76710  0.44246  Biso   1.000  C
  H69      1.0000 0.63980  0.74010  0.53030  Biso   1.000  H
  H70      1.0000 0.86020  0.25990  0.03030  Biso   1.000  H
  H71      1.0000 0.36020  0.24010  0.96970  Biso   1.000  H
  H72      1.0000 0.13980  0.75990  0.46970  Biso   1.000  H
  C113     1.0000 0.36640  0.69060  0.54994  Biso   1.000  C
  C114     1.0000 0.13360  0.30940  0.04994  Biso   1.000  C
  C115     1.0000 0.63360  0.19060  0.95006  Biso   1.000  C
  C116     1.0000 0.86640  0.80940  0.45006  Biso   1.000  C
  H73      1.0000 0.34700  0.66920  0.51750  Biso   1.000  H
  H74      1.0000 0.15300  0.33080  0.01750  Biso   1.000  H
  H75      1.0000 0.65300  0.16920  0.98250  Biso   1.000  H
  H76      1.0000 0.84700  0.83080  0.48250  Biso   1.000  H
