data_image0
_cell_length_a       7.1318
_cell_length_b       10.593
_cell_length_c       11.125
_cell_angle_alpha    67.21
_cell_angle_beta     78.48
_cell_angle_gamma    89.98

_symmetry_space_group_name_H-M    "P 1"
_symmetry_int_tables_number       1

loop_
  _symmetry_equiv_pos_as_xyz
  'x, y, z'

loop_
  _atom_site_label
  _atom_site_occupancy
  _atom_site_fract_x
  _atom_site_fract_y
  _atom_site_fract_z
  _atom_site_thermal_displace_type
  _atom_site_B_iso_or_equiv
  _atom_site_type_symbol
  C1       1.0000 0.56810  0.00820  0.27340  Biso   1.000  C
  C2       1.0000 0.43190  0.99180  0.72660  Biso   1.000  C
  C3       1.0000 0.35000  0.01600  0.27990  Biso   1.000  C
  C4       1.0000 0.65000  0.98400  0.72010  Biso   1.000  C
  C5       1.0000 0.42340  0.68380  0.77470  Biso   1.000  C
  C6       1.0000 0.57660  0.31620  0.22530  Biso   1.000  C
  C7       1.0000 0.20500  0.68990  0.77810  Biso   1.000  C
  C8       1.0000 0.79500  0.31010  0.22190  Biso   1.000  C
  C9       1.0000 0.90420  0.75630  0.21330  Biso   1.000  C
  C10      1.0000 0.09580  0.24370  0.78670  Biso   1.000  C
  C11      1.0000 0.78750  0.65610  0.17840  Biso   1.000  C
  C12      1.0000 0.21250  0.34390  0.82160  Biso   1.000  C
  C13      1.0000 0.75490  0.42900  0.70530  Biso   1.000  C
  C14      1.0000 0.24510  0.57100  0.29470  Biso   1.000  C
  C15      1.0000 0.64660  0.32080  0.67770  Biso   1.000  C
  C16      1.0000 0.35340  0.67920  0.32230  Biso   1.000  C
  O1       1.0000 0.61250  0.93470  0.38510  Biso   1.000  O
  O2       1.0000 0.38750  0.06530  0.61490  Biso   1.000  O
  O3       1.0000 0.24180  0.95240  0.39540  Biso   1.000  O
  O4       1.0000 0.75820  0.04760  0.60460  Biso   1.000  O
  O5       1.0000 0.29520  0.08640  0.17750  Biso   1.000  O
  O6       1.0000 0.70480  0.91360  0.82250  Biso   1.000  O
  O7       1.0000 0.68270  0.07570  0.16780  Biso   1.000  O
  O8       1.0000 0.31730  0.92430  0.83220  Biso   1.000  O
  O9       1.0000 0.53110  0.74620  0.65810  Biso   1.000  O
  O10      1.0000 0.46890  0.25380  0.34190  Biso   1.000  O
  O11      1.0000 0.16180  0.76140  0.66450  Biso   1.000  O
  O12      1.0000 0.83820  0.23860  0.33550  Biso   1.000  O
  O13      1.0000 0.47760  0.62660  0.87890  Biso   1.000  O
  O14      1.0000 0.52240  0.37340  0.12110  Biso   1.000  O
  O15      1.0000 0.08850  0.63410  0.88450  Biso   1.000  O
  O16      1.0000 0.91150  0.36590  0.11550  Biso   1.000  O
  O17      1.0000 0.91270  0.71260  0.33710  Biso   1.000  O
  O18      1.0000 0.08730  0.28740  0.66290  Biso   1.000  O
  O19      1.0000 0.72040  0.54300  0.27560  Biso   1.000  O
  O20      1.0000 0.27960  0.45700  0.72440  Biso   1.000  O
  O21      1.0000 0.97750  0.86610  0.12430  Biso   1.000  O
  O22      1.0000 0.02250  0.13390  0.87570  Biso   1.000  O
  O23      1.0000 0.76540  0.69140  0.06220  Biso   1.000  O
  O24      1.0000 0.23460  0.30860  0.93780  Biso   1.000  O
  O25      1.0000 0.84180  0.53240  0.60200  Biso   1.000  O
  O26      1.0000 0.15820  0.46760  0.39800  Biso   1.000  O
  O27      1.0000 0.65160  0.35000  0.55150  Biso   1.000  O
  O28      1.0000 0.34840  0.65000  0.44850  Biso   1.000  O
  O29      1.0000 0.75460  0.40970  0.82220  Biso   1.000  O
  O30      1.0000 0.24540  0.59030  0.17780  Biso   1.000  O
  O31      1.0000 0.56610  0.21710  0.77000  Biso   1.000  O
  O32      1.0000 0.43390  0.78290  0.23000  Biso   1.000  O
  Na1      1.0000 0.02030  0.10037  0.09729  Biso   1.000  Na
  Na2      1.0000 0.97970  0.89963  0.90271  Biso   1.000  Na
  K1       1.0000 0.89041  0.81785  0.52282  Biso   1.000  K
  K2       1.0000 0.10959  0.18215  0.47718  Biso   1.000  K
  Cu1      1.0000 0.38686  0.83623  0.52170  Biso   1.000  Cu
  Cu2      1.0000 0.61314  0.16377  0.47830  Biso   1.000  Cu
  Cu3      1.0000 0.78702  0.52976  0.43907  Biso   1.000  Cu
  Cu4      1.0000 0.21298  0.47024  0.56093  Biso   1.000  Cu
  Na3      1.0000 0.53940  0.22096  0.98837  Biso   1.000  Na
  Na4      1.0000 0.46060  0.77904  0.01163  Biso   1.000  Na
  Na5      1.0000 0.23070  0.45921  0.05245  Biso   1.000  Na
  Na6      1.0000 0.76930  0.54079  0.94755  Biso   1.000  Na
