data_image0
_cell_length_a       7.9953
_cell_length_b       8.9746
_cell_length_c       8.0033
_cell_angle_alpha    90
_cell_angle_beta     107.469
_cell_angle_gamma    90

_symmetry_space_group_name_H-M    "P 1"
_symmetry_int_tables_number       1

loop_
  _symmetry_equiv_pos_as_xyz
  'x, y, z'

loop_
  _atom_site_label
  _atom_site_occupancy
  _atom_site_fract_x
  _atom_site_fract_y
  _atom_site_fract_z
  _atom_site_thermal_displace_type
  _atom_site_B_iso_or_equiv
  _atom_site_type_symbol
  Cu1      1.0000 0.00000  0.00000  0.00000  Biso   1.000  Cu
  Cu2      1.0000 0.50000  0.50000  0.50000  Biso   1.000  Cu
  O1       1.0000 0.14733  0.18661  0.01126  Biso   1.000  O
  O2       1.0000 0.35267  0.68661  0.48874  Biso   1.000  O
  O3       1.0000 0.85267  0.81339  0.98874  Biso   1.000  O
  O4       1.0000 0.64733  0.31339  0.51126  Biso   1.000  O
  O5       1.0000 0.06882  0.22540  0.72886  Biso   1.000  O
  O6       1.0000 0.43118  0.72540  0.77114  Biso   1.000  O
  O7       1.0000 0.93118  0.77460  0.27114  Biso   1.000  O
  O8       1.0000 0.56882  0.27460  0.22886  Biso   1.000  O
  O9       1.0000 0.21781  0.39225  0.90742  Biso   1.000  O
  O10      1.0000 0.28219  0.89225  0.59258  Biso   1.000  O
  O11      1.0000 0.78219  0.60775  0.09258  Biso   1.000  O
  O12      1.0000 0.71781  0.10775  0.40742  Biso   1.000  O
  N1       1.0000 0.50270  0.82618  0.17890  Biso   1.000  N
  N2       1.0000 0.99730  0.32618  0.32110  Biso   1.000  N
  N3       1.0000 0.49730  0.17382  0.82110  Biso   1.000  N
  N4       1.0000 0.00270  0.67382  0.67890  Biso   1.000  N
  N5       1.0000 0.39591  0.70990  0.14808  Biso   1.000  N
  N6       1.0000 0.10409  0.20990  0.35192  Biso   1.000  N
  N7       1.0000 0.60409  0.29010  0.85192  Biso   1.000  N
  N8       1.0000 0.89591  0.79010  0.64808  Biso   1.000  N
  N9       1.0000 0.22921  0.73797  0.09068  Biso   1.000  N
  N10      1.0000 0.27079  0.23797  0.40932  Biso   1.000  N
  N11      1.0000 0.77079  0.26203  0.90932  Biso   1.000  N
  N12      1.0000 0.72921  0.76203  0.59068  Biso   1.000  N
  N13      1.0000 0.22289  0.88669  0.07874  Biso   1.000  N
  N14      1.0000 0.27711  0.38669  0.42126  Biso   1.000  N
  N15      1.0000 0.77711  0.11331  0.92126  Biso   1.000  N
  N16      1.0000 0.72289  0.61331  0.57874  Biso   1.000  N
  N17      1.0000 0.14376  0.26833  0.87850  Biso   1.000  N
  N18      1.0000 0.35624  0.76833  0.62150  Biso   1.000  N
  N19      1.0000 0.85624  0.73167  0.12150  Biso   1.000  N
  N20      1.0000 0.64376  0.23167  0.37850  Biso   1.000  N
  C1       1.0000 0.38850  0.93700  0.13280  Biso   1.000  C
  C2       1.0000 0.11150  0.43700  0.36720  Biso   1.000  C
  C3       1.0000 0.61150  0.06300  0.86720  Biso   1.000  C
  C4       1.0000 0.88850  0.56300  0.63280  Biso   1.000  C
  N21      1.0000 0.45880  0.56598  0.19700  Biso   1.000  N
  N22      1.0000 0.04120  0.06598  0.30300  Biso   1.000  N
  N23      1.0000 0.54120  0.43402  0.80300  Biso   1.000  N
  N24      1.0000 0.95880  0.93402  0.69700  Biso   1.000  N
  H1       1.0000 0.41700  0.03800  0.14000  Biso   1.000  H
  H2       1.0000 0.08300  0.53800  0.36000  Biso   1.000  H
  H3       1.0000 0.58300  0.96200  0.86000  Biso   1.000  H
  H4       1.0000 0.91700  0.46200  0.64000  Biso   1.000  H
  H5       1.0000 0.39400  0.50300  0.13200  Biso   1.000  H
  H6       1.0000 0.10600  0.00300  0.36800  Biso   1.000  H
  H7       1.0000 0.60600  0.49700  0.86800  Biso   1.000  H
  H8       1.0000 0.89400  0.99700  0.63200  Biso   1.000  H
  H9       1.0000 0.55800  0.55600  0.17700  Biso   1.000  H
  H10      1.0000 0.94200  0.05600  0.32300  Biso   1.000  H
  H11      1.0000 0.44200  0.44400  0.82300  Biso   1.000  H
  H12      1.0000 0.05800  0.94400  0.67700  Biso   1.000  H
