data_image0
_cell_length_a       6.8468
_cell_length_b       3.6679
_cell_length_c       18.5122
_cell_angle_alpha    90
_cell_angle_beta     91.579
_cell_angle_gamma    90

_symmetry_space_group_name_H-M    "P 1"
_symmetry_int_tables_number       1

loop_
  _symmetry_equiv_pos_as_xyz
  'x, y, z'

loop_
  _atom_site_label
  _atom_site_occupancy
  _atom_site_fract_x
  _atom_site_fract_y
  _atom_site_fract_z
  _atom_site_thermal_displace_type
  _atom_site_B_iso_or_equiv
  _atom_site_type_symbol
  Cu1      1.0000 0.00000  0.00000  0.00000  Biso   1.000  Cu
  Cu2      1.0000 0.00000  0.50000  0.50000  Biso   1.000  Cu
  Cl1      1.0000 0.78472  0.40117  0.94615  Biso   1.000  Cl
  Cl2      1.0000 0.21528  0.90117  0.55385  Biso   1.000  Cl
  Cl3      1.0000 0.21528  0.59883  0.05385  Biso   1.000  Cl
  Cl4      1.0000 0.78472  0.09883  0.44615  Biso   1.000  Cl
  N1       1.0000 0.61020  0.14090  0.16959  Biso   1.000  N
  N2       1.0000 0.38980  0.64090  0.33041  Biso   1.000  N
  N3       1.0000 0.38980  0.85910  0.83041  Biso   1.000  N
  N4       1.0000 0.61020  0.35910  0.66959  Biso   1.000  N
  N5       1.0000 0.76510  0.97400  0.19901  Biso   1.000  N
  N6       1.0000 0.23490  0.47400  0.30099  Biso   1.000  N
  N7       1.0000 0.23490  0.02600  0.80099  Biso   1.000  N
  N8       1.0000 0.76510  0.52600  0.69901  Biso   1.000  N
  N9       1.0000 0.90050  0.88730  0.15386  Biso   1.000  N
  N10      1.0000 0.09950  0.38730  0.34614  Biso   1.000  N
  N11      1.0000 0.09950  0.11270  0.84614  Biso   1.000  N
  N12      1.0000 0.90050  0.61270  0.65386  Biso   1.000  N
  N13      1.0000 0.83430  0.00890  0.09004  Biso   1.000  N
  N14      1.0000 0.16570  0.50890  0.40996  Biso   1.000  N
  N15      1.0000 0.16570  0.99110  0.90996  Biso   1.000  N
  N16      1.0000 0.83430  0.49110  0.59004  Biso   1.000  N
  N17      1.0000 0.78850  0.87570  0.27150  Biso   1.000  N
  N18      1.0000 0.21150  0.37570  0.22850  Biso   1.000  N
  N19      1.0000 0.21150  0.12430  0.72850  Biso   1.000  N
  N20      1.0000 0.78850  0.62430  0.77150  Biso   1.000  N
  C1       1.0000 0.65800  0.15570  0.10084  Biso   1.000  C
  C2       1.0000 0.34200  0.65570  0.39916  Biso   1.000  C
  C3       1.0000 0.34200  0.84430  0.89916  Biso   1.000  C
  C4       1.0000 0.65800  0.34430  0.60084  Biso   1.000  C
  H1       1.0000 0.58500  0.25500  0.06900  Biso   1.000  H
  H2       1.0000 0.41500  0.75500  0.43100  Biso   1.000  H
  H3       1.0000 0.41500  0.74500  0.93100  Biso   1.000  H
  H4       1.0000 0.58500  0.24500  0.56900  Biso   1.000  H
  H5       1.0000 0.83800  0.04100  0.28870  Biso   1.000  H
  H6       1.0000 0.16200  0.54100  0.21130  Biso   1.000  H
  H7       1.0000 0.16200  0.95900  0.71130  Biso   1.000  H
  H8       1.0000 0.83800  0.45900  0.78870  Biso   1.000  H
  H9       1.0000 0.66800  0.81000  0.29010  Biso   1.000  H
  H10      1.0000 0.33200  0.31000  0.20990  Biso   1.000  H
  H11      1.0000 0.33200  0.19000  0.70990  Biso   1.000  H
  H12      1.0000 0.66800  0.69000  0.79010  Biso   1.000  H
