data_image0
_cell_length_a       7.4976
_cell_length_b       12.2023
_cell_length_c       10.3115
_cell_angle_alpha    90
_cell_angle_beta     91.719
_cell_angle_gamma    90

_symmetry_space_group_name_H-M    "P 1"
_symmetry_int_tables_number       1

loop_
  _symmetry_equiv_pos_as_xyz
  'x, y, z'

loop_
  _atom_site_label
  _atom_site_occupancy
  _atom_site_fract_x
  _atom_site_fract_y
  _atom_site_fract_z
  _atom_site_thermal_displace_type
  _atom_site_B_iso_or_equiv
  _atom_site_type_symbol
  Cu1      1.0000 0.38321  0.07794  0.13034  Biso   1.000  Cu
  Cu2      1.0000 0.11679  0.57794  0.36966  Biso   1.000  Cu
  Cu3      1.0000 0.61679  0.92206  0.86966  Biso   1.000  Cu
  Cu4      1.0000 0.88321  0.42206  0.63034  Biso   1.000  Cu
  Cl1      1.0000 0.11792  0.05452  0.23028  Biso   1.000  Cl
  Cl2      1.0000 0.38208  0.55452  0.26972  Biso   1.000  Cl
  Cl3      1.0000 0.88208  0.94548  0.76972  Biso   1.000  Cl
  Cl4      1.0000 0.61792  0.44548  0.73028  Biso   1.000  Cl
  Cl5      1.0000 0.64924  0.10818  0.02835  Biso   1.000  Cl
  Cl6      1.0000 0.85076  0.60818  0.47165  Biso   1.000  Cl
  Cl7      1.0000 0.35076  0.89182  0.97165  Biso   1.000  Cl
  Cl8      1.0000 0.14924  0.39182  0.52835  Biso   1.000  Cl
  N1       1.0000 0.40340  0.26783  0.26910  Biso   1.000  N
  N2       1.0000 0.09660  0.76783  0.23090  Biso   1.000  N
  N3       1.0000 0.59660  0.73217  0.73090  Biso   1.000  N
  N4       1.0000 0.90340  0.23217  0.76910  Biso   1.000  N
  N5       1.0000 0.55700  0.28696  0.34742  Biso   1.000  N
  N6       1.0000 0.94300  0.78696  0.15258  Biso   1.000  N
  N7       1.0000 0.44300  0.71304  0.65258  Biso   1.000  N
  N8       1.0000 0.05700  0.21304  0.84742  Biso   1.000  N
  N9       1.0000 0.70790  0.23120  0.32360  Biso   1.000  N
  N10      1.0000 0.79210  0.73120  0.17640  Biso   1.000  N
  N11      1.0000 0.29210  0.76880  0.67640  Biso   1.000  N
  N12      1.0000 0.20790  0.26880  0.82360  Biso   1.000  N
  N13      1.0000 0.82510  0.26266  0.41020  Biso   1.000  N
  N14      1.0000 0.67490  0.76266  0.08980  Biso   1.000  N
  N15      1.0000 0.17490  0.73734  0.58980  Biso   1.000  N
  N16      1.0000 0.32510  0.23734  0.91020  Biso   1.000  N
  N17      1.0000 0.51080  0.98968  0.26928  Biso   1.000  N
  N18      1.0000 0.98920  0.48968  0.23072  Biso   1.000  N
  N19      1.0000 0.48920  0.01032  0.73072  Biso   1.000  N
  N20      1.0000 0.01080  0.51032  0.76928  Biso   1.000  N
  N21      1.0000 0.42940  0.91792  0.35150  Biso   1.000  N
  N22      1.0000 0.07060  0.41792  0.14850  Biso   1.000  N
  N23      1.0000 0.57060  0.08208  0.64850  Biso   1.000  N
  N24      1.0000 0.92940  0.58208  0.85150  Biso   1.000  N
  N25      1.0000 0.54750  0.87291  0.42780  Biso   1.000  N
  N26      1.0000 0.95250  0.37291  0.07220  Biso   1.000  N
  N27      1.0000 0.45250  0.12709  0.57220  Biso   1.000  N
  N28      1.0000 0.04750  0.62709  0.92780  Biso   1.000  N
  N29      1.0000 0.70670  0.91484  0.39541  Biso   1.000  N
  N30      1.0000 0.79330  0.41484  0.10459  Biso   1.000  N
  N31      1.0000 0.29330  0.08516  0.60459  Biso   1.000  N
  N32      1.0000 0.20670  0.58516  0.89541  Biso   1.000  N
  N33      1.0000 0.87130  0.88440  0.45440  Biso   1.000  N
  N34      1.0000 0.62870  0.38440  0.04560  Biso   1.000  N
  N35      1.0000 0.12870  0.11560  0.54560  Biso   1.000  N
  N36      1.0000 0.37130  0.61560  0.95440  Biso   1.000  N
  C1       1.0000 0.58470  0.35026  0.45020  Biso   1.000  C
  C2       1.0000 0.91530  0.85026  0.04980  Biso   1.000  C
  C3       1.0000 0.41530  0.64974  0.54980  Biso   1.000  C
  C4       1.0000 0.08470  0.14974  0.95020  Biso   1.000  C
  C5       1.0000 0.68250  0.98507  0.29870  Biso   1.000  C
  C6       1.0000 0.81750  0.48507  0.20130  Biso   1.000  C
  C7       1.0000 0.31750  0.01493  0.70130  Biso   1.000  C
  C8       1.0000 0.18250  0.51493  0.79870  Biso   1.000  C
  N37      1.0000 0.75100  0.33732  0.49088  Biso   1.000  N
  N38      1.0000 0.74900  0.83732  0.00912  Biso   1.000  N
  N39      1.0000 0.24900  0.66268  0.50912  Biso   1.000  N
  N40      1.0000 0.25100  0.16268  0.99088  Biso   1.000  N
  H1       1.0000 0.50800  0.39200  0.48300  Biso   1.000  H
  H2       1.0000 0.99200  0.89200  0.01700  Biso   1.000  H
  H3       1.0000 0.49200  0.60800  0.51700  Biso   1.000  H
  H4       1.0000 0.00800  0.10800  0.98300  Biso   1.000  H
  H5       1.0000 0.76300  0.02600  0.26100  Biso   1.000  H
  H6       1.0000 0.73700  0.52600  0.23900  Biso   1.000  H
  H7       1.0000 0.23700  0.97400  0.73900  Biso   1.000  H
  H8       1.0000 0.26300  0.47400  0.76100  Biso   1.000  H
  H9       1.0000 0.86600  0.81000  0.45900  Biso   1.000  H
  H10      1.0000 0.63400  0.31000  0.04100  Biso   1.000  H
  H11      1.0000 0.13400  0.19000  0.54100  Biso   1.000  H
  H12      1.0000 0.36600  0.69000  0.95900  Biso   1.000  H
  H13      1.0000 0.88200  0.91100  0.53200  Biso   1.000  H
  H14      1.0000 0.61800  0.41100  0.96800  Biso   1.000  H
  H15      1.0000 0.11800  0.08900  0.46800  Biso   1.000  H
  H16      1.0000 0.38200  0.58900  0.03200  Biso   1.000  H
  H17      1.0000 0.31800  0.25600  0.31900  Biso   1.000  H
  H18      1.0000 0.18200  0.75600  0.18100  Biso   1.000  H
  H19      1.0000 0.68200  0.74400  0.68100  Biso   1.000  H
  H20      1.0000 0.81800  0.24400  0.81900  Biso   1.000  H
  H21      1.0000 0.38000  0.32500  0.22600  Biso   1.000  H
  H22      1.0000 0.12000  0.82500  0.27400  Biso   1.000  H
  H23      1.0000 0.62000  0.67500  0.77400  Biso   1.000  H
  H24      1.0000 0.88000  0.17500  0.72600  Biso   1.000  H
