data_image0
_cell_length_a       6.9565
_cell_length_b       20.675
_cell_length_c       9.859
_cell_angle_alpha    90
_cell_angle_beta     105.944
_cell_angle_gamma    90

_symmetry_space_group_name_H-M    "P 1"
_symmetry_int_tables_number       1

loop_
  _symmetry_equiv_pos_as_xyz
  'x, y, z'

loop_
  _atom_site_label
  _atom_site_occupancy
  _atom_site_fract_x
  _atom_site_fract_y
  _atom_site_fract_z
  _atom_site_thermal_displace_type
  _atom_site_B_iso_or_equiv
  _atom_site_type_symbol
  Cu1      1.0000 0.60954  0.44180  0.82220  Biso   1.000  Cu
  Cu2      1.0000 0.39046  0.94180  0.17780  Biso   1.000  Cu
  Cu3      1.0000 0.24244  0.54675  0.64377  Biso   1.000  Cu
  Cu4      1.0000 0.75756  0.04675  0.35623  Biso   1.000  Cu
  C1       1.0000 0.22130  0.51410  0.36060  Biso   1.000  C
  C2       1.0000 0.77870  0.01410  0.63940  Biso   1.000  C
  C3       1.0000 0.19760  0.48020  0.23700  Biso   1.000  C
  C4       1.0000 0.80240  0.98020  0.76300  Biso   1.000  C
  H1       1.0000 0.21610  0.50080  0.15760  Biso   1.000  H
  H2       1.0000 0.78390  0.00080  0.84240  Biso   1.000  H
  C5       1.0000 0.14820  0.41830  0.23160  Biso   1.000  C
  C6       1.0000 0.85180  0.91830  0.76840  Biso   1.000  C
  H3       1.0000 0.13460  0.39430  0.14970  Biso   1.000  H
  H4       1.0000 0.86540  0.89430  0.85030  Biso   1.000  H
  C7       1.0000 0.11720  0.38980  0.35290  Biso   1.000  C
  C8       1.0000 0.88280  0.88980  0.64710  Biso   1.000  C
  H5       1.0000 0.07910  0.34670  0.35190  Biso   1.000  H
  H6       1.0000 0.92090  0.84670  0.64810  Biso   1.000  H
  C9       1.0000 0.14320  0.42590  0.47240  Biso   1.000  C
  C10      1.0000 0.85680  0.92590  0.52760  Biso   1.000  C
  H7       1.0000 0.12260  0.40680  0.55260  Biso   1.000  H
  H8       1.0000 0.87740  0.90680  0.44740  Biso   1.000  H
  C11      1.0000 0.65500  0.47390  0.10830  Biso   1.000  C
  C12      1.0000 0.34500  0.97390  0.89170  Biso   1.000  C
  C13      1.0000 0.69170  0.50610  0.23420  Biso   1.000  C
  C14      1.0000 0.30830  0.00610  0.76580  Biso   1.000  C
  H9       1.0000 0.67720  0.48560  0.31470  Biso   1.000  H
  H10      1.0000 0.32280  0.98560  0.68530  Biso   1.000  H
  C15      1.0000 0.75030  0.56950  0.23810  Biso   1.000  C
  C16      1.0000 0.24970  0.06950  0.76190  Biso   1.000  C
  H11      1.0000 0.77620  0.59280  0.32180  Biso   1.000  H
  H12      1.0000 0.22380  0.09280  0.67820  Biso   1.000  H
  C17      1.0000 0.77050  0.59790  0.11850  Biso   1.000  C
  C18      1.0000 0.22950  0.09790  0.88150  Biso   1.000  C
  H13      1.0000 0.81060  0.64090  0.11940  Biso   1.000  H
  H14      1.0000 0.18940  0.14090  0.88060  Biso   1.000  H
  C19      1.0000 0.73030  0.56200  0.99500  Biso   1.000  C
  C20      1.0000 0.26970  0.06200  0.00500  Biso   1.000  C
  H15      1.0000 0.74450  0.58150  0.91330  Biso   1.000  H
  H16      1.0000 0.25550  0.08150  0.08670  Biso   1.000  H
  C21      1.0000 0.60170  0.40470  0.09150  Biso   1.000  C
  C22      1.0000 0.39830  0.90470  0.90850  Biso   1.000  C
  H17      1.0000 0.58740  0.38120  0.16860  Biso   1.000  H
  H18      1.0000 0.41260  0.88120  0.83140  Biso   1.000  H
  C23      1.0000 0.51540  0.30770  0.96800  Biso   1.000  C
  C24      1.0000 0.48460  0.80770  0.03200  Biso   1.000  C
  H19      1.0000 0.50770  0.29560  0.06250  Biso   1.000  H
  H20      1.0000 0.49230  0.79560  0.93750  Biso   1.000  H
  C25      1.0000 0.30420  0.29770  0.86770  Biso   1.000  C
  C26      1.0000 0.69580  0.79770  0.13230  Biso   1.000  C
  H21      1.0000 0.24770  0.25860  0.89530  Biso   1.000  H
  H22      1.0000 0.75230  0.75860  0.10470  Biso   1.000  H
  H23      1.0000 0.22040  0.33360  0.87950  Biso   1.000  H
  H24      1.0000 0.77960  0.83360  0.12050  Biso   1.000  H
  C27      1.0000 0.67410  0.26670  0.93760  Biso   1.000  C
  C28      1.0000 0.32590  0.76670  0.06240  Biso   1.000  C
  H25      1.0000 0.69830  0.28180  0.85060  Biso   1.000  H
  H26      1.0000 0.30170  0.78180  0.14940  Biso   1.000  H
  H27      1.0000 0.62440  0.22270  0.92180  Biso   1.000  H
  H28      1.0000 0.37560  0.72270  0.07820  Biso   1.000  H
  C29      1.0000 0.87120  0.26550  0.05050  Biso   1.000  C
  C30      1.0000 0.12880  0.76550  0.94950  Biso   1.000  C
  H29      1.0000 0.94840  0.30290  0.04090  Biso   1.000  H
  H30      1.0000 0.05160  0.80290  0.95910  Biso   1.000  H
  H31      1.0000 0.94350  0.22710  0.04050  Biso   1.000  H
  H32      1.0000 0.05650  0.72710  0.95950  Biso   1.000  H
  H33      1.0000 0.84700  0.26580  0.14180  Biso   1.000  H
  H34      1.0000 0.15300  0.76580  0.85820  Biso   1.000  H
  C31      1.0000 0.27100  0.58390  0.37740  Biso   1.000  C
  C32      1.0000 0.72900  0.08390  0.62260  Biso   1.000  C
  H35      1.0000 0.29430  0.60720  0.30280  Biso   1.000  H
  H36      1.0000 0.70570  0.10720  0.69720  Biso   1.000  H
  C33      1.0000 0.31900  0.68040  0.50160  Biso   1.000  C
  C34      1.0000 0.68100  0.18040  0.49840  Biso   1.000  C
  H37      1.0000 0.35150  0.69410  0.41530  Biso   1.000  H
  H38      1.0000 0.64850  0.19410  0.58470  Biso   1.000  H
  C35      1.0000 0.49630  0.69690  0.62600  Biso   1.000  C
  C36      1.0000 0.50370  0.19690  0.37400  Biso   1.000  C
  H39      1.0000 0.47610  0.74040  0.65590  Biso   1.000  H
  H40      1.0000 0.52390  0.24040  0.34410  Biso   1.000  H
  H41      1.0000 0.49170  0.66810  0.70280  Biso   1.000  H
  H42      1.0000 0.50830  0.16810  0.29720  Biso   1.000  H
  C37      1.0000 0.13040  0.71440  0.50680  Biso   1.000  C
  C38      1.0000 0.86960  0.21440  0.49320  Biso   1.000  C
  H43      1.0000 0.08680  0.69880  0.58640  Biso   1.000  H
  H44      1.0000 0.91320  0.19880  0.41360  Biso   1.000  H
  H45      1.0000 0.15380  0.76060  0.51780  Biso   1.000  H
  H46      1.0000 0.84620  0.26060  0.48220  Biso   1.000  H
  C39      1.0000 0.98480  0.70180  0.38160  Biso   1.000  C
  C40      1.0000 0.01520  0.20180  0.61840  Biso   1.000  C
  H47      1.0000 0.98180  0.73640  0.31610  Biso   1.000  H
  H48      1.0000 0.01820  0.23640  0.68390  Biso   1.000  H
  H49      1.0000 0.85670  0.69830  0.40000  Biso   1.000  H
  H50      1.0000 0.14330  0.19830  0.60000  Biso   1.000  H
  H51      1.0000 0.01530  0.66190  0.34200  Biso   1.000  H
  H52      1.0000 0.98470  0.16190  0.65800  Biso   1.000  H
  N1       1.0000 0.19610  0.48670  0.47730  Biso   1.000  N
  N2       1.0000 0.80390  0.98670  0.52270  Biso   1.000  N
  N3       1.0000 0.28130  0.61130  0.49180  Biso   1.000  N
  N4       1.0000 0.71870  0.11130  0.50820  Biso   1.000  N
  N5       1.0000 0.57560  0.37750  0.97570  Biso   1.000  N
  N6       1.0000 0.42440  0.87750  0.02430  Biso   1.000  N
  N7       1.0000 0.67210  0.50040  0.98960  Biso   1.000  N
  N8       1.0000 0.32790  0.00040  0.01040  Biso   1.000  N
  N9       1.0000 0.23950  0.61290  0.78300  Biso   1.000  N
  N10      1.0000 0.76050  0.11290  0.21700  Biso   1.000  N
  N11      1.0000 0.23270  0.60310  0.89770  Biso   1.000  N
  N12      1.0000 0.76730  0.10310  0.10230  Biso   1.000  N
  N13      1.0000 0.22580  0.59770  0.01100  Biso   1.000  N
  N14      1.0000 0.77420  0.09770  0.98900  Biso   1.000  N
  N15      1.0000 0.60770  0.51500  0.69250  Biso   1.000  N
  N16      1.0000 0.39230  0.01500  0.30750  Biso   1.000  N
  N17      1.0000 0.72910  0.52600  0.63340  Biso   1.000  N
  N18      1.0000 0.27090  0.02600  0.36660  Biso   1.000  N
  N19      1.0000 0.84170  0.54060  0.57270  Biso   1.000  N
  N20      1.0000 0.15830  0.04060  0.42730  Biso   1.000  N
  N21      1.0000 0.25530  0.47350  0.77370  Biso   1.000  N
  N22      1.0000 0.74470  0.97350  0.22630  Biso   1.000  N
  N23      1.0000 0.12990  0.45760  0.83020  Biso   1.000  N
  N24      1.0000 0.87010  0.95760  0.16980  Biso   1.000  N
  N25      1.0000 0.01620  0.44040  0.88450  Biso   1.000  N
  N26      1.0000 0.98380  0.94040  0.11550  Biso   1.000  N
  N27      1.0000 0.58130  0.37540  0.67990  Biso   1.000  N
  N28      1.0000 0.41870  0.87540  0.32010  Biso   1.000  N
  N29      1.0000 0.62830  0.38160  0.57350  Biso   1.000  N
  N30      1.0000 0.37170  0.88160  0.42650  Biso   1.000  N
  N31      1.0000 0.66210  0.38410  0.46630  Biso   1.000  N
  N32      1.0000 0.33790  0.88410  0.53370  Biso   1.000  N
  O1       1.0000 0.29790  0.29320  0.73160  Biso   1.000  O
  O2       1.0000 0.70210  0.79320  0.26840  Biso   1.000  O
  H53      1.0000 0.39620  0.31110  0.71810  Biso   1.000  H
  H54      1.0000 0.60380  0.81110  0.28190  Biso   1.000  H
  O3       1.0000 0.67900  0.69400  0.61100  Biso   1.000  O
  O4       1.0000 0.32100  0.19400  0.38900  Biso   1.000  O
  H55      1.0000 0.70380  0.65680  0.59250  Biso   1.000  H
  H56      1.0000 0.29620  0.15680  0.40750  Biso   1.000  H
  O5       1.0000 0.62200  0.74540  0.63400  Biso   1.000  O
  O6       1.0000 0.37800  0.24540  0.36600  Biso   1.000  O
  H57      1.0000 0.55920  0.77940  0.61590  Biso   1.000  H
  H58      1.0000 0.44080  0.27940  0.38410  Biso   1.000  H
