data_image0
_cell_length_a       6.965
_cell_length_b       20.705
_cell_length_c       9.878
_cell_angle_alpha    90
_cell_angle_beta     105.941
_cell_angle_gamma    90

_symmetry_space_group_name_H-M    "P 1"
_symmetry_int_tables_number       1

loop_
  _symmetry_equiv_pos_as_xyz
  'x, y, z'

loop_
  _atom_site_label
  _atom_site_occupancy
  _atom_site_fract_x
  _atom_site_fract_y
  _atom_site_fract_z
  _atom_site_thermal_displace_type
  _atom_site_B_iso_or_equiv
  _atom_site_type_symbol
  Cu1      1.0000 0.10879  0.43800  0.82240  Biso   1.000  Cu
  Cu2      1.0000 0.89121  0.93800  0.17760  Biso   1.000  Cu
  Cu3      1.0000 0.74280  0.33294  0.64381  Biso   1.000  Cu
  Cu4      1.0000 0.25720  0.83294  0.35619  Biso   1.000  Cu
  C1       1.0000 0.72210  0.36520  0.36110  Biso   1.000  C
  C2       1.0000 0.27790  0.86520  0.63890  Biso   1.000  C
  C3       1.0000 0.69810  0.39800  0.23680  Biso   1.000  C
  C4       1.0000 0.30190  0.89800  0.76320  Biso   1.000  C
  H1       1.0000 0.71600  0.37740  0.15750  Biso   1.000  H
  H2       1.0000 0.28400  0.87740  0.84250  Biso   1.000  H
  C5       1.0000 0.64700  0.46200  0.23320  Biso   1.000  C
  C6       1.0000 0.35300  0.96200  0.76680  Biso   1.000  C
  H3       1.0000 0.63440  0.48620  0.15190  Biso   1.000  H
  H4       1.0000 0.36560  0.98620  0.84810  Biso   1.000  H
  C7       1.0000 0.61420  0.49030  0.35220  Biso   1.000  C
  C8       1.0000 0.38580  0.99030  0.64780  Biso   1.000  C
  H5       1.0000 0.57230  0.53300  0.35030  Biso   1.000  H
  H6       1.0000 0.42770  0.03300  0.64970  Biso   1.000  H
  C9       1.0000 0.64460  0.45430  0.47230  Biso   1.000  C
  C10      1.0000 0.35540  0.95430  0.52770  Biso   1.000  C
  H7       1.0000 0.62780  0.47370  0.55310  Biso   1.000  H
  H8       1.0000 0.37220  0.97370  0.44690  Biso   1.000  H
  C11      1.0000 0.15510  0.40640  0.10910  Biso   1.000  C
  C12      1.0000 0.84490  0.90640  0.89090  Biso   1.000  C
  C13      1.0000 0.19270  0.37340  0.23450  Biso   1.000  C
  C14      1.0000 0.80730  0.87340  0.76550  Biso   1.000  C
  H9       1.0000 0.17850  0.39360  0.31530  Biso   1.000  H
  H10      1.0000 0.82150  0.89360  0.68470  Biso   1.000  H
  C15      1.0000 0.25180  0.30980  0.23800  Biso   1.000  C
  C16      1.0000 0.74820  0.80980  0.76200  Biso   1.000  C
  H11      1.0000 0.28130  0.28650  0.32170  Biso   1.000  H
  H12      1.0000 0.71870  0.78650  0.67830  Biso   1.000  H
  C17      1.0000 0.26600  0.28200  0.11750  Biso   1.000  C
  C18      1.0000 0.73400  0.78200  0.88250  Biso   1.000  C
  H13      1.0000 0.30170  0.23870  0.11740  Biso   1.000  H
  H14      1.0000 0.69830  0.73870  0.88260  Biso   1.000  H
  C19      1.0000 0.22800  0.31740  0.99470  Biso   1.000  C
  C20      1.0000 0.77200  0.81740  0.00530  Biso   1.000  C
  H15      1.0000 0.24200  0.29770  0.91340  Biso   1.000  H
  H16      1.0000 0.75800  0.79770  0.08660  Biso   1.000  H
  C21      1.0000 0.10080  0.47510  0.09340  Biso   1.000  C
  C22      1.0000 0.89920  0.97510  0.90660  Biso   1.000  C
  H17      1.0000 0.08480  0.49830  0.17010  Biso   1.000  H
  H18      1.0000 0.91520  0.99830  0.82990  Biso   1.000  H
  C23      1.0000 0.01580  0.57180  0.96840  Biso   1.000  C
  C24      1.0000 0.98420  0.07180  0.03160  Biso   1.000  C
  H19      1.0000 0.00780  0.58400  0.06260  Biso   1.000  H
  H20      1.0000 0.99220  0.08400  0.93740  Biso   1.000  H
  C25      1.0000 0.80590  0.58200  0.86780  Biso   1.000  C
  C26      1.0000 0.19410  0.08200  0.13220  Biso   1.000  C
  H21      1.0000 0.72140  0.54660  0.88040  Biso   1.000  H
  H22      1.0000 0.27860  0.04660  0.11960  Biso   1.000  H
  H23      1.0000 0.75070  0.62140  0.89500  Biso   1.000  H
  H24      1.0000 0.24930  0.12140  0.10500  Biso   1.000  H
  C27      1.0000 0.17080  0.61330  0.93680  Biso   1.000  C
  C28      1.0000 0.82920  0.11330  0.06320  Biso   1.000  C
  H25      1.0000 0.12070  0.65720  0.92230  Biso   1.000  H
  H26      1.0000 0.87930  0.15720  0.07770  Biso   1.000  H
  H27      1.0000 0.19490  0.59870  0.84960  Biso   1.000  H
  H28      1.0000 0.80510  0.09870  0.15040  Biso   1.000  H
  C29      1.0000 0.36710  0.61360  0.05090  Biso   1.000  C
  C30      1.0000 0.63290  0.11360  0.94910  Biso   1.000  C
  H29      1.0000 0.34270  0.60590  0.14060  Biso   1.000  H
  H30      1.0000 0.65730  0.10590  0.85940  Biso   1.000  H
  H31      1.0000 0.43090  0.65480  0.05220  Biso   1.000  H
  H32      1.0000 0.56910  0.15480  0.94780  Biso   1.000  H
  H33      1.0000 0.45230  0.58020  0.03230  Biso   1.000  H
  H34      1.0000 0.54770  0.08020  0.96770  Biso   1.000  H
  C31      1.0000 0.76960  0.29570  0.37680  Biso   1.000  C
  C32      1.0000 0.23040  0.79570  0.62320  Biso   1.000  C
  H35      1.0000 0.78970  0.27220  0.30150  Biso   1.000  H
  H36      1.0000 0.21030  0.77220  0.69850  Biso   1.000  H
  C33      1.0000 0.82230  0.19940  0.50380  Biso   1.000  C
  C34      1.0000 0.17770  0.69940  0.49620  Biso   1.000  C
  H37      1.0000 0.85350  0.18570  0.41720  Biso   1.000  H
  H38      1.0000 0.14650  0.68570  0.58280  Biso   1.000  H
  C35      1.0000 0.01040  0.19100  0.62360  Biso   1.000  C
  C36      1.0000 0.98960  0.69100  0.37640  Biso   1.000  C
  H39      1.0000 0.10580  0.22370  0.61400  Biso   1.000  H
  H40      1.0000 0.89420  0.72370  0.38600  Biso   1.000  H
  H41      1.0000 0.97780  0.19930  0.71130  Biso   1.000  H
  H42      1.0000 0.02220  0.69930  0.28870  Biso   1.000  H
  C37      1.0000 0.63060  0.16590  0.50750  Biso   1.000  C
  C38      1.0000 0.36940  0.66590  0.49250  Biso   1.000  C
  H43      1.0000 0.65310  0.11980  0.51880  Biso   1.000  H
  H44      1.0000 0.34690  0.61980  0.48120  Biso   1.000  H
  H45      1.0000 0.58730  0.18160  0.58680  Biso   1.000  H
  H46      1.0000 0.41270  0.68160  0.41320  Biso   1.000  H
  C39      1.0000 0.48240  0.17830  0.38160  Biso   1.000  C
  C40      1.0000 0.51760  0.67830  0.61840  Biso   1.000  C
  H47      1.0000 0.51660  0.21650  0.33820  Biso   1.000  H
  H48      1.0000 0.48340  0.71650  0.66180  Biso   1.000  H
  H49      1.0000 0.35640  0.18460  0.40170  Biso   1.000  H
  H50      1.0000 0.64360  0.68460  0.59830  Biso   1.000  H
  H51      1.0000 0.47290  0.14230  0.31890  Biso   1.000  H
  H52      1.0000 0.52710  0.64230  0.68110  Biso   1.000  H
  N1       1.0000 0.69630  0.39360  0.47760  Biso   1.000  N
  N2       1.0000 0.30370  0.89360  0.52240  Biso   1.000  N
  N3       1.0000 0.78270  0.26830  0.49240  Biso   1.000  N
  N4       1.0000 0.21730  0.76830  0.50760  Biso   1.000  N
  N5       1.0000 0.07620  0.50237  0.97640  Biso   1.000  N
  N6       1.0000 0.92380  0.00237  0.02360  Biso   1.000  N
  N7       1.0000 0.17190  0.37905  0.98950  Biso   1.000  N
  N8       1.0000 0.82810  0.87905  0.01050  Biso   1.000  N
  N9       1.0000 0.73920  0.26720  0.78240  Biso   1.000  N
  N10      1.0000 0.26080  0.76720  0.21760  Biso   1.000  N
  N11      1.0000 0.73190  0.27640  0.89750  Biso   1.000  N
  N12      1.0000 0.26810  0.77640  0.10250  Biso   1.000  N
  N13      1.0000 0.72590  0.28240  0.01120  Biso   1.000  N
  N14      1.0000 0.27410  0.78240  0.98880  Biso   1.000  N
  N15      1.0000 0.10910  0.36490  0.69370  Biso   1.000  N
  N16      1.0000 0.89090  0.86490  0.30630  Biso   1.000  N
  N17      1.0000 0.22820  0.35396  0.63420  Biso   1.000  N
  N18      1.0000 0.77180  0.85396  0.36580  Biso   1.000  N
  N19      1.0000 0.33900  0.33750  0.57340  Biso   1.000  N
  N20      1.0000 0.66100  0.83750  0.42660  Biso   1.000  N
  N21      1.0000 0.75710  0.40590  0.77500  Biso   1.000  N
  N22      1.0000 0.24290  0.90590  0.22500  Biso   1.000  N
  N23      1.0000 0.62990  0.42224  0.83030  Biso   1.000  N
  N24      1.0000 0.37010  0.92224  0.16970  Biso   1.000  N
  N25      1.0000 0.51440  0.43950  0.88410  Biso   1.000  N
  N26      1.0000 0.48560  0.93950  0.11590  Biso   1.000  N
  N27      1.0000 0.07820  0.50440  0.67920  Biso   1.000  N
  N28      1.0000 0.92180  0.00440  0.32080  Biso   1.000  N
  N29      1.0000 0.12620  0.49768  0.57160  Biso   1.000  N
  N30      1.0000 0.87380  0.99768  0.42840  Biso   1.000  N
  N31      1.0000 0.16180  0.49500  0.46670  Biso   1.000  N
  N32      1.0000 0.83820  0.99500  0.53330  Biso   1.000  N
  O1       1.0000 0.19990  0.18650  0.62400  Biso   1.000  O
  O2       1.0000 0.80010  0.68650  0.37600  Biso   1.000  O
  H53      1.0000 0.22590  0.21510  0.57410  Biso   1.000  H
  H54      1.0000 0.77410  0.71510  0.42590  Biso   1.000  H
  O3       1.0000 0.79680  0.58610  0.73040  Biso   1.000  O
  O4       1.0000 0.20320  0.08610  0.26960  Biso   1.000  O
  H55      1.0000 0.90500  0.57590  0.71890  Biso   1.000  H
  H56      1.0000 0.09500  0.07590  0.28110  Biso   1.000  H
  O5       1.0000 0.09810  0.13400  0.63280  Biso   1.000  O
  O6       1.0000 0.90190  0.63400  0.36720  Biso   1.000  O
  H57      1.0000 0.01290  0.10570  0.61170  Biso   1.000  H
  H58      1.0000 0.98710  0.60570  0.38830  Biso   1.000  H
