data_image0
_cell_length_a       8.5804
_cell_length_b       9.0078
_cell_length_c       12.3245
_cell_angle_alpha    83.53
_cell_angle_beta     75.266
_cell_angle_gamma    79.467

_symmetry_space_group_name_H-M    "P 1"
_symmetry_int_tables_number       1

loop_
  _symmetry_equiv_pos_as_xyz
  'x, y, z'

loop_
  _atom_site_label
  _atom_site_occupancy
  _atom_site_fract_x
  _atom_site_fract_y
  _atom_site_fract_z
  _atom_site_thermal_displace_type
  _atom_site_B_iso_or_equiv
  _atom_site_type_symbol
  C1       1.0000 0.76700  0.59820  0.27970  Biso   1.000  C
  C2       1.0000 0.23300  0.40180  0.72030  Biso   1.000  C
  C3       1.0000 0.75580  0.73640  0.21820  Biso   1.000  C
  C4       1.0000 0.24420  0.26360  0.78180  Biso   1.000  C
  H1       1.0000 0.82740  0.80090  0.22160  Biso   1.000  H
  H2       1.0000 0.17260  0.19910  0.77840  Biso   1.000  H
  C5       1.0000 0.64560  0.78540  0.15210  Biso   1.000  C
  C6       1.0000 0.35440  0.21460  0.84790  Biso   1.000  C
  C7       1.0000 0.33590  0.70740  0.43340  Biso   1.000  C
  C8       1.0000 0.66410  0.29260  0.56660  Biso   1.000  C
  H3       1.0000 0.24220  0.75460  0.48620  Biso   1.000  H
  H4       1.0000 0.75780  0.24540  0.51380  Biso   1.000  H
  H5       1.0000 0.40170  0.78220  0.39600  Biso   1.000  H
  H6       1.0000 0.59830  0.21780  0.60400  Biso   1.000  H
  H7       1.0000 0.39890  0.63090  0.47250  Biso   1.000  H
  H8       1.0000 0.60110  0.36910  0.52750  Biso   1.000  H
  C9       1.0000 0.89960  0.54680  0.34210  Biso   1.000  C
  C10      1.0000 0.10040  0.45320  0.65790  Biso   1.000  C
  H9       1.0000 0.88820  0.44820  0.37880  Biso   1.000  H
  H10      1.0000 0.11180  0.55180  0.62120  Biso   1.000  H
  H11      1.0000 0.89070  0.61700  0.39730  Biso   1.000  H
  H12      1.0000 0.10930  0.38300  0.60270  Biso   1.000  H
  H13      1.0000 0.00440  0.54240  0.28990  Biso   1.000  H
  H14      1.0000 0.99560  0.45760  0.71010  Biso   1.000  H
  C11      1.0000 0.64760  0.93790  0.08810  Biso   1.000  C
  C12      1.0000 0.35240  0.06210  0.91190  Biso   1.000  C
  H15      1.0000 0.56500  0.95550  0.04610  Biso   1.000  H
  H16      1.0000 0.43500  0.04450  0.95390  Biso   1.000  H
  H17      1.0000 0.75270  0.94020  0.03740  Biso   1.000  H
  H18      1.0000 0.24730  0.05980  0.96260  Biso   1.000  H
  H19      1.0000 0.62640  0.01520  0.14000  Biso   1.000  H
  H20      1.0000 0.37360  0.98480  0.86000  Biso   1.000  H
  O1       1.0000 0.67120  0.50270  0.28700  Biso   1.000  O
  O2       1.0000 0.32880  0.49730  0.71300  Biso   1.000  O
  O3       1.0000 0.28390  0.64020  0.35280  Biso   1.000  O
  O4       1.0000 0.71610  0.35980  0.64720  Biso   1.000  O
  O5       1.0000 0.53880  0.70950  0.13870  Biso   1.000  O
  O6       1.0000 0.46120  0.29050  0.86130  Biso   1.000  O
  C13      1.0000 0.27510  0.37970  0.12060  Biso   1.000  C
  C14      1.0000 0.72490  0.62030  0.87940  Biso   1.000  C
  H21      1.0000 0.32660  0.29020  0.15040  Biso   1.000  H
  H22      1.0000 0.67340  0.70980  0.84960  Biso   1.000  H
  C15      1.0000 0.14700  0.37320  0.07280  Biso   1.000  C
  C16      1.0000 0.85300  0.62680  0.92720  Biso   1.000  C
  H23      1.0000 0.11330  0.28080  0.07290  Biso   1.000  H
  H24      1.0000 0.88670  0.71920  0.92710  Biso   1.000  H
  C17      1.0000 0.06870  0.50230  0.02500  Biso   1.000  C
  C18      1.0000 0.93130  0.49770  0.97500  Biso   1.000  C
  C19      1.0000 0.13020  0.63590  0.02550  Biso   1.000  C
  C20      1.0000 0.86980  0.36410  0.97450  Biso   1.000  C
  H25      1.0000 0.08620  0.72510  0.99070  Biso   1.000  H
  H26      1.0000 0.91380  0.27490  0.00930  Biso   1.000  H
  C21      1.0000 0.25560  0.63670  0.07710  Biso   1.000  C
  C22      1.0000 0.74440  0.36330  0.92290  Biso   1.000  C
  H27      1.0000 0.29130  0.72780  0.07850  Biso   1.000  H
  H28      1.0000 0.70870  0.27220  0.92150  Biso   1.000  H
  C23      1.0000 0.34300  0.28410  0.37880  Biso   1.000  C
  C24      1.0000 0.65700  0.71590  0.62120  Biso   1.000  C
  H29      1.0000 0.24490  0.34950  0.38190  Biso   1.000  H
  H30      1.0000 0.75510  0.65050  0.61810  Biso   1.000  H
  C25      1.0000 0.34750  0.16190  0.45820  Biso   1.000  C
  C26      1.0000 0.65250  0.83810  0.54180  Biso   1.000  C
  H31      1.0000 0.25330  0.14610  0.51230  Biso   1.000  H
  H32      1.0000 0.74670  0.85390  0.48770  Biso   1.000  H
  C27      1.0000 0.49210  0.06370  0.45650  Biso   1.000  C
  C28      1.0000 0.50790  0.93630  0.54350  Biso   1.000  C
  C29      1.0000 0.62510  0.08690  0.36790  Biso   1.000  C
  C30      1.0000 0.37490  0.91310  0.63210  Biso   1.000  C
  H33      1.0000 0.72220  0.01880  0.35940  Biso   1.000  H
  H34      1.0000 0.27780  0.98120  0.64060  Biso   1.000  H
  C31      1.0000 0.61180  0.21200  0.29250  Biso   1.000  C
  C32      1.0000 0.38820  0.78800  0.70750  Biso   1.000  C
  H35      1.0000 0.70280  0.22740  0.23520  Biso   1.000  H
  H36      1.0000 0.29720  0.77260  0.76480  Biso   1.000  H
  O7       1.0000 0.25310  0.00970  0.21590  Biso   1.000  O
  O8       1.0000 0.74690  0.99030  0.78410  Biso   1.000  O
  O9       1.0000 0.01880  0.15040  0.32120  Biso   1.000  O
  O10      1.0000 0.98120  0.84960  0.67880  Biso   1.000  O
  O11      1.0000 0.00410  0.04200  0.16030  Biso   1.000  O
  O12      1.0000 0.99590  0.95800  0.83970  Biso   1.000  O
  O13      1.0000 0.03740  0.88730  0.32140  Biso   1.000  O
  O14      1.0000 0.96260  0.11270  0.67860  Biso   1.000  O
  Cu1      1.0000 0.49231  0.51995  0.21700  Biso   1.000  Cu
  Cu2      1.0000 0.50769  0.48005  0.78300  Biso   1.000  Cu
  N1       1.0000 0.32840  0.50900  0.12590  Biso   1.000  N
  N2       1.0000 0.67160  0.49100  0.87410  Biso   1.000  N
  N3       1.0000 0.47450  0.31150  0.29810  Biso   1.000  N
  N4       1.0000 0.52550  0.68850  0.70190  Biso   1.000  N
  Cl1      1.0000 0.07882  0.02347  0.25484  Biso   1.000  Cl
  Cl2      1.0000 0.92118  0.97653  0.74516  Biso   1.000  Cl
