data_image0
_cell_length_a       11.298
_cell_length_b       9.767
_cell_length_c       13.588
_cell_angle_alpha    90
_cell_angle_beta     100.09
_cell_angle_gamma    90

_symmetry_space_group_name_H-M    "P 1"
_symmetry_int_tables_number       1

loop_
  _symmetry_equiv_pos_as_xyz
  'x, y, z'

loop_
  _atom_site_label
  _atom_site_occupancy
  _atom_site_fract_x
  _atom_site_fract_y
  _atom_site_fract_z
  _atom_site_thermal_displace_type
  _atom_site_B_iso_or_equiv
  _atom_site_type_symbol
  Cu1      1.0000 0.61699  0.41612  0.14316  Biso   1.000  Cu
  Cu2      1.0000 0.88301  0.91612  0.35684  Biso   1.000  Cu
  Cu3      1.0000 0.38301  0.58388  0.85684  Biso   1.000  Cu
  Cu4      1.0000 0.11699  0.08388  0.64316  Biso   1.000  Cu
  S1       1.0000 0.61567  0.28174  0.32185  Biso   1.000  S
  S2       1.0000 0.88433  0.78174  0.17815  Biso   1.000  S
  S3       1.0000 0.38433  0.71826  0.67815  Biso   1.000  S
  S4       1.0000 0.11567  0.21826  0.82185  Biso   1.000  S
  O1       1.0000 0.50462  0.54209  0.17964  Biso   1.000  O
  O2       1.0000 0.99538  0.04209  0.32036  Biso   1.000  O
  O3       1.0000 0.49538  0.45791  0.82036  Biso   1.000  O
  O4       1.0000 0.00462  0.95791  0.67964  Biso   1.000  O
  N1       1.0000 0.72431  0.27714  0.09685  Biso   1.000  N
  N2       1.0000 0.77569  0.77714  0.40315  Biso   1.000  N
  N3       1.0000 0.27569  0.72286  0.90315  Biso   1.000  N
  N4       1.0000 0.22431  0.22286  0.59685  Biso   1.000  N
  N5       1.0000 0.49349  0.31719  0.05024  Biso   1.000  N
  N6       1.0000 0.00651  0.81719  0.44976  Biso   1.000  N
  N7       1.0000 0.50651  0.68281  0.94976  Biso   1.000  N
  N8       1.0000 0.99349  0.18281  0.55024  Biso   1.000  N
  N9       1.0000 0.75017  0.04600  0.31258  Biso   1.000  N
  N10      1.0000 0.74983  0.54600  0.18742  Biso   1.000  N
  N11      1.0000 0.24983  0.95400  0.68742  Biso   1.000  N
  N12      1.0000 0.25017  0.45400  0.81258  Biso   1.000  N
  C1       1.0000 0.84070  0.25820  0.12765  Biso   1.000  C
  C2       1.0000 0.65930  0.75820  0.37235  Biso   1.000  C
  C3       1.0000 0.15930  0.74180  0.87235  Biso   1.000  C
  C4       1.0000 0.34070  0.24180  0.62765  Biso   1.000  C
  H1       1.0000 0.88090  0.31420  0.17810  Biso   1.000  H
  H2       1.0000 0.61910  0.81420  0.32190  Biso   1.000  H
  H3       1.0000 0.11910  0.68580  0.82190  Biso   1.000  H
  H4       1.0000 0.38090  0.18580  0.67810  Biso   1.000  H
  C5       1.0000 0.90530  0.15810  0.08760  Biso   1.000  C
  C6       1.0000 0.59470  0.65810  0.41240  Biso   1.000  C
  C7       1.0000 0.09470  0.84190  0.91240  Biso   1.000  C
  C8       1.0000 0.40530  0.34190  0.58760  Biso   1.000  C
  H5       1.0000 0.98670  0.14620  0.11240  Biso   1.000  H
  H6       1.0000 0.51330  0.64620  0.38760  Biso   1.000  H
  H7       1.0000 0.01330  0.85380  0.88760  Biso   1.000  H
  H8       1.0000 0.48670  0.35380  0.61240  Biso   1.000  H
  C9       1.0000 0.84930  0.07770  0.01215  Biso   1.000  C
  C10      1.0000 0.65070  0.57770  0.48785  Biso   1.000  C
  C11      1.0000 0.15070  0.92230  0.98785  Biso   1.000  C
  C12      1.0000 0.34930  0.42230  0.51215  Biso   1.000  C
  H9       1.0000 0.89270  0.01230  0.98380  Biso   1.000  H
  H10      1.0000 0.60730  0.51230  0.51620  Biso   1.000  H
  H11      1.0000 0.10730  0.98770  0.01620  Biso   1.000  H
  H12      1.0000 0.39270  0.48770  0.48380  Biso   1.000  H
  C13      1.0000 0.72510  0.09380  0.97687  Biso   1.000  C
  C14      1.0000 0.77490  0.59380  0.52313  Biso   1.000  C
  C15      1.0000 0.27490  0.90620  0.02313  Biso   1.000  C
  C16      1.0000 0.22510  0.40620  0.47687  Biso   1.000  C
  C17      1.0000 0.65860  0.01690  0.89848  Biso   1.000  C
  C18      1.0000 0.84140  0.51690  0.60152  Biso   1.000  C
  C19      1.0000 0.34140  0.98310  0.10152  Biso   1.000  C
  C20      1.0000 0.15860  0.48310  0.39848  Biso   1.000  C
  H13      1.0000 0.69640  0.94970  0.86660  Biso   1.000  H
  H14      1.0000 0.80360  0.44970  0.63340  Biso   1.000  H
  H15      1.0000 0.30360  0.05030  0.13340  Biso   1.000  H
  H16      1.0000 0.19640  0.55030  0.36660  Biso   1.000  H
  C21      1.0000 0.53870  0.04130  0.86946  Biso   1.000  C
  C22      1.0000 0.96130  0.54130  0.63054  Biso   1.000  C
  C23      1.0000 0.46130  0.95870  0.13054  Biso   1.000  C
  C24      1.0000 0.03870  0.45870  0.36946  Biso   1.000  C
  H17      1.0000 0.49570  0.99060  0.81720  Biso   1.000  H
  H18      1.0000 0.00430  0.49060  0.68280  Biso   1.000  H
  H19      1.0000 0.50430  0.00940  0.18280  Biso   1.000  H
  H20      1.0000 0.99570  0.50940  0.31720  Biso   1.000  H
  C25      1.0000 0.47900  0.14040  0.91635  Biso   1.000  C
  C26      1.0000 0.02100  0.64040  0.58365  Biso   1.000  C
  C27      1.0000 0.52100  0.85960  0.08365  Biso   1.000  C
  C28      1.0000 0.97900  0.35960  0.41635  Biso   1.000  C
  H21      1.0000 0.39730  0.15560  0.89470  Biso   1.000  H
  H22      1.0000 0.10270  0.65560  0.60530  Biso   1.000  H
  H23      1.0000 0.60270  0.84440  0.10530  Biso   1.000  H
  H24      1.0000 0.89730  0.34440  0.39470  Biso   1.000  H
  C29      1.0000 0.54026  0.21540  0.99404  Biso   1.000  C
  C30      1.0000 0.95974  0.71540  0.50596  Biso   1.000  C
  C31      1.0000 0.45974  0.78460  0.00596  Biso   1.000  C
  C32      1.0000 0.04026  0.28460  0.49404  Biso   1.000  C
  C33      1.0000 0.66546  0.19440  0.02321  Biso   1.000  C
  C34      1.0000 0.83454  0.69440  0.47679  Biso   1.000  C
  C35      1.0000 0.33454  0.80560  0.97679  Biso   1.000  C
  C36      1.0000 0.16546  0.30560  0.52321  Biso   1.000  C
  C37      1.0000 0.37861  0.33320  0.04458  Biso   1.000  C
  C38      1.0000 0.12139  0.83320  0.45542  Biso   1.000  C
  C39      1.0000 0.62139  0.66680  0.95542  Biso   1.000  C
  C40      1.0000 0.87861  0.16680  0.54458  Biso   1.000  C
  H25      1.0000 0.32850  0.27230  0.00430  Biso   1.000  H
  H26      1.0000 0.17150  0.77230  0.49570  Biso   1.000  H
  H27      1.0000 0.67150  0.72770  0.99570  Biso   1.000  H
  H28      1.0000 0.82850  0.22770  0.50430  Biso   1.000  H
  C41      1.0000 0.32300  0.43570  0.09454  Biso   1.000  C
  C42      1.0000 0.17700  0.93570  0.40546  Biso   1.000  C
  C43      1.0000 0.67700  0.56430  0.90546  Biso   1.000  C
  C44      1.0000 0.82300  0.06430  0.59454  Biso   1.000  C
  C45      1.0000 0.19590  0.43940  0.07645  Biso   1.000  C
  C46      1.0000 0.30410  0.93940  0.42355  Biso   1.000  C
  C47      1.0000 0.80410  0.56060  0.92355  Biso   1.000  C
  C48      1.0000 0.69590  0.06060  0.57645  Biso   1.000  C
  H29      1.0000 0.15380  0.37180  0.03660  Biso   1.000  H
  H30      1.0000 0.34620  0.87180  0.46340  Biso   1.000  H
  H31      1.0000 0.84620  0.62820  0.96340  Biso   1.000  H
  H32      1.0000 0.65380  0.12820  0.53660  Biso   1.000  H
  C49      1.0000 0.13350  0.53830  0.11530  Biso   1.000  C
  C50      1.0000 0.36650  0.03830  0.38470  Biso   1.000  C
  C51      1.0000 0.86650  0.46170  0.88470  Biso   1.000  C
  C52      1.0000 0.63350  0.96170  0.61530  Biso   1.000  C
  H33      1.0000 0.04990  0.53850  0.10270  Biso   1.000  H
  H34      1.0000 0.45010  0.03850  0.39730  Biso   1.000  H
  H35      1.0000 0.95010  0.46150  0.89730  Biso   1.000  H
  H36      1.0000 0.54990  0.96150  0.60270  Biso   1.000  H
  C53      1.0000 0.19750  0.63980  0.17445  Biso   1.000  C
  C54      1.0000 0.30250  0.13980  0.32555  Biso   1.000  C
  C55      1.0000 0.80250  0.36020  0.82555  Biso   1.000  C
  C56      1.0000 0.69750  0.86020  0.67445  Biso   1.000  C
  H37      1.0000 0.15570  0.70960  0.19990  Biso   1.000  H
  H38      1.0000 0.34430  0.20960  0.30010  Biso   1.000  H
  H39      1.0000 0.84430  0.29040  0.80010  Biso   1.000  H
  H40      1.0000 0.65570  0.79040  0.69990  Biso   1.000  H
  C57      1.0000 0.32030  0.63880  0.19582  Biso   1.000  C
  C58      1.0000 0.17970  0.13880  0.30418  Biso   1.000  C
  C59      1.0000 0.67970  0.36120  0.80418  Biso   1.000  C
  C60      1.0000 0.82030  0.86120  0.69582  Biso   1.000  C
  H41      1.0000 0.36010  0.70700  0.23650  Biso   1.000  H
  H42      1.0000 0.13990  0.20700  0.26350  Biso   1.000  H
  H43      1.0000 0.63990  0.29300  0.76350  Biso   1.000  H
  H44      1.0000 0.86010  0.79300  0.73650  Biso   1.000  H
  C61      1.0000 0.38820  0.53630  0.15747  Biso   1.000  C
  C62      1.0000 0.11180  0.03630  0.34253  Biso   1.000  C
  C63      1.0000 0.61180  0.46370  0.84253  Biso   1.000  C
  C64      1.0000 0.88820  0.96370  0.65747  Biso   1.000  C
  C65      1.0000 0.69404  0.14330  0.31571  Biso   1.000  C
  C66      1.0000 0.80596  0.64330  0.18429  Biso   1.000  C
  C67      1.0000 0.30596  0.85670  0.68429  Biso   1.000  C
  C68      1.0000 0.19404  0.35670  0.81571  Biso   1.000  C
