data_image0
_cell_length_a       9.2018
_cell_length_b       12.148
_cell_length_c       24.678
_cell_angle_alpha    84.98
_cell_angle_beta     84.63
_cell_angle_gamma    70.99

_symmetry_space_group_name_H-M    "P 1"
_symmetry_int_tables_number       1

loop_
  _symmetry_equiv_pos_as_xyz
  'x, y, z'

loop_
  _atom_site_label
  _atom_site_occupancy
  _atom_site_fract_x
  _atom_site_fract_y
  _atom_site_fract_z
  _atom_site_thermal_displace_type
  _atom_site_B_iso_or_equiv
  _atom_site_type_symbol
  Cu1      1.0000 0.37576  0.21787  0.46520  Biso   1.000  Cu
  Cu2      1.0000 0.62424  0.78213  0.53480  Biso   1.000  Cu
  Cu3      1.0000 0.99300  0.94749  0.10505  Biso   1.000  Cu
  Cu4      1.0000 0.00700  0.05251  0.89495  Biso   1.000  Cu
  C1       1.0000 0.13522  0.38012  0.39892  Biso   1.000  C
  C2       1.0000 0.86478  0.61988  0.60108  Biso   1.000  C
  H1       1.0000 0.09760  0.41270  0.43220  Biso   1.000  H
  H2       1.0000 0.90240  0.58730  0.56780  Biso   1.000  H
  C3       1.0000 0.05800  0.43138  0.35298  Biso   1.000  C
  C4       1.0000 0.94200  0.56862  0.64702  Biso   1.000  C
  H3       1.0000 0.97050  0.49660  0.35580  Biso   1.000  H
  H4       1.0000 0.02950  0.50340  0.64420  Biso   1.000  H
  C5       1.0000 0.11090  0.38572  0.30310  Biso   1.000  C
  C6       1.0000 0.88910  0.61428  0.69690  Biso   1.000  C
  C7       1.0000 0.23930  0.28564  0.30215  Biso   1.000  C
  C8       1.0000 0.76070  0.71436  0.69785  Biso   1.000  C
  H5       1.0000 0.27730  0.24990  0.26960  Biso   1.000  H
  H6       1.0000 0.72270  0.75010  0.73040  Biso   1.000  H
  C9       1.0000 0.30970  0.24005  0.34952  Biso   1.000  C
  C10      1.0000 0.69030  0.75995  0.65048  Biso   1.000  C
  H7       1.0000 0.39580  0.17350  0.34800  Biso   1.000  H
  H8       1.0000 0.60420  0.82650  0.65200  Biso   1.000  H
  C11      1.0000 0.03443  0.44182  0.25274  Biso   1.000  C
  C12      1.0000 0.96557  0.55818  0.74726  Biso   1.000  C
  C13      1.0000 0.95620  0.56112  0.24864  Biso   1.000  C
  C14      1.0000 0.04380  0.43888  0.75136  Biso   1.000  C
  H9       1.0000 0.95110  0.60550  0.27800  Biso   1.000  H
  H10      1.0000 0.04890  0.39450  0.72200  Biso   1.000  H
  C15      1.0000 0.88630  0.61474  0.20220  Biso   1.000  C
  C16      1.0000 0.11370  0.38526  0.79780  Biso   1.000  C
  H11      1.0000 0.83500  0.69460  0.20050  Biso   1.000  H
  H12      1.0000 0.16500  0.30540  0.79950  Biso   1.000  H
  C17      1.0000 0.89188  0.55012  0.15769  Biso   1.000  C
  C18      1.0000 0.10812  0.44988  0.84231  Biso   1.000  C
  C19      1.0000 0.96690  0.43090  0.16143  Biso   1.000  C
  C20      1.0000 0.03310  0.56910  0.83857  Biso   1.000  C
  H13      1.0000 0.96920  0.38630  0.13240  Biso   1.000  H
  H14      1.0000 0.03080  0.61370  0.86760  Biso   1.000  H
  C21      1.0000 0.03880  0.37764  0.20845  Biso   1.000  C
  C22      1.0000 0.96120  0.62236  0.79155  Biso   1.000  C
  H15      1.0000 0.09050  0.29780  0.21020  Biso   1.000  H
  H16      1.0000 0.90950  0.70220  0.78980  Biso   1.000  H
  C23      1.0000 0.81975  0.60786  0.10775  Biso   1.000  C
  C24      1.0000 0.18025  0.39214  0.89225  Biso   1.000  C
  C25      1.0000 0.75150  0.74074  0.03181  Biso   1.000  C
  C26      1.0000 0.24850  0.25926  0.96819  Biso   1.000  C
  C27      1.0000 0.67750  0.64657  0.02980  Biso   1.000  C
  C28      1.0000 0.32250  0.35343  0.97020  Biso   1.000  C
  C29      1.0000 0.65370  0.86570  0.02199  Biso   1.000  C
  C30      1.0000 0.34630  0.13430  0.97801  Biso   1.000  C
  H17      1.0000 0.56050  0.88110  0.04520  Biso   1.000  H
  H18      1.0000 0.43950  0.11890  0.95480  Biso   1.000  H
  H19      1.0000 0.62870  0.87960  0.98460  Biso   1.000  H
  H20      1.0000 0.37130  0.12040  0.01540  Biso   1.000  H
  H21      1.0000 0.70940  0.91620  0.02990  Biso   1.000  H
  H22      1.0000 0.29060  0.08380  0.97010  Biso   1.000  H
  C31      1.0000 0.90110  0.71620  0.99404  Biso   1.000  C
  C32      1.0000 0.09890  0.28380  0.00596  Biso   1.000  C
  H23      1.0000 0.96380  0.63640  0.00020  Biso   1.000  H
  H24      1.0000 0.03620  0.36360  0.99980  Biso   1.000  H
  H25      1.0000 0.95690  0.76670  0.00180  Biso   1.000  H
  H26      1.0000 0.04310  0.23330  0.99820  Biso   1.000  H
  H27      1.0000 0.87550  0.73030  0.95670  Biso   1.000  H
  H28      1.0000 0.12450  0.26970  0.04330  Biso   1.000  H
  C33      1.0000 0.50690  0.68750  0.05450  Biso   1.000  C
  C34      1.0000 0.49310  0.31250  0.94550  Biso   1.000  C
  H29      1.0000 0.50190  0.72240  0.08830  Biso   1.000  H
  H30      1.0000 0.49810  0.27760  0.91170  Biso   1.000  H
  H31      1.0000 0.47050  0.62150  0.06090  Biso   1.000  H
  H32      1.0000 0.52950  0.37850  0.93910  Biso   1.000  H
  H33      1.0000 0.44350  0.74360  0.02940  Biso   1.000  H
  H34      1.0000 0.55650  0.25640  0.97060  Biso   1.000  H
  C35      1.0000 0.68660  0.59210  0.97713  Biso   1.000  C
  C36      1.0000 0.31340  0.40790  0.02287  Biso   1.000  C
  H35      1.0000 0.79160  0.56720  0.96230  Biso   1.000  H
  H36      1.0000 0.20840  0.43280  0.03770  Biso   1.000  H
  H37      1.0000 0.62370  0.64800  0.95190  Biso   1.000  H
  H38      1.0000 0.37630  0.35200  0.04810  Biso   1.000  H
  H39      1.0000 0.65050  0.52600  0.98340  Biso   1.000  H
  H40      1.0000 0.34950  0.47400  0.01660  Biso   1.000  H
  C37      1.0000 0.51240  0.17455  0.57824  Biso   1.000  C
  C38      1.0000 0.48760  0.82545  0.42176  Biso   1.000  C
  H41      1.0000 0.61910  0.17250  0.57350  Biso   1.000  H
  H42      1.0000 0.38090  0.82750  0.42650  Biso   1.000  H
  H43      1.0000 0.50220  0.12370  0.60990  Biso   1.000  H
  H44      1.0000 0.49780  0.87630  0.39010  Biso   1.000  H
  C39      1.0000 0.41200  0.29669  0.58849  Biso   1.000  C
  C40      1.0000 0.58800  0.70331  0.41151  Biso   1.000  C
  H45      1.0000 0.44510  0.32180  0.62010  Biso   1.000  H
  H46      1.0000 0.55490  0.67820  0.37990  Biso   1.000  H
  H47      1.0000 0.30670  0.29710  0.59680  Biso   1.000  H
  H48      1.0000 0.69330  0.70290  0.40320  Biso   1.000  H
  C41      1.0000 0.41580  0.38301  0.54058  Biso   1.000  C
  C42      1.0000 0.58420  0.61699  0.45942  Biso   1.000  C
  H49      1.0000 0.37730  0.46170  0.55280  Biso   1.000  H
  H50      1.0000 0.62270  0.53830  0.44720  Biso   1.000  H
  H51      1.0000 0.52130  0.36890  0.52570  Biso   1.000  H
  H52      1.0000 0.47870  0.63110  0.47430  Biso   1.000  H
  C43      1.0000 0.18270  0.70811  0.13313  Biso   1.000  C
  C44      1.0000 0.81730  0.29189  0.86687  Biso   1.000  C
  H53      1.0000 0.15590  0.69640  0.09920  Biso   1.000  H
  H54      1.0000 0.84410  0.30360  0.90080  Biso   1.000  H
  C45      1.0000 0.27370  0.61397  0.16171  Biso   1.000  C
  C46      1.0000 0.72630  0.38603  0.83829  Biso   1.000  C
  H55      1.0000 0.30470  0.54040  0.14790  Biso   1.000  H
  H56      1.0000 0.69530  0.45960  0.85210  Biso   1.000  H
  C47      1.0000 0.32014  0.62947  0.21223  Biso   1.000  C
  C48      1.0000 0.67986  0.37053  0.78777  Biso   1.000  C
  C49      1.0000 0.26350  0.73971  0.23088  Biso   1.000  C
  C50      1.0000 0.73650  0.26029  0.76912  Biso   1.000  C
  H57      1.0000 0.28710  0.75340  0.26500  Biso   1.000  H
  H58      1.0000 0.71290  0.24660  0.73500  Biso   1.000  H
  C51      1.0000 0.17200  0.82997  0.19927  Biso   1.000  C
  C52      1.0000 0.82800  0.17003  0.80073  Biso   1.000  C
  H59      1.0000 0.13790  0.90440  0.21220  Biso   1.000  H
  H60      1.0000 0.86210  0.09560  0.78780  Biso   1.000  H
  C53      1.0000 0.42750  0.53036  0.24319  Biso   1.000  C
  C54      1.0000 0.57250  0.46964  0.75681  Biso   1.000  C
  C55      1.0000 0.54360  0.44630  0.21667  Biso   1.000  C
  C56      1.0000 0.45640  0.55370  0.78333  Biso   1.000  C
  H61      1.0000 0.55500  0.45190  0.17880  Biso   1.000  H
  H62      1.0000 0.44500  0.54810  0.82120  Biso   1.000  H
  C57      1.0000 0.64390  0.35372  0.24477  Biso   1.000  C
  C58      1.0000 0.35610  0.64628  0.75523  Biso   1.000  C
  H63      1.0000 0.72230  0.29900  0.22560  Biso   1.000  H
  H64      1.0000 0.27770  0.70100  0.77440  Biso   1.000  H
  C59      1.0000 0.62900  0.34122  0.30129  Biso   1.000  C
  C60      1.0000 0.37100  0.65878  0.69871  Biso   1.000  C
  C61      1.0000 0.51640  0.42873  0.32836  Biso   1.000  C
  C62      1.0000 0.48360  0.57127  0.67164  Biso   1.000  C
  H65      1.0000 0.50780  0.42460  0.36630  Biso   1.000  H
  H66      1.0000 0.49220  0.57540  0.63370  Biso   1.000  H
  C63      1.0000 0.41640  0.52219  0.29999  Biso   1.000  C
  C64      1.0000 0.58360  0.47781  0.70001  Biso   1.000  C
  H67      1.0000 0.34160  0.57960  0.31900  Biso   1.000  H
  H68      1.0000 0.65840  0.42040  0.68100  Biso   1.000  H
  C65      1.0000 0.72900  0.23854  0.33027  Biso   1.000  C
  C66      1.0000 0.27100  0.76146  0.66973  Biso   1.000  C
  C67      1.0000 0.90949  0.05259  0.34807  Biso   1.000  C
  C68      1.0000 0.09051  0.94741  0.65193  Biso   1.000  C
  C69      1.0000 0.85882  0.11349  0.40166  Biso   1.000  C
  C70      1.0000 0.14118  0.88651  0.59834  Biso   1.000  C
  C71      1.0000 0.82900  0.96548  0.33980  Biso   1.000  C
  C72      1.0000 0.17100  0.03452  0.66020  Biso   1.000  C
  H69      1.0000 0.71990  0.00050  0.34690  Biso   1.000  H
  H70      1.0000 0.28010  0.99950  0.65310  Biso   1.000  H
  H71      1.0000 0.86550  0.89820  0.36440  Biso   1.000  H
  H72      1.0000 0.13450  0.10180  0.63560  Biso   1.000  H
  H73      1.0000 0.85040  0.94240  0.30290  Biso   1.000  H
  H74      1.0000 0.14960  0.05760  0.69710  Biso   1.000  H
  C73      1.0000 0.08350  0.99906  0.33674  Biso   1.000  C
  C74      1.0000 0.91650  0.00094  0.66326  Biso   1.000  C
  H75      1.0000 0.10460  0.96300  0.30250  Biso   1.000  H
  H76      1.0000 0.89540  0.03700  0.69750  Biso   1.000  H
  H77      1.0000 0.12440  0.94140  0.36530  Biso   1.000  H
  H78      1.0000 0.87560  0.05860  0.63470  Biso   1.000  H
  H79      1.0000 0.13090  0.05910  0.33530  Biso   1.000  H
  H80      1.0000 0.86910  0.94090  0.66470  Biso   1.000  H
  C75      1.0000 0.81980  0.04017  0.44962  Biso   1.000  C
  C76      1.0000 0.18020  0.95983  0.55038  Biso   1.000  C
  H81      1.0000 0.74990  0.00300  0.43930  Biso   1.000  H
  H82      1.0000 0.25010  0.99700  0.56070  Biso   1.000  H
  H83      1.0000 0.77230  0.08890  0.47920  Biso   1.000  H
  H84      1.0000 0.22770  0.91110  0.52080  Biso   1.000  H
  H85      1.0000 0.91230  0.98180  0.46090  Biso   1.000  H
  H86      1.0000 0.08770  0.01820  0.53910  Biso   1.000  H
  C77      1.0000 0.97000  0.17257  0.41755  Biso   1.000  C
  C78      1.0000 0.03000  0.82743  0.58245  Biso   1.000  C
  H87      1.0000 0.93220  0.20870  0.45140  Biso   1.000  H
  H88      1.0000 0.06780  0.79130  0.54860  Biso   1.000  H
  H89      1.0000 0.97830  0.23080  0.38960  Biso   1.000  H
  H90      1.0000 0.02170  0.76920  0.61040  Biso   1.000  H
  H91      1.0000 0.06950  0.11540  0.42170  Biso   1.000  H
  H92      1.0000 0.93050  0.88460  0.57830  Biso   1.000  H
  C79      1.0000 0.93032  0.05275  0.00353  Biso   1.000  C
  C80      1.0000 0.06968  0.94725  0.99647  Biso   1.000  C
  C81      1.0000 0.69600  0.09129  0.15916  Biso   1.000  C
  C82      1.0000 0.30400  0.90871  0.84084  Biso   1.000  C
  H93      1.0000 0.64200  0.11760  0.19370  Biso   1.000  H
  H94      1.0000 0.35800  0.88240  0.80630  Biso   1.000  H
  H95      1.0000 0.63500  0.05480  0.14160  Biso   1.000  H
  H96      1.0000 0.36500  0.94520  0.85840  Biso   1.000  H
  C83      1.0000 0.71160  0.19473  0.12374  Biso   1.000  C
  C84      1.0000 0.28840  0.80527  0.87626  Biso   1.000  C
  H97      1.0000 0.79600  0.21640  0.13520  Biso   1.000  H
  H98      1.0000 0.20400  0.78360  0.86480  Biso   1.000  H
  H99      1.0000 0.61800  0.26020  0.12880  Biso   1.000  H
  H100     1.0000 0.38200  0.73980  0.87120  Biso   1.000  H
  C85      1.0000 0.74060  0.17095  0.06413  Biso   1.000  C
  C86      1.0000 0.25940  0.82905  0.93587  Biso   1.000  C
  H101     1.0000 0.65140  0.15740  0.05160  Biso   1.000  H
  H102     1.0000 0.34860  0.84260  0.94840  Biso   1.000  H
  H103     1.0000 0.75440  0.23900  0.04350  Biso   1.000  H
  H104     1.0000 0.24560  0.76100  0.95650  Biso   1.000  H
  C87      1.0000 0.51862  0.01918  0.52608  Biso   1.000  C
  C88      1.0000 0.48138  0.98082  0.47392  Biso   1.000  C
  N1       1.0000 0.26046  0.28659  0.39775  Biso   1.000  N
  N2       1.0000 0.73954  0.71341  0.60225  Biso   1.000  N
  N3       1.0000 0.76182  0.55730  0.07230  Biso   1.000  N
  N4       1.0000 0.23818  0.44270  0.92770  Biso   1.000  N
  N5       1.0000 0.80215  0.71784  0.08912  Biso   1.000  N
  N6       1.0000 0.19785  0.28216  0.91088  Biso   1.000  N
  N7       1.0000 0.47404  0.13023  0.53027  Biso   1.000  N
  N8       1.0000 0.52596  0.86977  0.46973  Biso   1.000  N
  N9       1.0000 0.32065  0.37155  0.49779  Biso   1.000  N
  N10      1.0000 0.67935  0.62845  0.50221  Biso   1.000  N
  H105     1.0000 0.32330  0.42550  0.47060  Biso   1.000  H
  H106     1.0000 0.67670  0.57450  0.52940  Biso   1.000  H
  H107     1.0000 0.22260  0.38950  0.51190  Biso   1.000  H
  H108     1.0000 0.77740  0.61050  0.48810  Biso   1.000  H
  N11      1.0000 0.12957  0.81516  0.15032  Biso   1.000  N
  N12      1.0000 0.87043  0.18484  0.84968  Biso   1.000  N
  N13      1.0000 0.84921  0.15376  0.30790  Biso   1.000  N
  N14      1.0000 0.15079  0.84624  0.69210  Biso   1.000  N
  N15      1.0000 0.71811  0.20993  0.38482  Biso   1.000  N
  N16      1.0000 0.28189  0.79007  0.61518  Biso   1.000  N
  N17      1.0000 0.84745  0.00468  0.16930  Biso   1.000  N
  N18      1.0000 0.15255  0.99532  0.83070  Biso   1.000  N
  H109     1.0000 0.83090  0.94240  0.18800  Biso   1.000  H
  H110     1.0000 0.16910  0.05760  0.81200  Biso   1.000  H
  H111     1.0000 0.89480  0.03580  0.19110  Biso   1.000  H
  H112     1.0000 0.10520  0.96420  0.80890  Biso   1.000  H
  N19      1.0000 0.87672  0.06995  0.05378  Biso   1.000  N
  N20      1.0000 0.12328  0.93005  0.94622  Biso   1.000  N
  O1       1.0000 0.75345  0.45441  0.07729  Biso   1.000  O
  O2       1.0000 0.24655  0.54559  0.92271  Biso   1.000  O
  O3       1.0000 0.49440  0.93540  0.27750  Biso   1.000  O
  O4       1.0000 0.50560  0.06460  0.72250  Biso   1.000  O
  O5       1.0000 0.62110  0.88140  0.22544  Biso   1.000  O
  O6       1.0000 0.37890  0.11860  0.77456  Biso   1.000  O
  O7       1.0000 0.57220  0.85170  0.26590  Biso   1.000  O
  O8       1.0000 0.42780  0.14830  0.73410  Biso   1.000  O
  O9       1.0000 0.83965  0.79415  0.11233  Biso   1.000  O
  O10      1.0000 0.16035  0.20585  0.88767  Biso   1.000  O
  O11      1.0000 0.58770  0.93848  0.56054  Biso   1.000  O
  O12      1.0000 0.41230  0.06152  0.43946  Biso   1.000  O
  O13      1.0000 0.89959  0.14899  0.25787  Biso   1.000  O
  O14      1.0000 0.10041  0.85101  0.74213  Biso   1.000  O
  O15      1.0000 0.61249  0.26365  0.42014  Biso   1.000  O
  O16      1.0000 0.38751  0.73635  0.57986  Biso   1.000  O
  O17      1.0000 0.87797  0.11431  0.96075  Biso   1.000  O
  O18      1.0000 0.12203  0.88569  0.03925  Biso   1.000  O
  O19      1.0000 0.13283  0.09401  0.13656  Biso   1.000  O
  O20      1.0000 0.86717  0.90599  0.86344  Biso   1.000  O
  O21      1.0000 0.39050  0.97716  0.13015  Biso   1.000  O
  O22      1.0000 0.60950  0.02284  0.86985  Biso   1.000  O
  O23      1.0000 0.32782  0.17785  0.12459  Biso   1.000  O
  O24      1.0000 0.67218  0.82215  0.87541  Biso   1.000  O
  O25      1.0000 0.28880  0.08133  0.20580  Biso   1.000  O
  O26      1.0000 0.71120  0.91867  0.79420  Biso   1.000  O
  O27      1.0000 0.02420  0.62505  0.46933  Biso   1.000  O
  O28      1.0000 0.97580  0.37495  0.53067  Biso   1.000  O
  O29      1.0000 0.25660  0.59298  0.42333  Biso   1.000  O
  O30      1.0000 0.74340  0.40702  0.57667  Biso   1.000  O
  O31      1.0000 0.04410  0.68984  0.37834  Biso   1.000  O
  O32      1.0000 0.95590  0.31016  0.62166  Biso   1.000  O
  O33      1.0000 0.11550  0.78256  0.44548  Biso   1.000  O
  O34      1.0000 0.88450  0.21744  0.55452  Biso   1.000  O
  Cl1      1.0000 0.28568  0.08189  0.14879  Biso   1.000  Cl
  Cl2      1.0000 0.71432  0.91811  0.85121  Biso   1.000  Cl
  Cl3      1.0000 0.10645  0.67470  0.43054  Biso   1.000  Cl
  Cl4      1.0000 0.89355  0.32530  0.56946  Biso   1.000  Cl
