data_image0
_cell_length_a       3.641
_cell_length_b       12.6301
_cell_length_c       12.1194
_cell_angle_alpha    90
_cell_angle_beta     94.057
_cell_angle_gamma    90

_symmetry_space_group_name_H-M    "P 1"
_symmetry_int_tables_number       1

loop_
  _symmetry_equiv_pos_as_xyz
  'x, y, z'

loop_
  _atom_site_label
  _atom_site_occupancy
  _atom_site_fract_x
  _atom_site_fract_y
  _atom_site_fract_z
  _atom_site_thermal_displace_type
  _atom_site_B_iso_or_equiv
  _atom_site_type_symbol
  Cu1      1.0000 0.00000  0.00000  0.50000  Biso   1.000  Cu
  Cu2      1.0000 0.00000  0.50000  0.00000  Biso   1.000  Cu
  O1       1.0000 0.62120  0.89180  0.47520  Biso   1.000  O
  O2       1.0000 0.37880  0.39180  0.02480  Biso   1.000  O
  O3       1.0000 0.37880  0.10820  0.52480  Biso   1.000  O
  O4       1.0000 0.62120  0.60820  0.97520  Biso   1.000  O
  O5       1.0000 0.06680  0.96600  0.65200  Biso   1.000  O
  O6       1.0000 0.93320  0.46600  0.84800  Biso   1.000  O
  O7       1.0000 0.93320  0.03400  0.34800  Biso   1.000  O
  O8       1.0000 0.06680  0.53400  0.15200  Biso   1.000  O
  O9       1.0000 0.92860  0.88990  0.80830  Biso   1.000  O
  O10      1.0000 0.07140  0.38990  0.69170  Biso   1.000  O
  O11      1.0000 0.07140  0.11010  0.19170  Biso   1.000  O
  O12      1.0000 0.92860  0.61010  0.30830  Biso   1.000  O
  N1       1.0000 0.60480  0.80420  0.53850  Biso   1.000  N
  N2       1.0000 0.39520  0.30420  0.96150  Biso   1.000  N
  N3       1.0000 0.39520  0.19580  0.46150  Biso   1.000  N
  N4       1.0000 0.60480  0.69580  0.03850  Biso   1.000  N
  C1       1.0000 0.73150  0.80070  0.64700  Biso   1.000  C
  C2       1.0000 0.26850  0.30070  0.85300  Biso   1.000  C
  C3       1.0000 0.26850  0.19930  0.35300  Biso   1.000  C
  C4       1.0000 0.73150  0.69930  0.14700  Biso   1.000  C
  C5       1.0000 0.69230  0.70430  0.70310  Biso   1.000  C
  C6       1.0000 0.30770  0.20430  0.79690  Biso   1.000  C
  C7       1.0000 0.30770  0.29570  0.29690  Biso   1.000  C
  C8       1.0000 0.69230  0.79570  0.20310  Biso   1.000  C
  H1       1.0000 0.78250  0.69910  0.77660  Biso   1.000  H
  H2       1.0000 0.21750  0.19910  0.72340  Biso   1.000  H
  H3       1.0000 0.21750  0.30090  0.22340  Biso   1.000  H
  H4       1.0000 0.78250  0.80090  0.27660  Biso   1.000  H
  C9       1.0000 0.52320  0.61660  0.65220  Biso   1.000  C
  C10      1.0000 0.47680  0.11660  0.84780  Biso   1.000  C
  C11      1.0000 0.47680  0.38340  0.34780  Biso   1.000  C
  C12      1.0000 0.52320  0.88340  0.15220  Biso   1.000  C
  H5       1.0000 0.50120  0.55310  0.69000  Biso   1.000  H
  H6       1.0000 0.49880  0.05310  0.81000  Biso   1.000  H
  H7       1.0000 0.49880  0.44690  0.31000  Biso   1.000  H
  H8       1.0000 0.50120  0.94690  0.19000  Biso   1.000  H
  C13      1.0000 0.38900  0.62730  0.54310  Biso   1.000  C
  C14      1.0000 0.61100  0.12730  0.95690  Biso   1.000  C
  C15      1.0000 0.61100  0.37270  0.45690  Biso   1.000  C
  C16      1.0000 0.38900  0.87270  0.04310  Biso   1.000  C
  H9       1.0000 0.26980  0.57070  0.50690  Biso   1.000  H
  H10      1.0000 0.73020  0.07070  0.99310  Biso   1.000  H
  H11      1.0000 0.73020  0.42930  0.49310  Biso   1.000  H
  H12      1.0000 0.26980  0.92930  0.00690  Biso   1.000  H
  C17      1.0000 0.43050  0.72020  0.48850  Biso   1.000  C
  C18      1.0000 0.56950  0.22020  0.01150  Biso   1.000  C
  C19      1.0000 0.56950  0.27980  0.51150  Biso   1.000  C
  C20      1.0000 0.43050  0.77980  0.98850  Biso   1.000  C
  H13      1.0000 0.33730  0.72630  0.41530  Biso   1.000  H
  H14      1.0000 0.66270  0.22630  0.08470  Biso   1.000  H
  H15      1.0000 0.66270  0.27370  0.58470  Biso   1.000  H
  H16      1.0000 0.33730  0.77370  0.91530  Biso   1.000  H
  C21      1.0000 0.92190  0.89280  0.70720  Biso   1.000  C
  C22      1.0000 0.07810  0.39280  0.79280  Biso   1.000  C
  C23      1.0000 0.07810  0.10720  0.29280  Biso   1.000  C
  C24      1.0000 0.92190  0.60720  0.20720  Biso   1.000  C
