data_image0
_cell_length_a       3.39
_cell_length_b       12.59
_cell_length_c       12.17
_cell_angle_alpha    90
_cell_angle_beta     94.18
_cell_angle_gamma    90

_symmetry_space_group_name_H-M    "P 1"
_symmetry_int_tables_number       1

loop_
  _symmetry_equiv_pos_as_xyz
  'x, y, z'

loop_
  _atom_site_label
  _atom_site_occupancy
  _atom_site_fract_x
  _atom_site_fract_y
  _atom_site_fract_z
  _atom_site_thermal_displace_type
  _atom_site_B_iso_or_equiv
  _atom_site_type_symbol
  O1       1.0000 0.92900  0.46547  0.84834  Biso   1.000  O
  O2       1.0000 0.07100  0.96547  0.65166  Biso   1.000  O
  O3       1.0000 0.07100  0.53453  0.15166  Biso   1.000  O
  O4       1.0000 0.92900  0.03453  0.34834  Biso   1.000  O
  Cu1      1.0000 0.00000  0.50000  0.00000  Biso   1.000  Cu
  Cu2      1.0000 0.00000  0.00000  0.50000  Biso   1.000  Cu
  O5       1.0000 0.36880  0.39065  0.02473  Biso   1.000  O
  O6       1.0000 0.63120  0.89065  0.47527  Biso   1.000  O
  O7       1.0000 0.63120  0.60935  0.97527  Biso   1.000  O
  O8       1.0000 0.36880  0.10935  0.52473  Biso   1.000  O
  C1       1.0000 0.26340  0.29944  0.85322  Biso   1.000  C
  C2       1.0000 0.73660  0.79944  0.64678  Biso   1.000  C
  C3       1.0000 0.73660  0.70056  0.14678  Biso   1.000  C
  C4       1.0000 0.26340  0.20056  0.35322  Biso   1.000  C
  N1       1.0000 0.38970  0.30376  0.96110  Biso   1.000  N
  N2       1.0000 0.61030  0.80376  0.53890  Biso   1.000  N
  N3       1.0000 0.61030  0.69624  0.03890  Biso   1.000  N
  N4       1.0000 0.38970  0.19624  0.46110  Biso   1.000  N
  O9       1.0000 0.05960  0.38859  0.69307  Biso   1.000  O
  O10      1.0000 0.94040  0.88859  0.80693  Biso   1.000  O
  O11      1.0000 0.94040  0.61141  0.30693  Biso   1.000  O
  O12      1.0000 0.05960  0.11141  0.19307  Biso   1.000  O
  C5       1.0000 0.07340  0.39284  0.79352  Biso   1.000  C
  C6       1.0000 0.92660  0.89284  0.70648  Biso   1.000  C
  C7       1.0000 0.92660  0.60716  0.20648  Biso   1.000  C
  C8       1.0000 0.07340  0.10716  0.29352  Biso   1.000  C
  C9       1.0000 0.30900  0.20524  0.79710  Biso   1.000  C
  C10      1.0000 0.69100  0.70524  0.70290  Biso   1.000  C
  C11      1.0000 0.69100  0.79476  0.20290  Biso   1.000  C
  C12      1.0000 0.30900  0.29476  0.29710  Biso   1.000  C
  H1       1.0000 0.22020  0.20100  0.72320  Biso   1.000  H
  H2       1.0000 0.77980  0.70100  0.77680  Biso   1.000  H
  H3       1.0000 0.77980  0.79900  0.27680  Biso   1.000  H
  H4       1.0000 0.22020  0.29900  0.22320  Biso   1.000  H
  C13      1.0000 0.61090  0.12779  0.95540  Biso   1.000  C
  C14      1.0000 0.38910  0.62779  0.54460  Biso   1.000  C
  C15      1.0000 0.38910  0.87221  0.04460  Biso   1.000  C
  C16      1.0000 0.61090  0.37221  0.45540  Biso   1.000  C
  H5       1.0000 0.73450  0.07030  0.99140  Biso   1.000  H
  H6       1.0000 0.26550  0.57030  0.50860  Biso   1.000  H
  H7       1.0000 0.26550  0.92970  0.00860  Biso   1.000  H
  H8       1.0000 0.73450  0.42970  0.49140  Biso   1.000  H
  C17      1.0000 0.56260  0.22040  0.01154  Biso   1.000  C
  C18      1.0000 0.43740  0.72040  0.48846  Biso   1.000  C
  C19      1.0000 0.43740  0.77960  0.98846  Biso   1.000  C
  C20      1.0000 0.56260  0.27960  0.51154  Biso   1.000  C
  H9       1.0000 0.65120  0.22520  0.08550  Biso   1.000  H
  H10      1.0000 0.34880  0.72520  0.41450  Biso   1.000  H
  H11      1.0000 0.34880  0.77480  0.91450  Biso   1.000  H
  H12      1.0000 0.65120  0.27480  0.58550  Biso   1.000  H
  C21      1.0000 0.48010  0.11881  0.84730  Biso   1.000  C
  C22      1.0000 0.51990  0.61881  0.65270  Biso   1.000  C
  C23      1.0000 0.51990  0.88119  0.15270  Biso   1.000  C
  C24      1.0000 0.48010  0.38119  0.34730  Biso   1.000  C
  H13      1.0000 0.50720  0.05550  0.80920  Biso   1.000  H
  H14      1.0000 0.49280  0.55550  0.69080  Biso   1.000  H
  H15      1.0000 0.49280  0.94450  0.19080  Biso   1.000  H
  H16      1.0000 0.50720  0.44450  0.30920  Biso   1.000  H
