data_image0
_cell_length_a       16.254
_cell_length_b       13.211
_cell_length_c       11.776
_cell_angle_alpha    90
_cell_angle_beta     108.4
_cell_angle_gamma    90

_symmetry_space_group_name_H-M    "P 1"
_symmetry_int_tables_number       1

loop_
  _symmetry_equiv_pos_as_xyz
  'x, y, z'

loop_
  _atom_site_label
  _atom_site_occupancy
  _atom_site_fract_x
  _atom_site_fract_y
  _atom_site_fract_z
  _atom_site_thermal_displace_type
  _atom_site_B_iso_or_equiv
  _atom_site_type_symbol
  Cu1      1.0000 0.01775  0.43250  0.30033  Biso   1.000  Cu
  Cu2      1.0000 0.98226  0.93250  0.19967  Biso   1.000  Cu
  Cu3      1.0000 0.98226  0.56750  0.69967  Biso   1.000  Cu
  Cu4      1.0000 0.01775  0.06750  0.80033  Biso   1.000  Cu
  C1       1.0000 0.18492  0.43740  0.26300  Biso   1.000  C
  C2       1.0000 0.81508  0.93740  0.23700  Biso   1.000  C
  C3       1.0000 0.81508  0.56260  0.73700  Biso   1.000  C
  C4       1.0000 0.18492  0.06260  0.76300  Biso   1.000  C
  H1       1.0000 0.19410  0.49110  0.31670  Biso   1.000  H
  H2       1.0000 0.80590  0.99110  0.18330  Biso   1.000  H
  H3       1.0000 0.80590  0.50890  0.68330  Biso   1.000  H
  H4       1.0000 0.19410  0.00890  0.81670  Biso   1.000  H
  C5       1.0000 0.24806  0.41570  0.21170  Biso   1.000  C
  C6       1.0000 0.75194  0.91570  0.28830  Biso   1.000  C
  C7       1.0000 0.75194  0.58430  0.78830  Biso   1.000  C
  C8       1.0000 0.24806  0.08430  0.71170  Biso   1.000  C
  H5       1.0000 0.29850  0.45420  0.23110  Biso   1.000  H
  H6       1.0000 0.70150  0.95420  0.26890  Biso   1.000  H
  H7       1.0000 0.70150  0.54580  0.76890  Biso   1.000  H
  H8       1.0000 0.29850  0.04580  0.73110  Biso   1.000  H
  C9       1.0000 0.23645  0.33636  0.13130  Biso   1.000  C
  C10      1.0000 0.76355  0.83636  0.36870  Biso   1.000  C
  C11      1.0000 0.76355  0.66364  0.86870  Biso   1.000  C
  C12      1.0000 0.23645  0.16364  0.63130  Biso   1.000  C
  C13      1.0000 0.16019  0.28180  0.10750  Biso   1.000  C
  C14      1.0000 0.83981  0.78180  0.39250  Biso   1.000  C
  C15      1.0000 0.83981  0.71820  0.89250  Biso   1.000  C
  C16      1.0000 0.16019  0.21820  0.60750  Biso   1.000  C
  H9       1.0000 0.14960  0.22760  0.05440  Biso   1.000  H
  H10      1.0000 0.85040  0.72760  0.44560  Biso   1.000  H
  H11      1.0000 0.85040  0.77240  0.94560  Biso   1.000  H
  H12      1.0000 0.14960  0.27240  0.55440  Biso   1.000  H
  C17      1.0000 0.10027  0.30780  0.16250  Biso   1.000  C
  C18      1.0000 0.89973  0.80780  0.33750  Biso   1.000  C
  C19      1.0000 0.89973  0.69220  0.83750  Biso   1.000  C
  C20      1.0000 0.10027  0.19220  0.66250  Biso   1.000  C
  H13      1.0000 0.04960  0.26980  0.14550  Biso   1.000  H
  H14      1.0000 0.95040  0.76980  0.35450  Biso   1.000  H
  H15      1.0000 0.95040  0.73020  0.85450  Biso   1.000  H
  H16      1.0000 0.04960  0.23020  0.64550  Biso   1.000  H
  C21      1.0000 0.30191  0.31211  0.07160  Biso   1.000  C
  C22      1.0000 0.69809  0.81211  0.42840  Biso   1.000  C
  C23      1.0000 0.69809  0.68789  0.92840  Biso   1.000  C
  C24      1.0000 0.30191  0.18789  0.57160  Biso   1.000  C
  C25      1.0000 0.35078  0.38700  0.04200  Biso   1.000  C
  C26      1.0000 0.64922  0.88700  0.45800  Biso   1.000  C
  C27      1.0000 0.64922  0.61300  0.95800  Biso   1.000  C
  C28      1.0000 0.35078  0.11300  0.54200  Biso   1.000  C
  H17      1.0000 0.34170  0.45410  0.05870  Biso   1.000  H
  H18      1.0000 0.65830  0.95410  0.44130  Biso   1.000  H
  H19      1.0000 0.65830  0.54590  0.94130  Biso   1.000  H
  H20      1.0000 0.34170  0.04590  0.55870  Biso   1.000  H
  C29      1.0000 0.41307  0.36465  0.98800  Biso   1.000  C
  C30      1.0000 0.58693  0.86465  0.51200  Biso   1.000  C
  C31      1.0000 0.58693  0.63535  0.01200  Biso   1.000  C
  C32      1.0000 0.41307  0.13535  0.48800  Biso   1.000  C
  H21      1.0000 0.44410  0.41660  0.96700  Biso   1.000  H
  H22      1.0000 0.55590  0.91660  0.53300  Biso   1.000  H
  H23      1.0000 0.55590  0.58340  0.03300  Biso   1.000  H
  H24      1.0000 0.44410  0.08340  0.46700  Biso   1.000  H
  C33      1.0000 0.42911  0.26540  0.96530  Biso   1.000  C
  C34      1.0000 0.57089  0.76540  0.53470  Biso   1.000  C
  C35      1.0000 0.57089  0.73460  0.03470  Biso   1.000  C
  C36      1.0000 0.42911  0.23460  0.46530  Biso   1.000  C
  C37      1.0000 0.37870  0.19050  0.99120  Biso   1.000  C
  C38      1.0000 0.62130  0.69050  0.50880  Biso   1.000  C
  C39      1.0000 0.62130  0.80950  0.00880  Biso   1.000  C
  C40      1.0000 0.37870  0.30950  0.49120  Biso   1.000  C
  H25      1.0000 0.38720  0.12340  0.97380  Biso   1.000  H
  H26      1.0000 0.61280  0.62340  0.52620  Biso   1.000  H
  H27      1.0000 0.61280  0.87660  0.02620  Biso   1.000  H
  H28      1.0000 0.38720  0.37660  0.47380  Biso   1.000  H
  C41      1.0000 0.31580  0.21430  0.04290  Biso   1.000  C
  C42      1.0000 0.68420  0.71430  0.45710  Biso   1.000  C
  C43      1.0000 0.68420  0.78570  0.95710  Biso   1.000  C
  C44      1.0000 0.31580  0.28570  0.54290  Biso   1.000  C
  H29      1.0000 0.28190  0.16270  0.05860  Biso   1.000  H
  H30      1.0000 0.71810  0.66270  0.44140  Biso   1.000  H
  H31      1.0000 0.71810  0.83730  0.94140  Biso   1.000  H
  H32      1.0000 0.28190  0.33730  0.55860  Biso   1.000  H
  C45      1.0000 0.50114  0.23817  0.92150  Biso   1.000  C
  C46      1.0000 0.49886  0.73817  0.57850  Biso   1.000  C
  C47      1.0000 0.49886  0.76183  0.07850  Biso   1.000  C
  C48      1.0000 0.50114  0.26183  0.42150  Biso   1.000  C
  C49      1.0000 0.62782  0.24940  0.86510  Biso   1.000  C
  C50      1.0000 0.37218  0.74940  0.63490  Biso   1.000  C
  C51      1.0000 0.37218  0.75060  0.13490  Biso   1.000  C
  C52      1.0000 0.62782  0.25060  0.36510  Biso   1.000  C
  C53      1.0000 0.60392  0.13740  0.86890  Biso   1.000  C
  C54      1.0000 0.39608  0.63740  0.63110  Biso   1.000  C
  C55      1.0000 0.39608  0.86260  0.13110  Biso   1.000  C
  C56      1.0000 0.60392  0.36260  0.36890  Biso   1.000  C
  C57      1.0000 0.72070  0.27730  0.93300  Biso   1.000  C
  C58      1.0000 0.27930  0.77730  0.56700  Biso   1.000  C
  C59      1.0000 0.27930  0.72270  0.06700  Biso   1.000  C
  C60      1.0000 0.72070  0.22270  0.43300  Biso   1.000  C
  H33      1.0000 0.73650  0.24860  0.01180  Biso   1.000  H
  H34      1.0000 0.26350  0.74860  0.48820  Biso   1.000  H
  H35      1.0000 0.26350  0.75140  0.98820  Biso   1.000  H
  H36      1.0000 0.73650  0.25140  0.51180  Biso   1.000  H
  H37      1.0000 0.72600  0.34960  0.93890  Biso   1.000  H
  H38      1.0000 0.27400  0.84960  0.56110  Biso   1.000  H
  H39      1.0000 0.27400  0.65040  0.06110  Biso   1.000  H
  H40      1.0000 0.72600  0.15040  0.43890  Biso   1.000  H
  H41      1.0000 0.75830  0.25140  0.89130  Biso   1.000  H
  H42      1.0000 0.24170  0.75140  0.60870  Biso   1.000  H
  H43      1.0000 0.24170  0.74860  0.10870  Biso   1.000  H
  H44      1.0000 0.75830  0.24860  0.39130  Biso   1.000  H
  C61      1.0000 0.60220  0.29330  0.74110  Biso   1.000  C
  C62      1.0000 0.39780  0.79330  0.75890  Biso   1.000  C
  C63      1.0000 0.39780  0.70670  0.25890  Biso   1.000  C
  C64      1.0000 0.60220  0.20670  0.24110  Biso   1.000  C
  H45      1.0000 0.61910  0.36320  0.74540  Biso   1.000  H
  H46      1.0000 0.38090  0.86320  0.75460  Biso   1.000  H
  H47      1.0000 0.38090  0.63680  0.25460  Biso   1.000  H
  H48      1.0000 0.61910  0.13680  0.24540  Biso   1.000  H
  H49      1.0000 0.54050  0.28810  0.70500  Biso   1.000  H
  H50      1.0000 0.45950  0.78810  0.79500  Biso   1.000  H
  H51      1.0000 0.45950  0.71190  0.29500  Biso   1.000  H
  H52      1.0000 0.54050  0.21190  0.20500  Biso   1.000  H
  H53      1.0000 0.63060  0.25670  0.69370  Biso   1.000  H
  H54      1.0000 0.36940  0.75670  0.80630  Biso   1.000  H
  H55      1.0000 0.36940  0.74330  0.30630  Biso   1.000  H
  H56      1.0000 0.63060  0.24330  0.19370  Biso   1.000  H
  C65      1.0000 0.66020  0.08450  0.98140  Biso   1.000  C
  C66      1.0000 0.33980  0.58450  0.51860  Biso   1.000  C
  C67      1.0000 0.33980  0.91550  0.01860  Biso   1.000  C
  C68      1.0000 0.66020  0.41550  0.48140  Biso   1.000  C
  H57      1.0000 0.66310  0.12520  0.05010  Biso   1.000  H
  H58      1.0000 0.33690  0.62520  0.44990  Biso   1.000  H
  H59      1.0000 0.33690  0.87480  0.94990  Biso   1.000  H
  H60      1.0000 0.66310  0.37480  0.55010  Biso   1.000  H
  H61      1.0000 0.71750  0.07510  0.97640  Biso   1.000  H
  H62      1.0000 0.28250  0.57510  0.52360  Biso   1.000  H
  H63      1.0000 0.28250  0.92490  0.02360  Biso   1.000  H
  H64      1.0000 0.71750  0.42490  0.47640  Biso   1.000  H
  H65      1.0000 0.63540  0.01980  0.98870  Biso   1.000  H
  H66      1.0000 0.36460  0.51980  0.51130  Biso   1.000  H
  H67      1.0000 0.36460  0.98020  0.01130  Biso   1.000  H
  H68      1.0000 0.63540  0.48020  0.48870  Biso   1.000  H
  C69      1.0000 0.59910  0.07420  0.75950  Biso   1.000  C
  C70      1.0000 0.40090  0.57420  0.74050  Biso   1.000  C
  C71      1.0000 0.40090  0.92580  0.24050  Biso   1.000  C
  C72      1.0000 0.59910  0.42580  0.25950  Biso   1.000  C
  H69      1.0000 0.56450  0.10880  0.68890  Biso   1.000  H
  H70      1.0000 0.43550  0.60880  0.81110  Biso   1.000  H
  H71      1.0000 0.43550  0.89120  0.31110  Biso   1.000  H
  H72      1.0000 0.56450  0.39120  0.18890  Biso   1.000  H
  H73      1.0000 0.57320  0.00990  0.76530  Biso   1.000  H
  H74      1.0000 0.42680  0.50990  0.73470  Biso   1.000  H
  H75      1.0000 0.42680  0.99010  0.23470  Biso   1.000  H
  H76      1.0000 0.57320  0.49010  0.26530  Biso   1.000  H
  H77      1.0000 0.65640  0.06400  0.75510  Biso   1.000  H
  H78      1.0000 0.34360  0.56400  0.74490  Biso   1.000  H
  H79      1.0000 0.34360  0.93600  0.24490  Biso   1.000  H
  H80      1.0000 0.65640  0.43600  0.25510  Biso   1.000  H
  C73      1.0000 0.85030  0.49300  0.15090  Biso   1.000  C
  C74      1.0000 0.14970  0.99300  0.34910  Biso   1.000  C
  C75      1.0000 0.14970  0.50700  0.84910  Biso   1.000  C
  C76      1.0000 0.85030  0.00700  0.65090  Biso   1.000  C
  H81      1.0000 0.79550  0.47290  0.09360  Biso   1.000  H
  H82      1.0000 0.20450  0.97290  0.40640  Biso   1.000  H
  H83      1.0000 0.20450  0.52710  0.90640  Biso   1.000  H
  H84      1.0000 0.79550  0.02710  0.59360  Biso   1.000  H
  H85      1.0000 0.86400  0.56060  0.13000  Biso   1.000  H
  H86      1.0000 0.13600  0.06060  0.37000  Biso   1.000  H
  H87      1.0000 0.13600  0.43940  0.87000  Biso   1.000  H
  H88      1.0000 0.86400  0.93940  0.63000  Biso   1.000  H
  C77      1.0000 0.84201  0.49420  0.27410  Biso   1.000  C
  C78      1.0000 0.15799  0.99420  0.22590  Biso   1.000  C
  C79      1.0000 0.15799  0.50580  0.72590  Biso   1.000  C
  C80      1.0000 0.84201  0.00580  0.77410  Biso   1.000  C
  H89      1.0000 0.81370  0.55590  0.28670  Biso   1.000  H
  H90      1.0000 0.18630  0.05590  0.21330  Biso   1.000  H
  H91      1.0000 0.18630  0.44410  0.71330  Biso   1.000  H
  H92      1.0000 0.81370  0.94410  0.78670  Biso   1.000  H
  H93      1.0000 0.80800  0.43690  0.28500  Biso   1.000  H
  H94      1.0000 0.19200  0.93690  0.21500  Biso   1.000  H
  H95      1.0000 0.19200  0.56310  0.71500  Biso   1.000  H
  H96      1.0000 0.80800  0.06310  0.78500  Biso   1.000  H
  C81      1.0000 0.95210  0.50979  0.46900  Biso   1.000  C
  C82      1.0000 0.04790  0.00979  0.03100  Biso   1.000  C
  C83      1.0000 0.04790  0.49021  0.53100  Biso   1.000  C
  C84      1.0000 0.95210  0.99021  0.96900  Biso   1.000  C
  N1       1.0000 0.11109  0.38515  0.23950  Biso   1.000  N
  N2       1.0000 0.88891  0.88515  0.26050  Biso   1.000  N
  N3       1.0000 0.88891  0.61485  0.76050  Biso   1.000  N
  N4       1.0000 0.11109  0.11485  0.73950  Biso   1.000  N
  N5       1.0000 0.56866  0.29739  0.92500  Biso   1.000  N
  N6       1.0000 0.43134  0.79739  0.57500  Biso   1.000  N
  N7       1.0000 0.43134  0.70261  0.07500  Biso   1.000  N
  N8       1.0000 0.56866  0.20261  0.42500  Biso   1.000  N
  N9       1.0000 0.51458  0.14643  0.87980  Biso   1.000  N
  N10      1.0000 0.48542  0.64643  0.62020  Biso   1.000  N
  N11      1.0000 0.48542  0.85357  0.12020  Biso   1.000  N
  N12      1.0000 0.51458  0.35357  0.37980  Biso   1.000  N
  N13      1.0000 0.92929  0.48877  0.35700  Biso   1.000  N
  N14      1.0000 0.07071  0.98877  0.14300  Biso   1.000  N
  N15      1.0000 0.07071  0.51123  0.64300  Biso   1.000  N
  N16      1.0000 0.92929  0.01123  0.85700  Biso   1.000  N
  N17      1.0000 0.91784  0.42330  0.14430  Biso   1.000  N
  N18      1.0000 0.08216  0.92330  0.35570  Biso   1.000  N
  N19      1.0000 0.08216  0.57670  0.85570  Biso   1.000  N
  N20      1.0000 0.91784  0.07670  0.64430  Biso   1.000  N
  H97      1.0000 0.94670  0.38960  0.20660  Biso   1.000  H
  H98      1.0000 0.05330  0.88960  0.29340  Biso   1.000  H
  H99      1.0000 0.05330  0.61040  0.79340  Biso   1.000  H
  H100     1.0000 0.94670  0.11040  0.70660  Biso   1.000  H
  H101     1.0000 0.92890  0.41570  0.07800  Biso   1.000  H
  H102     1.0000 0.07110  0.91570  0.42200  Biso   1.000  H
  H103     1.0000 0.07110  0.58430  0.92200  Biso   1.000  H
  H104     1.0000 0.92890  0.08430  0.57800  Biso   1.000  H
  O1       1.0000 0.58327  0.38690  0.96650  Biso   1.000  O
  O2       1.0000 0.41673  0.88690  0.53350  Biso   1.000  O
  O3       1.0000 0.41673  0.61310  0.03350  Biso   1.000  O
  O4       1.0000 0.58327  0.11310  0.46650  Biso   1.000  O
  O5       1.0000 0.46309  0.07107  0.85850  Biso   1.000  O
  O6       1.0000 0.53691  0.57107  0.64150  Biso   1.000  O
  O7       1.0000 0.53691  0.92893  0.14150  Biso   1.000  O
  O8       1.0000 0.46309  0.42893  0.35850  Biso   1.000  O
  O9       1.0000 0.90597  0.54369  0.53116  Biso   1.000  O
  O10      1.0000 0.09403  0.04369  0.96884  Biso   1.000  O
  O11      1.0000 0.09403  0.45631  0.46884  Biso   1.000  O
  O12      1.0000 0.90597  0.95631  0.03116  Biso   1.000  O
  O13      1.0000 0.94270  0.09910  0.39220  Biso   1.000  O
  O14      1.0000 0.05730  0.59910  0.10780  Biso   1.000  O
  O15      1.0000 0.05730  0.90090  0.60780  Biso   1.000  O
  O16      1.0000 0.94270  0.40090  0.89220  Biso   1.000  O
  O17      1.0000 0.00230  0.24910  0.34700  Biso   1.000  O
  O18      1.0000 0.99770  0.74910  0.15300  Biso   1.000  O
  O19      1.0000 0.99770  0.75090  0.65300  Biso   1.000  O
  O20      1.0000 0.00230  0.25090  0.84700  Biso   1.000  O
  O21      1.0000 0.85740  0.21250  0.24570  Biso   1.000  O
  O22      1.0000 0.14260  0.71250  0.25430  Biso   1.000  O
  O23      1.0000 0.14260  0.78750  0.75430  Biso   1.000  O
  O24      1.0000 0.85740  0.28750  0.74570  Biso   1.000  O
  O25      1.0000 0.95280  0.12800  0.22710  Biso   1.000  O
  O26      1.0000 0.04720  0.62800  0.27290  Biso   1.000  O
  O27      1.0000 0.04720  0.87200  0.77290  Biso   1.000  O
  O28      1.0000 0.95280  0.37200  0.72710  Biso   1.000  O
  O29      1.0000 0.91730  0.24730  0.44530  Biso   1.000  O
  O30      1.0000 0.08270  0.74730  0.05470  Biso   1.000  O
  O31      1.0000 0.08270  0.75270  0.55470  Biso   1.000  O
  O32      1.0000 0.91730  0.25270  0.94530  Biso   1.000  O
  Cl1      1.0000 0.93268  0.18745  0.33267  Biso   1.000  Cl
  Cl2      1.0000 0.06732  0.68745  0.16733  Biso   1.000  Cl
  Cl3      1.0000 0.06732  0.81255  0.66733  Biso   1.000  Cl
  Cl4      1.0000 0.93268  0.31255  0.83267  Biso   1.000  Cl
