data_image0
_cell_length_a       22.8917
_cell_length_b       10.0832
_cell_length_c       9.3522
_cell_angle_alpha    90
_cell_angle_beta     110.518
_cell_angle_gamma    90

_symmetry_space_group_name_H-M    "P 1"
_symmetry_int_tables_number       1

loop_
  _symmetry_equiv_pos_as_xyz
  'x, y, z'

loop_
  _atom_site_label
  _atom_site_occupancy
  _atom_site_fract_x
  _atom_site_fract_y
  _atom_site_fract_z
  _atom_site_thermal_displace_type
  _atom_site_B_iso_or_equiv
  _atom_site_type_symbol
  Cu1      1.0000 0.00000  0.14837  0.25000  Biso   1.000  Cu
  Cu2      1.0000 0.50000  0.64837  0.25000  Biso   1.000  Cu
  Cu3      1.0000 0.00000  0.85163  0.75000  Biso   1.000  Cu
  Cu4      1.0000 0.50000  0.35163  0.75000  Biso   1.000  Cu
  O1       1.0000 0.94291  0.11634  0.99415  Biso   1.000  O
  O2       1.0000 0.05709  0.11634  0.50585  Biso   1.000  O
  O3       1.0000 0.44291  0.61634  0.99415  Biso   1.000  O
  O4       1.0000 0.55709  0.61634  0.50585  Biso   1.000  O
  O5       1.0000 0.05709  0.88366  0.00585  Biso   1.000  O
  O6       1.0000 0.94291  0.88366  0.49415  Biso   1.000  O
  O7       1.0000 0.55709  0.38366  0.00585  Biso   1.000  O
  O8       1.0000 0.44291  0.38366  0.49415  Biso   1.000  O
  O9       1.0000 0.95042  0.98714  0.80859  Biso   1.000  O
  O10      1.0000 0.04958  0.98714  0.69141  Biso   1.000  O
  O11      1.0000 0.45042  0.48714  0.80859  Biso   1.000  O
  O12      1.0000 0.54958  0.48714  0.69141  Biso   1.000  O
  O13      1.0000 0.04958  0.01286  0.19141  Biso   1.000  O
  O14      1.0000 0.95042  0.01286  0.30859  Biso   1.000  O
  O15      1.0000 0.54958  0.51286  0.19141  Biso   1.000  O
  O16      1.0000 0.45042  0.51286  0.30859  Biso   1.000  O
  N1       1.0000 0.05035  0.30039  0.21144  Biso   1.000  N
  N2       1.0000 0.94965  0.30039  0.28856  Biso   1.000  N
  N3       1.0000 0.55035  0.80039  0.21144  Biso   1.000  N
  N4       1.0000 0.44965  0.80039  0.28856  Biso   1.000  N
  N5       1.0000 0.94965  0.69961  0.78856  Biso   1.000  N
  N6       1.0000 0.05035  0.69961  0.71144  Biso   1.000  N
  N7       1.0000 0.44965  0.19961  0.78856  Biso   1.000  N
  N8       1.0000 0.55035  0.19961  0.71144  Biso   1.000  N
  C1       1.0000 0.96904  0.03004  0.94390  Biso   1.000  C
  C2       1.0000 0.03096  0.03004  0.55610  Biso   1.000  C
  C3       1.0000 0.46904  0.53004  0.94390  Biso   1.000  C
  C4       1.0000 0.53096  0.53004  0.55610  Biso   1.000  C
  C5       1.0000 0.03096  0.96996  0.05610  Biso   1.000  C
  C6       1.0000 0.96904  0.96996  0.44390  Biso   1.000  C
  C7       1.0000 0.53096  0.46996  0.05610  Biso   1.000  C
  C8       1.0000 0.46904  0.46996  0.44390  Biso   1.000  C
  C9       1.0000 0.02710  0.42078  0.22790  Biso   1.000  C
  C10      1.0000 0.97290  0.42078  0.27210  Biso   1.000  C
  C11      1.0000 0.52710  0.92078  0.22790  Biso   1.000  C
  C12      1.0000 0.47290  0.92078  0.27210  Biso   1.000  C
  C13      1.0000 0.97290  0.57922  0.77210  Biso   1.000  C
  C14      1.0000 0.02710  0.57922  0.72790  Biso   1.000  C
  C15      1.0000 0.47290  0.07922  0.77210  Biso   1.000  C
  C16      1.0000 0.52710  0.07922  0.72790  Biso   1.000  C
  C17      1.0000 0.10068  0.29610  0.17200  Biso   1.000  C
  C18      1.0000 0.89932  0.29610  0.32800  Biso   1.000  C
  C19      1.0000 0.60068  0.79610  0.17200  Biso   1.000  C
  C20      1.0000 0.39932  0.79610  0.32800  Biso   1.000  C
  C21      1.0000 0.89932  0.70390  0.82800  Biso   1.000  C
  C22      1.0000 0.10068  0.70390  0.67200  Biso   1.000  C
  C23      1.0000 0.39932  0.20390  0.82800  Biso   1.000  C
  C24      1.0000 0.60068  0.20390  0.67200  Biso   1.000  C
  H1       1.0000 0.11800  0.21240  0.16240  Biso   1.000  H
  H2       1.0000 0.88200  0.21240  0.33760  Biso   1.000  H
  H3       1.0000 0.61800  0.71240  0.16240  Biso   1.000  H
  H4       1.0000 0.38200  0.71240  0.33760  Biso   1.000  H
  H5       1.0000 0.88200  0.78760  0.83760  Biso   1.000  H
  H6       1.0000 0.11800  0.78760  0.66240  Biso   1.000  H
  H7       1.0000 0.38200  0.28760  0.83760  Biso   1.000  H
  H8       1.0000 0.61800  0.28760  0.66240  Biso   1.000  H
  C25      1.0000 0.05291  0.54110  0.20430  Biso   1.000  C
  C26      1.0000 0.94709  0.54110  0.29570  Biso   1.000  C
  C27      1.0000 0.55291  0.04110  0.20430  Biso   1.000  C
  C28      1.0000 0.44709  0.04110  0.29570  Biso   1.000  C
  C29      1.0000 0.94709  0.45890  0.79570  Biso   1.000  C
  C30      1.0000 0.05291  0.45890  0.70430  Biso   1.000  C
  C31      1.0000 0.44709  0.95890  0.79570  Biso   1.000  C
  C32      1.0000 0.55291  0.95890  0.70430  Biso   1.000  C
  C33      1.0000 0.10546  0.53270  0.15990  Biso   1.000  C
  C34      1.0000 0.89454  0.53270  0.34010  Biso   1.000  C
  C35      1.0000 0.60546  0.03270  0.15990  Biso   1.000  C
  C36      1.0000 0.39454  0.03270  0.34010  Biso   1.000  C
  C37      1.0000 0.89454  0.46730  0.84010  Biso   1.000  C
  C38      1.0000 0.10546  0.46730  0.65990  Biso   1.000  C
  C39      1.0000 0.39454  0.96730  0.84010  Biso   1.000  C
  C40      1.0000 0.60546  0.96730  0.65990  Biso   1.000  C
  H9       1.0000 0.12460  0.61120  0.14090  Biso   1.000  H
  H10      1.0000 0.87540  0.61120  0.35910  Biso   1.000  H
  H11      1.0000 0.62460  0.11120  0.14090  Biso   1.000  H
  H12      1.0000 0.37540  0.11120  0.35910  Biso   1.000  H
  H13      1.0000 0.87540  0.38880  0.85910  Biso   1.000  H
  H14      1.0000 0.12460  0.38880  0.64090  Biso   1.000  H
  H15      1.0000 0.37540  0.88880  0.85910  Biso   1.000  H
  H16      1.0000 0.62460  0.88880  0.64090  Biso   1.000  H
  C41      1.0000 0.12892  0.41140  0.14420  Biso   1.000  C
  C42      1.0000 0.87108  0.41140  0.35580  Biso   1.000  C
  C43      1.0000 0.62892  0.91140  0.14420  Biso   1.000  C
  C44      1.0000 0.37108  0.91140  0.35580  Biso   1.000  C
  C45      1.0000 0.87108  0.58860  0.85580  Biso   1.000  C
  C46      1.0000 0.12892  0.58860  0.64420  Biso   1.000  C
  C47      1.0000 0.37108  0.08860  0.85580  Biso   1.000  C
  C48      1.0000 0.62892  0.08860  0.64420  Biso   1.000  C
  H17      1.0000 0.16440  0.40520  0.11430  Biso   1.000  H
  H18      1.0000 0.83560  0.40520  0.38570  Biso   1.000  H
  H19      1.0000 0.66440  0.90520  0.11430  Biso   1.000  H
  H20      1.0000 0.33560  0.90520  0.38570  Biso   1.000  H
  H21      1.0000 0.83560  0.59480  0.88570  Biso   1.000  H
  H22      1.0000 0.16440  0.59480  0.61430  Biso   1.000  H
  H23      1.0000 0.33560  0.09480  0.88570  Biso   1.000  H
  H24      1.0000 0.66440  0.09480  0.61430  Biso   1.000  H
  C49      1.0000 0.02530  0.66260  0.22820  Biso   1.000  C
  C50      1.0000 0.97470  0.66260  0.27180  Biso   1.000  C
  C51      1.0000 0.52530  0.16260  0.22820  Biso   1.000  C
  C52      1.0000 0.47470  0.16260  0.27180  Biso   1.000  C
  C53      1.0000 0.97470  0.33740  0.77180  Biso   1.000  C
  C54      1.0000 0.02530  0.33740  0.72820  Biso   1.000  C
  C55      1.0000 0.47470  0.83740  0.77180  Biso   1.000  C
  C56      1.0000 0.52530  0.83740  0.72820  Biso   1.000  C
  H25      1.0000 0.04270  0.74470  0.21330  Biso   1.000  H
  H26      1.0000 0.95730  0.74470  0.28670  Biso   1.000  H
  H27      1.0000 0.54270  0.24470  0.21330  Biso   1.000  H
  H28      1.0000 0.45730  0.24470  0.28670  Biso   1.000  H
  H29      1.0000 0.95730  0.25530  0.78670  Biso   1.000  H
  H30      1.0000 0.04270  0.25530  0.71330  Biso   1.000  H
  H31      1.0000 0.45730  0.75530  0.78670  Biso   1.000  H
  H32      1.0000 0.54270  0.75530  0.71330  Biso   1.000  H
  S1       1.0000 0.23591  0.05570  0.05945  Biso   1.000  S
  S2       1.0000 0.76409  0.05570  0.44055  Biso   1.000  S
  S3       1.0000 0.73591  0.55570  0.05945  Biso   1.000  S
  S4       1.0000 0.26409  0.55570  0.44055  Biso   1.000  S
  S5       1.0000 0.76409  0.94430  0.94055  Biso   1.000  S
  S6       1.0000 0.23591  0.94430  0.55945  Biso   1.000  S
  S7       1.0000 0.26409  0.44430  0.94055  Biso   1.000  S
  S8       1.0000 0.73591  0.44430  0.55945  Biso   1.000  S
  O17      1.0000 0.22954  0.11009  0.20275  Biso   1.000  O
  O18      1.0000 0.77046  0.11009  0.29725  Biso   1.000  O
  O19      1.0000 0.72954  0.61009  0.20275  Biso   1.000  O
  O20      1.0000 0.27046  0.61009  0.29725  Biso   1.000  O
  O21      1.0000 0.77046  0.88991  0.79725  Biso   1.000  O
  O22      1.0000 0.22954  0.88991  0.70275  Biso   1.000  O
  O23      1.0000 0.27046  0.38991  0.79725  Biso   1.000  O
  O24      1.0000 0.72954  0.38991  0.70275  Biso   1.000  O
  C57      1.0000 0.20767  0.88920  0.03740  Biso   1.000  C
  C58      1.0000 0.79233  0.88920  0.46260  Biso   1.000  C
  C59      1.0000 0.70767  0.38920  0.03740  Biso   1.000  C
  C60      1.0000 0.29233  0.38920  0.46260  Biso   1.000  C
  C61      1.0000 0.79233  0.11080  0.96260  Biso   1.000  C
  C62      1.0000 0.20767  0.11080  0.53740  Biso   1.000  C
  C63      1.0000 0.29233  0.61080  0.96260  Biso   1.000  C
  C64      1.0000 0.70767  0.61080  0.53740  Biso   1.000  C
  H33      1.0000 0.23320  0.83590  0.12460  Biso   1.000  H
  H34      1.0000 0.76680  0.83590  0.37540  Biso   1.000  H
  H35      1.0000 0.73320  0.33590  0.12460  Biso   1.000  H
  H36      1.0000 0.26680  0.33590  0.37540  Biso   1.000  H
  H37      1.0000 0.76680  0.16410  0.87540  Biso   1.000  H
  H38      1.0000 0.23320  0.16410  0.62460  Biso   1.000  H
  H39      1.0000 0.26680  0.66410  0.87540  Biso   1.000  H
  H40      1.0000 0.73320  0.66410  0.62460  Biso   1.000  H
  H41      1.0000 0.21010  0.85180  0.94300  Biso   1.000  H
  H42      1.0000 0.78990  0.85180  0.55700  Biso   1.000  H
  H43      1.0000 0.71010  0.35180  0.94300  Biso   1.000  H
  H44      1.0000 0.28990  0.35180  0.55700  Biso   1.000  H
  H45      1.0000 0.78990  0.14820  0.05700  Biso   1.000  H
  H46      1.0000 0.21010  0.14820  0.44300  Biso   1.000  H
  H47      1.0000 0.28990  0.64820  0.05700  Biso   1.000  H
  H48      1.0000 0.71010  0.64820  0.44300  Biso   1.000  H
  H49      1.0000 0.16420  0.88840  0.03260  Biso   1.000  H
  H50      1.0000 0.83580  0.88840  0.46740  Biso   1.000  H
  H51      1.0000 0.66420  0.38840  0.03260  Biso   1.000  H
  H52      1.0000 0.33580  0.38840  0.46740  Biso   1.000  H
  H53      1.0000 0.83580  0.11160  0.96740  Biso   1.000  H
  H54      1.0000 0.16420  0.11160  0.53260  Biso   1.000  H
  H55      1.0000 0.33580  0.61160  0.96740  Biso   1.000  H
  H56      1.0000 0.66420  0.61160  0.53260  Biso   1.000  H
  C65      1.0000 0.17372  0.12460  0.90400  Biso   1.000  C
  C66      1.0000 0.82628  0.12460  0.59600  Biso   1.000  C
  C67      1.0000 0.67372  0.62460  0.90400  Biso   1.000  C
  C68      1.0000 0.32628  0.62460  0.59600  Biso   1.000  C
  C69      1.0000 0.82628  0.87540  0.09600  Biso   1.000  C
  C70      1.0000 0.17372  0.87540  0.40400  Biso   1.000  C
  C71      1.0000 0.32628  0.37540  0.09600  Biso   1.000  C
  C72      1.0000 0.67372  0.37540  0.40400  Biso   1.000  C
  H57      1.0000 0.13420  0.11040  0.92040  Biso   1.000  H
  H58      1.0000 0.86580  0.11040  0.57960  Biso   1.000  H
  H59      1.0000 0.63420  0.61040  0.92040  Biso   1.000  H
  H60      1.0000 0.36580  0.61040  0.57960  Biso   1.000  H
  H61      1.0000 0.86580  0.88960  0.07960  Biso   1.000  H
  H62      1.0000 0.13420  0.88960  0.42040  Biso   1.000  H
  H63      1.0000 0.36580  0.38960  0.07960  Biso   1.000  H
  H64      1.0000 0.63420  0.38960  0.42040  Biso   1.000  H
  H65      1.0000 0.17210  0.08140  0.80880  Biso   1.000  H
  H66      1.0000 0.82790  0.08140  0.69120  Biso   1.000  H
  H67      1.0000 0.67210  0.58140  0.80880  Biso   1.000  H
  H68      1.0000 0.32790  0.58140  0.69120  Biso   1.000  H
  H69      1.0000 0.82790  0.91860  0.19120  Biso   1.000  H
  H70      1.0000 0.17210  0.91860  0.30880  Biso   1.000  H
  H71      1.0000 0.32790  0.41860  0.19120  Biso   1.000  H
  H72      1.0000 0.67210  0.41860  0.30880  Biso   1.000  H
  H73      1.0000 0.18070  0.21990  0.89740  Biso   1.000  H
  H74      1.0000 0.81930  0.21990  0.60260  Biso   1.000  H
  H75      1.0000 0.68070  0.71990  0.89740  Biso   1.000  H
  H76      1.0000 0.31930  0.71990  0.60260  Biso   1.000  H
  H77      1.0000 0.81930  0.78010  0.10260  Biso   1.000  H
  H78      1.0000 0.18070  0.78010  0.39740  Biso   1.000  H
  H79      1.0000 0.31930  0.28010  0.10260  Biso   1.000  H
  H80      1.0000 0.68070  0.28010  0.39740  Biso   1.000  H
