data_image0
_cell_length_a       9.2756
_cell_length_b       11.3191
_cell_length_c       12.4673
_cell_angle_alpha    69.6
_cell_angle_beta     80.473
_cell_angle_gamma    87.955

_symmetry_space_group_name_H-M    "P 1"
_symmetry_int_tables_number       1

loop_
  _symmetry_equiv_pos_as_xyz
  'x, y, z'

loop_
  _atom_site_label
  _atom_site_occupancy
  _atom_site_fract_x
  _atom_site_fract_y
  _atom_site_fract_z
  _atom_site_thermal_displace_type
  _atom_site_B_iso_or_equiv
  _atom_site_type_symbol
  C1       1.0000 0.89930  0.95340  0.69340  Biso   1.000  C
  C2       1.0000 0.10070  0.04660  0.30660  Biso   1.000  C
  H1       1.0000 0.87750  0.99890  0.62030  Biso   1.000  H
  H2       1.0000 0.12250  0.00110  0.37970  Biso   1.000  H
  C3       1.0000 0.92970  0.01910  0.76200  Biso   1.000  C
  C4       1.0000 0.07030  0.98090  0.23800  Biso   1.000  C
  H3       1.0000 0.93030  0.10680  0.73410  Biso   1.000  H
  H4       1.0000 0.06970  0.89320  0.26590  Biso   1.000  H
  C5       1.0000 0.95960  0.95390  0.87310  Biso   1.000  C
  C6       1.0000 0.04040  0.04610  0.12690  Biso   1.000  C
  C7       1.0000 0.95920  0.82330  0.90690  Biso   1.000  C
  C8       1.0000 0.04080  0.17670  0.09310  Biso   1.000  C
  H5       1.0000 0.97920  0.77520  0.98000  Biso   1.000  H
  H6       1.0000 0.02080  0.22480  0.02000  Biso   1.000  H
  C9       1.0000 0.92960  0.76530  0.83330  Biso   1.000  C
  C10      1.0000 0.07040  0.23470  0.16670  Biso   1.000  C
  H7       1.0000 0.93030  0.67780  0.85830  Biso   1.000  H
  H8       1.0000 0.06970  0.32220  0.14170  Biso   1.000  H
  C11      1.0000 0.99260  0.02400  0.94550  Biso   1.000  C
  C12      1.0000 0.00740  0.97600  0.05450  Biso   1.000  C
  H9       1.0000 0.00410  0.11110  0.91040  Biso   1.000  H
  H10      1.0000 0.99590  0.88890  0.08960  Biso   1.000  H
  C13      1.0000 0.18990  0.75360  0.58820  Biso   1.000  C
  C14      1.0000 0.81010  0.24640  0.41180  Biso   1.000  C
  H11      1.0000 0.17770  0.81140  0.62660  Biso   1.000  H
  H12      1.0000 0.82230  0.18860  0.37340  Biso   1.000  H
  C15      1.0000 0.32480  0.69900  0.57700  Biso   1.000  C
  C16      1.0000 0.67520  0.30100  0.42300  Biso   1.000  C
  H13      1.0000 0.40020  0.72020  0.60820  Biso   1.000  H
  H14      1.0000 0.59980  0.27980  0.39180  Biso   1.000  H
  C17      1.0000 0.34800  0.61430  0.52050  Biso   1.000  C
  C18      1.0000 0.65200  0.38570  0.47950  Biso   1.000  C
  C19      1.0000 0.23150  0.59150  0.47200  Biso   1.000  C
  C20      1.0000 0.76850  0.40850  0.52800  Biso   1.000  C
  H15      1.0000 0.24240  0.53750  0.42970  Biso   1.000  H
  H16      1.0000 0.75760  0.46250  0.57030  Biso   1.000  H
  C21      1.0000 0.10240  0.64810  0.48670  Biso   1.000  C
  C22      1.0000 0.89760  0.35190  0.51330  Biso   1.000  C
  H17      1.0000 0.02660  0.63140  0.45330  Biso   1.000  H
  H18      1.0000 0.97340  0.36860  0.54670  Biso   1.000  H
  C23      1.0000 0.48840  0.54880  0.51510  Biso   1.000  C
  C24      1.0000 0.51160  0.45120  0.48490  Biso   1.000  C
  C25      1.0000 0.74720  0.84090  0.43880  Biso   1.000  C
  C26      1.0000 0.25280  0.15910  0.56120  Biso   1.000  C
  C27      1.0000 0.65690  0.91020  0.34880  Biso   1.000  C
  C28      1.0000 0.34310  0.08980  0.65120  Biso   1.000  C
  C29      1.0000 0.59590  0.02200  0.35130  Biso   1.000  C
  C30      1.0000 0.40410  0.97800  0.64870  Biso   1.000  C
  H19      1.0000 0.60810  0.05060  0.41070  Biso   1.000  H
  H20      1.0000 0.39190  0.94940  0.58930  Biso   1.000  H
  C31      1.0000 0.51700  0.09210  0.26720  Biso   1.000  C
  C32      1.0000 0.48300  0.90790  0.73280  Biso   1.000  C
  H21      1.0000 0.47520  0.16710  0.27000  Biso   1.000  H
  H22      1.0000 0.52480  0.83290  0.73000  Biso   1.000  H
  C33      1.0000 0.50130  0.05020  0.18040  Biso   1.000  C
  C34      1.0000 0.49870  0.94980  0.81960  Biso   1.000  C
  C35      1.0000 0.55470  0.93780  0.17750  Biso   1.000  C
  C36      1.0000 0.44530  0.06220  0.82250  Biso   1.000  C
  H23      1.0000 0.53900  0.90920  0.11880  Biso   1.000  H
  H24      1.0000 0.46100  0.09080  0.88120  Biso   1.000  H
  C37      1.0000 0.63290  0.86610  0.26290  Biso   1.000  C
  C38      1.0000 0.36710  0.13390  0.73710  Biso   1.000  C
  H25      1.0000 0.66890  0.78860  0.26230  Biso   1.000  H
  H26      1.0000 0.33110  0.21140  0.73770  Biso   1.000  H
  C39      1.0000 0.50250  0.23140  0.01250  Biso   1.000  C
  C40      1.0000 0.49750  0.76860  0.98750  Biso   1.000  C
  C41      1.0000 0.42490  0.32620  0.94860  Biso   1.000  C
  C42      1.0000 0.57510  0.67380  0.05140  Biso   1.000  C
  H27      1.0000 0.32340  0.31950  0.96030  Biso   1.000  H
  H28      1.0000 0.67660  0.68050  0.03970  Biso   1.000  H
  C43      1.0000 0.49520  0.43200  0.86690  Biso   1.000  C
  C44      1.0000 0.50480  0.56800  0.13310  Biso   1.000  C
  H29      1.0000 0.44010  0.49670  0.82500  Biso   1.000  H
  H30      1.0000 0.55990  0.50330  0.17500  Biso   1.000  H
  C45      1.0000 0.64410  0.44450  0.84550  Biso   1.000  C
  C46      1.0000 0.35590  0.55550  0.15450  Biso   1.000  C
  C47      1.0000 0.72200  0.34730  0.90980  Biso   1.000  C
  C48      1.0000 0.27800  0.65270  0.09020  Biso   1.000  C
  H31      1.0000 0.82360  0.35310  0.89630  Biso   1.000  H
  H32      1.0000 0.17640  0.64690  0.10370  Biso   1.000  H
  C49      1.0000 0.65310  0.24150  0.99380  Biso   1.000  C
  C50      1.0000 0.34690  0.75850  0.00620  Biso   1.000  C
  H33      1.0000 0.70750  0.17750  0.03740  Biso   1.000  H
  H34      1.0000 0.29250  0.82250  0.96260  Biso   1.000  H
  C51      1.0000 0.72160  0.55840  0.75750  Biso   1.000  C
  C52      1.0000 0.27840  0.44160  0.24250  Biso   1.000  C
  N1       1.0000 0.07710  0.72690  0.54660  Biso   1.000  N
  N2       1.0000 0.92290  0.27310  0.45340  Biso   1.000  N
  N3       1.0000 0.89950  0.82880  0.72620  Biso   1.000  N
  N4       1.0000 0.10050  0.17120  0.27380  Biso   1.000  N
  Cu1      1.0000 0.86131  0.74206  0.61316  Biso   1.000  Cu
  Cu2      1.0000 0.13869  0.25794  0.38684  Biso   1.000  Cu
  O1       1.0000 0.78380  0.89710  0.50210  Biso   1.000  O
  O2       1.0000 0.21620  0.10290  0.49790  Biso   1.000  O
  O3       1.0000 0.78590  0.72970  0.45290  Biso   1.000  O
  O4       1.0000 0.21410  0.27030  0.54710  Biso   1.000  O
  O5       1.0000 0.42670  0.12490  0.09080  Biso   1.000  O
  O6       1.0000 0.57330  0.87510  0.90920  Biso   1.000  O
  O7       1.0000 0.65390  0.65550  0.70990  Biso   1.000  O
  O8       1.0000 0.34610  0.34450  0.29010  Biso   1.000  O
  O9       1.0000 0.86020  0.55730  0.72770  Biso   1.000  O
  O10      1.0000 0.13980  0.44270  0.27230  Biso   1.000  O
  O11      1.0000 0.08060  0.35540  0.76010  Biso   1.000  O
  O12      1.0000 0.91940  0.64460  0.23990  Biso   1.000  O
  H35      1.0000 0.55800  0.58100  0.52700  Biso   1.000  H
  H36      1.0000 0.44200  0.41900  0.47300  Biso   1.000  H
  H37      1.0000 0.09300  0.39500  0.80300  Biso   1.000  H
  H38      1.0000 0.90700  0.60500  0.19700  Biso   1.000  H
  H39      1.0000 0.05000  0.39900  0.70100  Biso   1.000  H
  H40      1.0000 0.95000  0.60100  0.29900  Biso   1.000  H
