data_image0
_cell_length_a       5.682
_cell_length_b       13.702
_cell_length_c       28.274
_cell_angle_alpha    90
_cell_angle_beta     93.207
_cell_angle_gamma    90

_symmetry_space_group_name_H-M    "P 1"
_symmetry_int_tables_number       1

loop_
  _symmetry_equiv_pos_as_xyz
  'x, y, z'

loop_
  _atom_site_label
  _atom_site_occupancy
  _atom_site_fract_x
  _atom_site_fract_y
  _atom_site_fract_z
  _atom_site_thermal_displace_type
  _atom_site_B_iso_or_equiv
  _atom_site_type_symbol
  Cu1      1.0000 0.04572  0.08696  0.03169  Biso   1.000  Cu
  Cu2      1.0000 0.45428  0.58696  0.46831  Biso   1.000  Cu
  Cu3      1.0000 0.95428  0.91304  0.96831  Biso   1.000  Cu
  Cu4      1.0000 0.54572  0.41304  0.53169  Biso   1.000  Cu
  Cu5      1.0000 0.50000  0.00000  0.00000  Biso   1.000  Cu
  Cu6      1.0000 0.00000  0.50000  0.50000  Biso   1.000  Cu
  Cl1      1.0000 0.33080  0.91683  0.28311  Biso   1.000  Cl
  Cl2      1.0000 0.16920  0.41683  0.21689  Biso   1.000  Cl
  Cl3      1.0000 0.66920  0.08317  0.71689  Biso   1.000  Cl
  Cl4      1.0000 0.83080  0.58317  0.78311  Biso   1.000  Cl
  Cl5      1.0000 0.88970  0.18181  0.87427  Biso   1.000  Cl
  Cl6      1.0000 0.61030  0.68181  0.62573  Biso   1.000  Cl
  Cl7      1.0000 0.11030  0.81819  0.12573  Biso   1.000  Cl
  Cl8      1.0000 0.38970  0.31819  0.37427  Biso   1.000  Cl
  O1       1.0000 0.18380  0.95790  0.01809  Biso   1.000  O
  O2       1.0000 0.31620  0.45790  0.48191  Biso   1.000  O
  O3       1.0000 0.81620  0.04210  0.98191  Biso   1.000  O
  O4       1.0000 0.68380  0.54210  0.51809  Biso   1.000  O
  H1       1.0000 0.19400  0.92100  0.04230  Biso   1.000  H
  H2       1.0000 0.30600  0.42100  0.45770  Biso   1.000  H
  H3       1.0000 0.80600  0.07900  0.95770  Biso   1.000  H
  H4       1.0000 0.69400  0.57900  0.54230  Biso   1.000  H
  O5       1.0000 0.25690  0.11220  0.08690  Biso   1.000  O
  O6       1.0000 0.24310  0.61220  0.41310  Biso   1.000  O
  O7       1.0000 0.74310  0.88780  0.91310  Biso   1.000  O
  O8       1.0000 0.75690  0.38780  0.58690  Biso   1.000  O
  O9       1.0000 0.67830  0.85530  0.02307  Biso   1.000  O
  O10      1.0000 0.82170  0.35530  0.47693  Biso   1.000  O
  O11      1.0000 0.32170  0.14470  0.97693  Biso   1.000  O
  O12      1.0000 0.17830  0.64470  0.52307  Biso   1.000  O
  H5       1.0000 0.69200  0.79770  0.01170  Biso   1.000  H
  H6       1.0000 0.80800  0.29770  0.48830  Biso   1.000  H
  H7       1.0000 0.30800  0.20230  0.98830  Biso   1.000  H
  H8       1.0000 0.19200  0.70230  0.51170  Biso   1.000  H
  H9       1.0000 0.72200  0.85300  0.05260  Biso   1.000  H
  H10      1.0000 0.77800  0.35300  0.44740  Biso   1.000  H
  H11      1.0000 0.27800  0.14700  0.94740  Biso   1.000  H
  H12      1.0000 0.22200  0.64700  0.55260  Biso   1.000  H
  O13      1.0000 0.59170  0.03890  0.06564  Biso   1.000  O
  O14      1.0000 0.90830  0.53890  0.43436  Biso   1.000  O
  O15      1.0000 0.40830  0.96110  0.93436  Biso   1.000  O
  O16      1.0000 0.09170  0.46110  0.56564  Biso   1.000  O
  O17      1.0000 0.60420  0.37250  0.96646  Biso   1.000  O
  O18      1.0000 0.89580  0.87250  0.53354  Biso   1.000  O
  O19      1.0000 0.39580  0.62750  0.03354  Biso   1.000  O
  O20      1.0000 0.10420  0.12750  0.46646  Biso   1.000  O
  O21      1.0000 0.29480  0.80840  0.47944  Biso   1.000  O
  O22      1.0000 0.20520  0.30840  0.02056  Biso   1.000  O
  O23      1.0000 0.70520  0.19160  0.52056  Biso   1.000  O
  O24      1.0000 0.79480  0.69160  0.97944  Biso   1.000  O
  O25      1.0000 0.59670  0.71340  0.45938  Biso   1.000  O
  O26      1.0000 0.90330  0.21340  0.04062  Biso   1.000  O
  O27      1.0000 0.40330  0.28660  0.54062  Biso   1.000  O
  O28      1.0000 0.09670  0.78660  0.95938  Biso   1.000  O
  O29      1.0000 0.44010  0.82600  0.28750  Biso   1.000  O
  O30      1.0000 0.05990  0.32600  0.21250  Biso   1.000  O
  O31      1.0000 0.55990  0.17400  0.71250  Biso   1.000  O
  O32      1.0000 0.94010  0.67400  0.78750  Biso   1.000  O
  O33      1.0000 0.42160  0.97800  0.24821  Biso   1.000  O
  O34      1.0000 0.07840  0.47800  0.25179  Biso   1.000  O
  O35      1.0000 0.57840  0.02200  0.75179  Biso   1.000  O
  O36      1.0000 0.92160  0.52200  0.74821  Biso   1.000  O
  O37      1.0000 0.08150  0.90100  0.27077  Biso   1.000  O
  O38      1.0000 0.41850  0.40100  0.22923  Biso   1.000  O
  O39      1.0000 0.91850  0.09900  0.72923  Biso   1.000  O
  O40      1.0000 0.58150  0.59900  0.77077  Biso   1.000  O
  O41      1.0000 0.35130  0.96600  0.32808  Biso   1.000  O
  O42      1.0000 0.14870  0.46600  0.17192  Biso   1.000  O
  O43      1.0000 0.64870  0.03400  0.67192  Biso   1.000  O
  O44      1.0000 0.85130  0.53400  0.82808  Biso   1.000  O
  O45      1.0000 0.78020  0.09390  0.85760  Biso   1.000  O
  O46      1.0000 0.71980  0.59390  0.64240  Biso   1.000  O
  O47      1.0000 0.21980  0.90610  0.14240  Biso   1.000  O
  O48      1.0000 0.28020  0.40610  0.35760  Biso   1.000  O
  O49      1.0000 0.84200  0.25920  0.84168  Biso   1.000  O
  O50      1.0000 0.65800  0.75920  0.65832  Biso   1.000  O
  O51      1.0000 0.15800  0.74080  0.15832  Biso   1.000  O
  O52      1.0000 0.34200  0.24080  0.34168  Biso   1.000  O
  O53      1.0000 0.79810  0.20560  0.91949  Biso   1.000  O
  O54      1.0000 0.70190  0.70560  0.58051  Biso   1.000  O
  O55      1.0000 0.20190  0.79440  0.08051  Biso   1.000  O
  O56      1.0000 0.29810  0.29440  0.41949  Biso   1.000  O
  O57      1.0000 0.14120  0.16750  0.88076  Biso   1.000  O
  O58      1.0000 0.35880  0.66750  0.61924  Biso   1.000  O
  O59      1.0000 0.85880  0.83250  0.11924  Biso   1.000  O
  O60      1.0000 0.64120  0.33250  0.38076  Biso   1.000  O
  N1       1.0000 0.80040  0.14830  0.22905  Biso   1.000  N
  N2       1.0000 0.69960  0.64830  0.27095  Biso   1.000  N
  N3       1.0000 0.19960  0.85170  0.77095  Biso   1.000  N
  N4       1.0000 0.30040  0.35170  0.72905  Biso   1.000  N
  N5       1.0000 0.80180  0.02990  0.39078  Biso   1.000  N
  N6       1.0000 0.69820  0.52990  0.10922  Biso   1.000  N
  N7       1.0000 0.19820  0.97010  0.60922  Biso   1.000  N
  N8       1.0000 0.30180  0.47010  0.89078  Biso   1.000  N
  C1       1.0000 0.46690  0.08350  0.09393  Biso   1.000  C
  C2       1.0000 0.03310  0.58350  0.40607  Biso   1.000  C
  C3       1.0000 0.53310  0.91650  0.90607  Biso   1.000  C
  C4       1.0000 0.96690  0.41650  0.59393  Biso   1.000  C
  C5       1.0000 0.58490  0.10610  0.14250  Biso   1.000  C
  C6       1.0000 0.91510  0.60610  0.35750  Biso   1.000  C
  C7       1.0000 0.41510  0.89390  0.85750  Biso   1.000  C
  C8       1.0000 0.08490  0.39390  0.64250  Biso   1.000  C
  C9       1.0000 0.48610  0.17410  0.17203  Biso   1.000  C
  C10      1.0000 0.01390  0.67410  0.32797  Biso   1.000  C
  C11      1.0000 0.51390  0.82590  0.82797  Biso   1.000  C
  C12      1.0000 0.98610  0.32590  0.67203  Biso   1.000  C
  H13      1.0000 0.34660  0.20580  0.16260  Biso   1.000  H
  H14      1.0000 0.15340  0.70580  0.33740  Biso   1.000  H
  H15      1.0000 0.65340  0.79420  0.83740  Biso   1.000  H
  H16      1.0000 0.84660  0.29420  0.66260  Biso   1.000  H
  C13      1.0000 0.59830  0.19370  0.21554  Biso   1.000  C
  C14      1.0000 0.90170  0.69370  0.28446  Biso   1.000  C
  C15      1.0000 0.40170  0.80630  0.78446  Biso   1.000  C
  C16      1.0000 0.09830  0.30630  0.71554  Biso   1.000  C
  H17      1.0000 0.53320  0.23870  0.23570  Biso   1.000  H
  H18      1.0000 0.96680  0.73870  0.26430  Biso   1.000  H
  H19      1.0000 0.46680  0.76130  0.76430  Biso   1.000  H
  H20      1.0000 0.03320  0.26130  0.73570  Biso   1.000  H
  C17      1.0000 0.89700  0.08210  0.20102  Biso   1.000  C
  C18      1.0000 0.60300  0.58210  0.29898  Biso   1.000  C
  C19      1.0000 0.10300  0.91790  0.79898  Biso   1.000  C
  C20      1.0000 0.39700  0.41790  0.70102  Biso   1.000  C
  H21      1.0000 0.03500  0.05030  0.21140  Biso   1.000  H
  H22      1.0000 0.46500  0.55030  0.28860  Biso   1.000  H
  H23      1.0000 0.96500  0.94970  0.78860  Biso   1.000  H
  H24      1.0000 0.53500  0.44970  0.71140  Biso   1.000  H
  C21      1.0000 0.79300  0.06080  0.15688  Biso   1.000  C
  C22      1.0000 0.70700  0.56080  0.34312  Biso   1.000  C
  C23      1.0000 0.20700  0.93920  0.84312  Biso   1.000  C
  C24      1.0000 0.29300  0.43920  0.65688  Biso   1.000  C
  H25      1.0000 0.86280  0.01640  0.13710  Biso   1.000  H
  H26      1.0000 0.63720  0.51640  0.36290  Biso   1.000  H
  H27      1.0000 0.13720  0.98360  0.86290  Biso   1.000  H
  H28      1.0000 0.36280  0.48360  0.63710  Biso   1.000  H
  C25      1.0000 0.91080  0.16690  0.27741  Biso   1.000  C
  C26      1.0000 0.58920  0.66690  0.22259  Biso   1.000  C
  C27      1.0000 0.08920  0.83310  0.72259  Biso   1.000  C
  C28      1.0000 0.41080  0.33310  0.77741  Biso   1.000  C
  H29      1.0000 0.88530  0.23410  0.28660  Biso   1.000  H
  H30      1.0000 0.61470  0.73410  0.21340  Biso   1.000  H
  H31      1.0000 0.11470  0.76590  0.71340  Biso   1.000  H
  H32      1.0000 0.38530  0.26590  0.78660  Biso   1.000  H
  H33      1.0000 0.07920  0.15510  0.27780  Biso   1.000  H
  H34      1.0000 0.42080  0.65510  0.22220  Biso   1.000  H
  H35      1.0000 0.92080  0.84490  0.72220  Biso   1.000  H
  H36      1.0000 0.57920  0.34490  0.77780  Biso   1.000  H
  C29      1.0000 0.79750  0.09820  0.31152  Biso   1.000  C
  C30      1.0000 0.70250  0.59820  0.18848  Biso   1.000  C
  C31      1.0000 0.20250  0.90180  0.68848  Biso   1.000  C
  C32      1.0000 0.29750  0.40180  0.81152  Biso   1.000  C
  H37      1.0000 0.62970  0.11160  0.31120  Biso   1.000  H
  H38      1.0000 0.87030  0.61160  0.18880  Biso   1.000  H
  H39      1.0000 0.37030  0.88840  0.68880  Biso   1.000  H
  H40      1.0000 0.12970  0.38840  0.81120  Biso   1.000  H
  H41      1.0000 0.81760  0.03150  0.30100  Biso   1.000  H
  H42      1.0000 0.68240  0.53150  0.19900  Biso   1.000  H
  H43      1.0000 0.18240  0.96850  0.69900  Biso   1.000  H
  H44      1.0000 0.31760  0.46850  0.80100  Biso   1.000  H
  C33      1.0000 0.90280  0.10860  0.36167  Biso   1.000  C
  C34      1.0000 0.59720  0.60860  0.13833  Biso   1.000  C
  C35      1.0000 0.09720  0.89140  0.63833  Biso   1.000  C
  C36      1.0000 0.40280  0.39140  0.86167  Biso   1.000  C
  H45      1.0000 0.07300  0.10250  0.36210  Biso   1.000  H
  H46      1.0000 0.42700  0.60250  0.13790  Biso   1.000  H
  H47      1.0000 0.92700  0.89750  0.63790  Biso   1.000  H
  H48      1.0000 0.57300  0.39750  0.86210  Biso   1.000  H
  H49      1.0000 0.86460  0.17210  0.37430  Biso   1.000  H
  H50      1.0000 0.63540  0.67210  0.12570  Biso   1.000  H
  H51      1.0000 0.13540  0.82790  0.62570  Biso   1.000  H
  H52      1.0000 0.36460  0.32790  0.87430  Biso   1.000  H
  C37      1.0000 0.61080  0.04610  0.41580  Biso   1.000  C
  C38      1.0000 0.88920  0.54610  0.08420  Biso   1.000  C
  C39      1.0000 0.38920  0.95390  0.58420  Biso   1.000  C
  C40      1.0000 0.11080  0.45390  0.91580  Biso   1.000  C
  H53      1.0000 0.54880  0.10880  0.41720  Biso   1.000  H
  H54      1.0000 0.95120  0.60880  0.08280  Biso   1.000  H
  H55      1.0000 0.45120  0.89120  0.58280  Biso   1.000  H
  H56      1.0000 0.04880  0.39120  0.91720  Biso   1.000  H
  C41      1.0000 0.50640  0.97190  0.43922  Biso   1.000  C
  C42      1.0000 0.99360  0.47190  0.06078  Biso   1.000  C
  C43      1.0000 0.49360  0.02810  0.56078  Biso   1.000  C
  C44      1.0000 0.00640  0.52810  0.93922  Biso   1.000  C
  H57      1.0000 0.37380  0.98380  0.45620  Biso   1.000  H
  H58      1.0000 0.12620  0.48380  0.04380  Biso   1.000  H
  H59      1.0000 0.62620  0.01620  0.54380  Biso   1.000  H
  H60      1.0000 0.87380  0.51620  0.95620  Biso   1.000  H
  C45      1.0000 0.60090  0.87880  0.43732  Biso   1.000  C
  C46      1.0000 0.89910  0.37880  0.06268  Biso   1.000  C
  C47      1.0000 0.39910  0.12120  0.56268  Biso   1.000  C
  C48      1.0000 0.10090  0.62120  0.93732  Biso   1.000  C
  C49      1.0000 0.80120  0.86290  0.41215  Biso   1.000  C
  C50      1.0000 0.69880  0.36290  0.08785  Biso   1.000  C
  C51      1.0000 0.19880  0.13710  0.58785  Biso   1.000  C
  C52      1.0000 0.30120  0.63710  0.91215  Biso   1.000  C
  H61      1.0000 0.86850  0.80110  0.41100  Biso   1.000  H
  H62      1.0000 0.63150  0.30110  0.08900  Biso   1.000  H
  H63      1.0000 0.13150  0.19890  0.58900  Biso   1.000  H
  H64      1.0000 0.36850  0.69890  0.91100  Biso   1.000  H
  C53      1.0000 0.89660  0.93980  0.38924  Biso   1.000  C
  C54      1.0000 0.60340  0.43980  0.11076  Biso   1.000  C
  C55      1.0000 0.10340  0.06020  0.61076  Biso   1.000  C
  C56      1.0000 0.39660  0.56020  0.88924  Biso   1.000  C
  H65      1.0000 0.02990  0.92990  0.37220  Biso   1.000  H
  H66      1.0000 0.47010  0.42990  0.12780  Biso   1.000  H
  H67      1.0000 0.97010  0.07010  0.62780  Biso   1.000  H
  H68      1.0000 0.52990  0.57010  0.87220  Biso   1.000  H
  C57      1.0000 0.48510  0.79390  0.46087  Biso   1.000  C
  C58      1.0000 0.01490  0.29390  0.03913  Biso   1.000  C
  C59      1.0000 0.51490  0.20610  0.53913  Biso   1.000  C
  C60      1.0000 0.98510  0.70610  0.96087  Biso   1.000  C
