data_image0
_cell_length_a       9.456
_cell_length_b       14.966
_cell_length_c       18.166
_cell_angle_alpha    90
_cell_angle_beta     93.74
_cell_angle_gamma    90

_symmetry_space_group_name_H-M    "P 1"
_symmetry_int_tables_number       1

loop_
  _symmetry_equiv_pos_as_xyz
  'x, y, z'

loop_
  _atom_site_label
  _atom_site_occupancy
  _atom_site_fract_x
  _atom_site_fract_y
  _atom_site_fract_z
  _atom_site_thermal_displace_type
  _atom_site_B_iso_or_equiv
  _atom_site_type_symbol
  Dy1      1.0000 0.19570  0.58391  0.50058  Biso   1.000  Dy
  Dy2      1.0000 0.30430  0.08391  0.99942  Biso   1.000  Dy
  Dy3      1.0000 0.80430  0.41609  0.49942  Biso   1.000  Dy
  Dy4      1.0000 0.69570  0.91609  0.00058  Biso   1.000  Dy
  Cu1      1.0000 0.50000  0.00000  0.50000  Biso   1.000  Cu
  Cu2      1.0000 0.00000  0.50000  0.00000  Biso   1.000  Cu
  O1       1.0000 0.22800  0.43001  0.50421  Biso   1.000  O
  O2       1.0000 0.27200  0.93001  0.99579  Biso   1.000  O
  O3       1.0000 0.77200  0.56999  0.49579  Biso   1.000  O
  O4       1.0000 0.72800  0.06999  0.00421  Biso   1.000  O
  O5       1.0000 0.02740  0.35430  0.50973  Biso   1.000  O
  O6       1.0000 0.47260  0.85430  0.99027  Biso   1.000  O
  O7       1.0000 0.97260  0.64570  0.49027  Biso   1.000  O
  O8       1.0000 0.52740  0.14570  0.00973  Biso   1.000  O
  O9       1.0000 0.35810  0.94634  0.42852  Biso   1.000  O
  O10      1.0000 0.14190  0.44634  0.07148  Biso   1.000  O
  O11      1.0000 0.64190  0.05366  0.57148  Biso   1.000  O
  O12      1.0000 0.85810  0.55366  0.92852  Biso   1.000  O
  O13      1.0000 0.18450  0.87750  0.48600  Biso   1.000  O
  O14      1.0000 0.31550  0.37750  0.01400  Biso   1.000  O
  O15      1.0000 0.81550  0.12250  0.51400  Biso   1.000  O
  O16      1.0000 0.68450  0.62250  0.98600  Biso   1.000  O
  O17      1.0000 0.39640  0.56810  0.41742  Biso   1.000  O
  O18      1.0000 0.10360  0.06810  0.08258  Biso   1.000  O
  O19      1.0000 0.60360  0.43190  0.58258  Biso   1.000  O
  O20      1.0000 0.89640  0.93190  0.91742  Biso   1.000  O
  O21      1.0000 0.27260  0.69240  0.41176  Biso   1.000  O
  O22      1.0000 0.22740  0.19240  0.08824  Biso   1.000  O
  O23      1.0000 0.72740  0.30760  0.58824  Biso   1.000  O
  O24      1.0000 0.77260  0.80760  0.91176  Biso   1.000  O
  O25      1.0000 0.60520  0.95230  0.11110  Biso   1.000  O
  O26      1.0000 0.89480  0.45230  0.38890  Biso   1.000  O
  O27      1.0000 0.39480  0.04770  0.88890  Biso   1.000  O
  O28      1.0000 0.10520  0.54770  0.61110  Biso   1.000  O
  O29      1.0000 0.40930  0.03400  0.11044  Biso   1.000  O
  O30      1.0000 0.09070  0.53400  0.38956  Biso   1.000  O
  O31      1.0000 0.59070  0.96600  0.88956  Biso   1.000  O
  O32      1.0000 0.90930  0.46600  0.61044  Biso   1.000  O
  O33      1.0000 0.22160  0.72190  0.56835  Biso   1.000  O
  O34      1.0000 0.27840  0.22190  0.93165  Biso   1.000  O
  O35      1.0000 0.77840  0.27810  0.43165  Biso   1.000  O
  O36      1.0000 0.72160  0.77810  0.06835  Biso   1.000  O
  O37      1.0000 0.40680  0.57050  0.57715  Biso   1.000  O
  O38      1.0000 0.09320  0.07050  0.92285  Biso   1.000  O
  O39      1.0000 0.59320  0.42950  0.42285  Biso   1.000  O
  O40      1.0000 0.90680  0.92950  0.07715  Biso   1.000  O
  N1       1.0000 0.38630  0.11310  0.49738  Biso   1.000  N
  N2       1.0000 0.11370  0.61310  0.00262  Biso   1.000  N
  N3       1.0000 0.61370  0.88690  0.50262  Biso   1.000  N
  N4       1.0000 0.88630  0.38690  0.99738  Biso   1.000  N
  N5       1.0000 0.01450  0.87620  0.21730  Biso   1.000  N
  N6       1.0000 0.48550  0.37620  0.28270  Biso   1.000  N
  N7       1.0000 0.98550  0.12380  0.78270  Biso   1.000  N
  N8       1.0000 0.51450  0.62380  0.71730  Biso   1.000  N
  N9       1.0000 0.57560  0.72920  0.19690  Biso   1.000  N
  N10      1.0000 0.92440  0.22920  0.30310  Biso   1.000  N
  N11      1.0000 0.42440  0.27080  0.80310  Biso   1.000  N
  N12      1.0000 0.07560  0.77080  0.69690  Biso   1.000  N
  N13      1.0000 0.59170  0.04990  0.37220  Biso   1.000  N
  N14      1.0000 0.90830  0.54990  0.12780  Biso   1.000  N
  N15      1.0000 0.40830  0.95010  0.62780  Biso   1.000  N
  N16      1.0000 0.09170  0.45010  0.87220  Biso   1.000  N
  C1       1.0000 0.45330  0.19260  0.49820  Biso   1.000  C
  C2       1.0000 0.04670  0.69260  0.00180  Biso   1.000  C
  C3       1.0000 0.54670  0.80740  0.50180  Biso   1.000  C
  C4       1.0000 0.95330  0.30740  0.99820  Biso   1.000  C
  H1       1.0000 0.55170  0.19330  0.49880  Biso   1.000  H
  H2       1.0000 0.94830  0.69330  0.00120  Biso   1.000  H
  H3       1.0000 0.44830  0.80670  0.50120  Biso   1.000  H
  H4       1.0000 0.05170  0.30670  0.99880  Biso   1.000  H
  C5       1.0000 0.38280  0.27220  0.49830  Biso   1.000  C
  C6       1.0000 0.11720  0.77220  0.00170  Biso   1.000  C
  C7       1.0000 0.61720  0.72780  0.50170  Biso   1.000  C
  C8       1.0000 0.88280  0.22780  0.99830  Biso   1.000  C
  H5       1.0000 0.43290  0.32570  0.49870  Biso   1.000  H
  H6       1.0000 0.06710  0.82570  0.00130  Biso   1.000  H
  H7       1.0000 0.56710  0.67430  0.50130  Biso   1.000  H
  H8       1.0000 0.93290  0.17430  0.99870  Biso   1.000  H
  C9       1.0000 0.23660  0.27290  0.49790  Biso   1.000  C
  C10      1.0000 0.26340  0.77290  0.00210  Biso   1.000  C
  C11      1.0000 0.76340  0.72710  0.50210  Biso   1.000  C
  C12      1.0000 0.73660  0.22710  0.99790  Biso   1.000  C
  C13      1.0000 0.16490  0.19190  0.49430  Biso   1.000  C
  C14      1.0000 0.33510  0.69190  0.00570  Biso   1.000  C
  C15      1.0000 0.83510  0.80810  0.50570  Biso   1.000  C
  C16      1.0000 0.66490  0.30810  0.99430  Biso   1.000  C
  H9       1.0000 0.06640  0.19000  0.49190  Biso   1.000  H
  H10      1.0000 0.43360  0.69000  0.00810  Biso   1.000  H
  H11      1.0000 0.93360  0.81000  0.50810  Biso   1.000  H
  H12      1.0000 0.56640  0.31000  0.99190  Biso   1.000  H
  C17      1.0000 0.24420  0.11400  0.49440  Biso   1.000  C
  C18      1.0000 0.25580  0.61400  0.00560  Biso   1.000  C
  C19      1.0000 0.75580  0.88600  0.50560  Biso   1.000  C
  C20      1.0000 0.74420  0.38600  0.99440  Biso   1.000  C
  H13      1.0000 0.19640  0.05970  0.49240  Biso   1.000  H
  H14      1.0000 0.30360  0.55970  0.00760  Biso   1.000  H
  H15      1.0000 0.80360  0.94030  0.50760  Biso   1.000  H
  H16      1.0000 0.69640  0.44030  0.99240  Biso   1.000  H
  C21      1.0000 0.15740  0.35990  0.50380  Biso   1.000  C
  C22      1.0000 0.34260  0.85990  0.99620  Biso   1.000  C
  C23      1.0000 0.84260  0.64010  0.49620  Biso   1.000  C
  C24      1.0000 0.65740  0.14010  0.00380  Biso   1.000  C
  C25      1.0000 0.12880  0.92860  0.22800  Biso   1.000  C
  C26      1.0000 0.37120  0.42860  0.27200  Biso   1.000  C
  C27      1.0000 0.87120  0.07140  0.77200  Biso   1.000  C
  C28      1.0000 0.62880  0.57140  0.72800  Biso   1.000  C
  H17      1.0000 0.16160  0.95830  0.18750  Biso   1.000  H
  H18      1.0000 0.33840  0.45830  0.31250  Biso   1.000  H
  H19      1.0000 0.83840  0.04170  0.81250  Biso   1.000  H
  H20      1.0000 0.66160  0.54170  0.68750  Biso   1.000  H
  C29      1.0000 0.20080  0.94080  0.29610  Biso   1.000  C
  C30      1.0000 0.29920  0.44080  0.20390  Biso   1.000  C
  C31      1.0000 0.79920  0.05920  0.70390  Biso   1.000  C
  C32      1.0000 0.70080  0.55920  0.79610  Biso   1.000  C
  H21      1.0000 0.27750  0.97980  0.30080  Biso   1.000  H
  H22      1.0000 0.22250  0.47980  0.19920  Biso   1.000  H
  H23      1.0000 0.72250  0.02020  0.69920  Biso   1.000  H
  H24      1.0000 0.77750  0.52020  0.80080  Biso   1.000  H
  C33      1.0000 0.15910  0.89550  0.35640  Biso   1.000  C
  C34      1.0000 0.34090  0.39550  0.14360  Biso   1.000  C
  C35      1.0000 0.84090  0.10450  0.64360  Biso   1.000  C
  C36      1.0000 0.65910  0.60450  0.85640  Biso   1.000  C
  C37      1.0000 0.04350  0.83930  0.34630  Biso   1.000  C
  C38      1.0000 0.45650  0.33930  0.15370  Biso   1.000  C
  C39      1.0000 0.95650  0.16070  0.65370  Biso   1.000  C
  C40      1.0000 0.54350  0.66070  0.84630  Biso   1.000  C
  H25      1.0000 0.01170  0.80690  0.38570  Biso   1.000  H
  H26      1.0000 0.48830  0.30690  0.11430  Biso   1.000  H
  H27      1.0000 0.98830  0.19310  0.61430  Biso   1.000  H
  H28      1.0000 0.51170  0.69310  0.88570  Biso   1.000  H
  C41      1.0000 0.97580  0.83190  0.27680  Biso   1.000  C
  C42      1.0000 0.52420  0.33190  0.22320  Biso   1.000  C
  C43      1.0000 0.02420  0.16810  0.72320  Biso   1.000  C
  C44      1.0000 0.47580  0.66810  0.77680  Biso   1.000  C
  H29      1.0000 0.89840  0.79360  0.27090  Biso   1.000  H
  H30      1.0000 0.60160  0.29360  0.22910  Biso   1.000  H
  H31      1.0000 0.10160  0.20640  0.72910  Biso   1.000  H
  H32      1.0000 0.39840  0.70640  0.77090  Biso   1.000  H
  C45      1.0000 0.23950  0.90680  0.43070  Biso   1.000  C
  C46      1.0000 0.26050  0.40680  0.06930  Biso   1.000  C
  C47      1.0000 0.76050  0.09320  0.56930  Biso   1.000  C
  C48      1.0000 0.73950  0.59320  0.93070  Biso   1.000  C
  C49      1.0000 0.63220  0.66810  0.24350  Biso   1.000  C
  C50      1.0000 0.86780  0.16810  0.25650  Biso   1.000  C
  C51      1.0000 0.36780  0.33190  0.75650  Biso   1.000  C
  C52      1.0000 0.13220  0.83190  0.74350  Biso   1.000  C
  H33      1.0000 0.72000  0.64440  0.23370  Biso   1.000  H
  H34      1.0000 0.78000  0.14440  0.26630  Biso   1.000  H
  H35      1.0000 0.28000  0.35560  0.76630  Biso   1.000  H
  H36      1.0000 0.22000  0.85560  0.73370  Biso   1.000  H
  C53      1.0000 0.56970  0.63760  0.30520  Biso   1.000  C
  C54      1.0000 0.93030  0.13760  0.19480  Biso   1.000  C
  C55      1.0000 0.43030  0.36240  0.69480  Biso   1.000  C
  C56      1.0000 0.06970  0.86240  0.80520  Biso   1.000  C
  H37      1.0000 0.61480  0.59500  0.33570  Biso   1.000  H
  H38      1.0000 0.88520  0.09500  0.16430  Biso   1.000  H
  H39      1.0000 0.38520  0.40500  0.66430  Biso   1.000  H
  H40      1.0000 0.11480  0.90500  0.83570  Biso   1.000  H
  C57      1.0000 0.43970  0.67120  0.32100  Biso   1.000  C
  C58      1.0000 0.06030  0.17120  0.17900  Biso   1.000  C
  C59      1.0000 0.56030  0.32880  0.67900  Biso   1.000  C
  C60      1.0000 0.93970  0.82880  0.82100  Biso   1.000  C
  C61      1.0000 0.37800  0.73400  0.27300  Biso   1.000  C
  C62      1.0000 0.12200  0.23400  0.22700  Biso   1.000  C
  C63      1.0000 0.62200  0.26600  0.72700  Biso   1.000  C
  C64      1.0000 0.87800  0.76600  0.77300  Biso   1.000  C
  H41      1.0000 0.29010  0.75840  0.28140  Biso   1.000  H
  H42      1.0000 0.20990  0.25840  0.21860  Biso   1.000  H
  H43      1.0000 0.70990  0.24160  0.71860  Biso   1.000  H
  H44      1.0000 0.79010  0.74160  0.78140  Biso   1.000  H
  C65      1.0000 0.44880  0.75990  0.21220  Biso   1.000  C
  C66      1.0000 0.05120  0.25990  0.28780  Biso   1.000  C
  C67      1.0000 0.55120  0.24010  0.78780  Biso   1.000  C
  C68      1.0000 0.94880  0.74010  0.71220  Biso   1.000  C
  H45      1.0000 0.40510  0.80140  0.18010  Biso   1.000  H
  H46      1.0000 0.09490  0.30140  0.31990  Biso   1.000  H
  H47      1.0000 0.59490  0.19860  0.81990  Biso   1.000  H
  H48      1.0000 0.90510  0.69860  0.68010  Biso   1.000  H
  C69      1.0000 0.36600  0.64280  0.38780  Biso   1.000  C
  C70      1.0000 0.13400  0.14280  0.11220  Biso   1.000  C
  C71      1.0000 0.63400  0.35720  0.61220  Biso   1.000  C
  C72      1.0000 0.86600  0.85720  0.88780  Biso   1.000  C
  C73      1.0000 0.65680  0.98660  0.33840  Biso   1.000  C
  C74      1.0000 0.84320  0.48660  0.16160  Biso   1.000  C
  C75      1.0000 0.34320  0.01340  0.66160  Biso   1.000  C
  C76      1.0000 0.15680  0.51340  0.83840  Biso   1.000  C
  H49      1.0000 0.71870  0.95050  0.36710  Biso   1.000  H
  H50      1.0000 0.78130  0.45050  0.13290  Biso   1.000  H
  H51      1.0000 0.28130  0.04950  0.63290  Biso   1.000  H
  H52      1.0000 0.21870  0.54950  0.86710  Biso   1.000  H
  C77      1.0000 0.64180  0.96890  0.26440  Biso   1.000  C
  C78      1.0000 0.85820  0.46890  0.23560  Biso   1.000  C
  C79      1.0000 0.35820  0.03110  0.73560  Biso   1.000  C
  C80      1.0000 0.14180  0.53110  0.76440  Biso   1.000  C
  H53      1.0000 0.69300  0.92330  0.24380  Biso   1.000  H
  H54      1.0000 0.80700  0.42330  0.25620  Biso   1.000  H
  H55      1.0000 0.30700  0.07670  0.75620  Biso   1.000  H
  H56      1.0000 0.19300  0.57670  0.74380  Biso   1.000  H
  C81      1.0000 0.54860  0.02070  0.22150  Biso   1.000  C
  C82      1.0000 0.95140  0.52070  0.27850  Biso   1.000  C
  C83      1.0000 0.45140  0.97930  0.77850  Biso   1.000  C
  C84      1.0000 0.04860  0.47930  0.72150  Biso   1.000  C
  C85      1.0000 0.48100  0.09030  0.25470  Biso   1.000  C
  C86      1.0000 0.01900  0.59030  0.24530  Biso   1.000  C
  C87      1.0000 0.51900  0.90970  0.74530  Biso   1.000  C
  C88      1.0000 0.98100  0.40970  0.75470  Biso   1.000  C
  H57      1.0000 0.41880  0.12770  0.22750  Biso   1.000  H
  H58      1.0000 0.08120  0.62770  0.27250  Biso   1.000  H
  H59      1.0000 0.58120  0.87230  0.77250  Biso   1.000  H
  H60      1.0000 0.91880  0.37230  0.72750  Biso   1.000  H
  C89      1.0000 0.50880  0.10260  0.32960  Biso   1.000  C
  C90      1.0000 0.99120  0.60260  0.17040  Biso   1.000  C
  C91      1.0000 0.49120  0.89740  0.67040  Biso   1.000  C
  C92      1.0000 0.00880  0.39740  0.82960  Biso   1.000  C
  H61      1.0000 0.46660  0.15100  0.35160  Biso   1.000  H
  H62      1.0000 0.03340  0.65100  0.14840  Biso   1.000  H
  H63      1.0000 0.53340  0.84900  0.64840  Biso   1.000  H
  H64      1.0000 0.96660  0.34900  0.85160  Biso   1.000  H
  C93      1.0000 0.51850  0.00130  0.14070  Biso   1.000  C
  C94      1.0000 0.98150  0.50130  0.35930  Biso   1.000  C
  C95      1.0000 0.48150  0.99870  0.85930  Biso   1.000  C
  C96      1.0000 0.01850  0.49870  0.64070  Biso   1.000  C
  H65      1.0000 0.22300  0.76830  0.54500  Biso   1.000  H
  H66      1.0000 0.27700  0.26830  0.95500  Biso   1.000  H
  H67      1.0000 0.77700  0.23170  0.45500  Biso   1.000  H
  H68      1.0000 0.72300  0.73170  0.04500  Biso   1.000  H
  H69      1.0000 0.17800  0.73400  0.60430  Biso   1.000  H
  H70      1.0000 0.32200  0.23400  0.89570  Biso   1.000  H
  H71      1.0000 0.82200  0.26600  0.39570  Biso   1.000  H
  H72      1.0000 0.67800  0.76600  0.10430  Biso   1.000  H
  H73      1.0000 0.46800  0.53300  0.57200  Biso   1.000  H
  H74      1.0000 0.03200  0.03300  0.92800  Biso   1.000  H
  H75      1.0000 0.53200  0.46700  0.42800  Biso   1.000  H
  H76      1.0000 0.96800  0.96700  0.07200  Biso   1.000  H
  H77      1.0000 0.43300  0.59200  0.61690  Biso   1.000  H
  H78      1.0000 0.06700  0.09200  0.88310  Biso   1.000  H
  H79      1.0000 0.56700  0.40800  0.38310  Biso   1.000  H
  H80      1.0000 0.93300  0.90800  0.11690  Biso   1.000  H
