data_image0
_cell_length_a       8.7554
_cell_length_b       17.94
_cell_length_c       16.116
_cell_angle_alpha    90
_cell_angle_beta     104.65
_cell_angle_gamma    90

_symmetry_space_group_name_H-M    "P 1"
_symmetry_int_tables_number       1

loop_
  _symmetry_equiv_pos_as_xyz
  'x, y, z'

loop_
  _atom_site_label
  _atom_site_occupancy
  _atom_site_fract_x
  _atom_site_fract_y
  _atom_site_fract_z
  _atom_site_thermal_displace_type
  _atom_site_B_iso_or_equiv
  _atom_site_type_symbol
  C1       1.0000 0.93720  0.14907  0.89714  Biso   1.000  C
  C2       1.0000 0.56280  0.64907  0.60286  Biso   1.000  C
  C3       1.0000 0.06280  0.85093  0.10286  Biso   1.000  C
  C4       1.0000 0.43720  0.35093  0.39714  Biso   1.000  C
  C5       1.0000 0.04620  0.09492  0.95080  Biso   1.000  C
  C6       1.0000 0.45380  0.59492  0.54920  Biso   1.000  C
  C7       1.0000 0.95380  0.90508  0.04920  Biso   1.000  C
  C8       1.0000 0.54620  0.40508  0.45080  Biso   1.000  C
  H1       1.0000 0.99510  0.07160  0.99020  Biso   1.000  H
  H2       1.0000 0.50490  0.57160  0.50980  Biso   1.000  H
  H3       1.0000 0.00490  0.92840  0.00980  Biso   1.000  H
  H4       1.0000 0.49510  0.42840  0.49020  Biso   1.000  H
  H5       1.0000 0.13940  0.12030  0.98220  Biso   1.000  H
  H6       1.0000 0.36060  0.62030  0.51780  Biso   1.000  H
  H7       1.0000 0.86060  0.87970  0.01780  Biso   1.000  H
  H8       1.0000 0.63940  0.37970  0.48220  Biso   1.000  H
  H9       1.0000 0.07480  0.05760  0.91470  Biso   1.000  H
  H10      1.0000 0.42520  0.55760  0.58530  Biso   1.000  H
  H11      1.0000 0.92520  0.94240  0.08530  Biso   1.000  H
  H12      1.0000 0.57480  0.44240  0.41470  Biso   1.000  H
  C9       1.0000 0.71570  0.20710  0.83690  Biso   1.000  C
  C10      1.0000 0.78430  0.70710  0.66310  Biso   1.000  C
  C11      1.0000 0.28430  0.79290  0.16310  Biso   1.000  C
  C12      1.0000 0.21570  0.29290  0.33690  Biso   1.000  C
  H13      1.0000 0.60980  0.22070  0.82100  Biso   1.000  H
  H14      1.0000 0.89020  0.72070  0.67900  Biso   1.000  H
  H15      1.0000 0.39020  0.77930  0.17900  Biso   1.000  H
  H16      1.0000 0.10980  0.27930  0.32100  Biso   1.000  H
  C13      1.0000 0.83540  0.23935  0.81210  Biso   1.000  C
  C14      1.0000 0.66460  0.73935  0.68790  Biso   1.000  C
  C15      1.0000 0.16460  0.76065  0.18790  Biso   1.000  C
  C16      1.0000 0.33540  0.26065  0.31210  Biso   1.000  C
  H17      1.0000 0.82600  0.27990  0.77520  Biso   1.000  H
  H18      1.0000 0.67400  0.77990  0.72480  Biso   1.000  H
  H19      1.0000 0.17400  0.72010  0.22480  Biso   1.000  H
  H20      1.0000 0.32600  0.22010  0.27520  Biso   1.000  H
  C17      1.0000 0.14160  0.29497  0.00860  Biso   1.000  C
  C18      1.0000 0.35840  0.79497  0.49140  Biso   1.000  C
  C19      1.0000 0.85840  0.70503  0.99140  Biso   1.000  C
  C20      1.0000 0.64160  0.20503  0.50860  Biso   1.000  C
  H21      1.0000 0.03520  0.30510  0.98520  Biso   1.000  H
  H22      1.0000 0.46480  0.80510  0.51480  Biso   1.000  H
  H23      1.0000 0.96480  0.69490  0.01480  Biso   1.000  H
  H24      1.0000 0.53520  0.19490  0.48520  Biso   1.000  H
  C21      1.0000 0.22150  0.30960  0.08970  Biso   1.000  C
  C22      1.0000 0.27850  0.80960  0.41030  Biso   1.000  C
  C23      1.0000 0.77850  0.69040  0.91030  Biso   1.000  C
  C24      1.0000 0.72150  0.19040  0.58970  Biso   1.000  C
  H25      1.0000 0.18190  0.33150  0.13220  Biso   1.000  H
  H26      1.0000 0.31810  0.83150  0.36780  Biso   1.000  H
  H27      1.0000 0.81810  0.66850  0.86780  Biso   1.000  H
  H28      1.0000 0.68190  0.16850  0.63220  Biso   1.000  H
  C25      1.0000 0.38210  0.25763  0.02174  Biso   1.000  C
  C26      1.0000 0.11790  0.75763  0.47826  Biso   1.000  C
  C27      1.0000 0.61790  0.74237  0.97826  Biso   1.000  C
  C28      1.0000 0.88210  0.24237  0.52174  Biso   1.000  C
  C29      1.0000 0.52770  0.22510  0.00700  Biso   1.000  C
  C30      1.0000 0.97230  0.72510  0.49300  Biso   1.000  C
  C31      1.0000 0.47230  0.77490  0.99300  Biso   1.000  C
  C32      1.0000 0.02770  0.27490  0.50700  Biso   1.000  C
  H29      1.0000 0.59760  0.21160  0.06100  Biso   1.000  H
  H30      1.0000 0.90240  0.71160  0.43900  Biso   1.000  H
  H31      1.0000 0.40240  0.78840  0.93900  Biso   1.000  H
  H32      1.0000 0.09760  0.28840  0.56100  Biso   1.000  H
  H33      1.0000 0.57840  0.26090  0.97880  Biso   1.000  H
  H34      1.0000 0.92160  0.76090  0.52120  Biso   1.000  H
  H35      1.0000 0.42160  0.73910  0.02120  Biso   1.000  H
  H36      1.0000 0.07840  0.23910  0.47880  Biso   1.000  H
  H37      1.0000 0.50170  0.18150  0.97170  Biso   1.000  H
  H38      1.0000 0.99830  0.68150  0.52830  Biso   1.000  H
  H39      1.0000 0.49830  0.81850  0.02830  Biso   1.000  H
  H40      1.0000 0.00170  0.31850  0.47170  Biso   1.000  H
  C33      1.0000 0.30970  0.34777  0.78098  Biso   1.000  C
  C34      1.0000 0.19030  0.84777  0.71902  Biso   1.000  C
  C35      1.0000 0.69030  0.65223  0.21902  Biso   1.000  C
  C36      1.0000 0.80970  0.15223  0.28098  Biso   1.000  C
  C37      1.0000 0.43140  0.40035  0.76376  Biso   1.000  C
  C38      1.0000 0.06860  0.90035  0.73624  Biso   1.000  C
  C39      1.0000 0.56860  0.59965  0.23624  Biso   1.000  C
  C40      1.0000 0.93140  0.09965  0.26376  Biso   1.000  C
  C41      1.0000 0.53410  0.37354  0.71720  Biso   1.000  C
  C42      1.0000 0.96590  0.87354  0.78280  Biso   1.000  C
  C43      1.0000 0.46590  0.62646  0.28280  Biso   1.000  C
  C44      1.0000 0.03410  0.12646  0.21720  Biso   1.000  C
  H41      1.0000 0.52260  0.32500  0.69640  Biso   1.000  H
  H42      1.0000 0.97740  0.82500  0.80360  Biso   1.000  H
  H43      1.0000 0.47740  0.67500  0.30360  Biso   1.000  H
  H44      1.0000 0.02260  0.17500  0.19640  Biso   1.000  H
  C45      1.0000 0.65310  0.41790  0.70150  Biso   1.000  C
  C46      1.0000 0.84690  0.91790  0.79850  Biso   1.000  C
  C47      1.0000 0.34690  0.58210  0.29850  Biso   1.000  C
  C48      1.0000 0.15310  0.08210  0.20150  Biso   1.000  C
  H45      1.0000 0.72010  0.39940  0.66990  Biso   1.000  H
  H46      1.0000 0.77990  0.89940  0.83010  Biso   1.000  H
  H47      1.0000 0.27990  0.60060  0.33010  Biso   1.000  H
  H48      1.0000 0.22010  0.10060  0.16990  Biso   1.000  H
  C49      1.0000 0.67150  0.48930  0.73280  Biso   1.000  C
  C50      1.0000 0.82850  0.98930  0.76720  Biso   1.000  C
  C51      1.0000 0.32850  0.51070  0.26720  Biso   1.000  C
  C52      1.0000 0.17150  0.01070  0.23280  Biso   1.000  C
  H49      1.0000 0.75280  0.51890  0.72360  Biso   1.000  H
  H50      1.0000 0.74720  0.01890  0.77640  Biso   1.000  H
  H51      1.0000 0.24720  0.48110  0.27640  Biso   1.000  H
  H52      1.0000 0.25280  0.98110  0.22360  Biso   1.000  H
  C53      1.0000 0.56910  0.51740  0.77810  Biso   1.000  C
  C54      1.0000 0.93090  0.01740  0.72190  Biso   1.000  C
  C55      1.0000 0.43090  0.48260  0.22190  Biso   1.000  C
  C56      1.0000 0.06910  0.98260  0.27810  Biso   1.000  C
  H53      1.0000 0.58170  0.56620  0.79810  Biso   1.000  H
  H54      1.0000 0.91830  0.06620  0.70190  Biso   1.000  H
  H55      1.0000 0.41830  0.43380  0.20190  Biso   1.000  H
  H56      1.0000 0.08170  0.93380  0.29810  Biso   1.000  H
  C57      1.0000 0.44730  0.47388  0.79433  Biso   1.000  C
  C58      1.0000 0.05270  0.97388  0.70567  Biso   1.000  C
  C59      1.0000 0.55270  0.52612  0.20567  Biso   1.000  C
  C60      1.0000 0.94730  0.02612  0.29433  Biso   1.000  C
  C61      1.0000 0.34900  0.50494  0.84949  Biso   1.000  C
  C62      1.0000 0.15100  0.00494  0.65051  Biso   1.000  C
  C63      1.0000 0.65100  0.49506  0.15051  Biso   1.000  C
  C64      1.0000 0.84900  0.99506  0.34949  Biso   1.000  C
  C65      1.0000 0.33390  0.46496  0.92179  Biso   1.000  C
  C66      1.0000 0.16610  0.96496  0.57821  Biso   1.000  C
  C67      1.0000 0.66610  0.53504  0.07821  Biso   1.000  C
  C68      1.0000 0.83390  0.03504  0.42179  Biso   1.000  C
  H57      1.0000 0.37930  0.41790  0.93220  Biso   1.000  H
  H58      1.0000 0.12070  0.91790  0.56780  Biso   1.000  H
  H59      1.0000 0.62070  0.58210  0.06780  Biso   1.000  H
  H60      1.0000 0.87930  0.08210  0.43220  Biso   1.000  H
  C69      1.0000 0.25310  0.49380  0.97810  Biso   1.000  C
  C70      1.0000 0.24690  0.99380  0.52190  Biso   1.000  C
  C71      1.0000 0.74690  0.50620  0.02190  Biso   1.000  C
  C72      1.0000 0.75310  0.00620  0.47810  Biso   1.000  C
  H61      1.0000 0.24250  0.46590  0.02490  Biso   1.000  H
  H62      1.0000 0.25750  0.96590  0.47510  Biso   1.000  H
  H63      1.0000 0.75750  0.53410  0.97510  Biso   1.000  H
  H64      1.0000 0.74250  0.03410  0.52490  Biso   1.000  H
  C73      1.0000 0.18890  0.56370  0.96450  Biso   1.000  C
  C74      1.0000 0.31110  0.06370  0.53550  Biso   1.000  C
  C75      1.0000 0.81110  0.43630  0.03550  Biso   1.000  C
  C76      1.0000 0.68890  0.93630  0.46450  Biso   1.000  C
  H65      1.0000 0.13510  0.58340  0.00240  Biso   1.000  H
  H66      1.0000 0.36490  0.08340  0.49760  Biso   1.000  H
  H67      1.0000 0.86490  0.41660  0.99760  Biso   1.000  H
  H68      1.0000 0.63510  0.91660  0.50240  Biso   1.000  H
  C77      1.0000 0.20400  0.60497  0.89460  Biso   1.000  C
  C78      1.0000 0.29600  0.10497  0.60540  Biso   1.000  C
  C79      1.0000 0.79600  0.39503  0.10540  Biso   1.000  C
  C80      1.0000 0.70400  0.89503  0.39460  Biso   1.000  C
  H69      1.0000 0.16150  0.65270  0.88630  Biso   1.000  H
  H70      1.0000 0.33850  0.15270  0.61370  Biso   1.000  H
  H71      1.0000 0.83850  0.34730  0.11370  Biso   1.000  H
  H72      1.0000 0.66150  0.84730  0.38630  Biso   1.000  H
  C81      1.0000 0.28150  0.57618  0.83676  Biso   1.000  C
  C82      1.0000 0.21850  0.07618  0.66324  Biso   1.000  C
  C83      1.0000 0.71850  0.42382  0.16324  Biso   1.000  C
  C84      1.0000 0.78150  0.92382  0.33676  Biso   1.000  C
  C85      1.0000 0.28220  0.62358  0.75948  Biso   1.000  C
  C86      1.0000 0.21780  0.12358  0.74052  Biso   1.000  C
  C87      1.0000 0.71780  0.37642  0.24052  Biso   1.000  C
  C88      1.0000 0.78220  0.87642  0.25948  Biso   1.000  C
  N1       1.0000 0.24240  0.26251  0.96545  Biso   1.000  N
  N2       1.0000 0.25760  0.76251  0.53455  Biso   1.000  N
  N3       1.0000 0.75760  0.73749  0.03455  Biso   1.000  N
  N4       1.0000 0.74240  0.23749  0.46545  Biso   1.000  N
  N5       1.0000 0.37180  0.28605  0.09724  Biso   1.000  N
  N6       1.0000 0.12820  0.78605  0.40276  Biso   1.000  N
  N7       1.0000 0.62820  0.71395  0.90276  Biso   1.000  N
  N8       1.0000 0.87180  0.21395  0.59724  Biso   1.000  N
  H73      1.0000 0.44790  0.28890  0.14290  Biso   1.000  H
  H74      1.0000 0.05210  0.78890  0.35710  Biso   1.000  H
  H75      1.0000 0.55210  0.71110  0.85710  Biso   1.000  H
  H76      1.0000 0.94790  0.21110  0.64290  Biso   1.000  H
  N9       1.0000 0.97410  0.20308  0.84973  Biso   1.000  N
  N10      1.0000 0.52590  0.70308  0.65027  Biso   1.000  N
  N11      1.0000 0.02590  0.79692  0.15027  Biso   1.000  N
  N12      1.0000 0.47410  0.29692  0.34973  Biso   1.000  N
  N13      1.0000 0.78140  0.15028  0.89015  Biso   1.000  N
  N14      1.0000 0.71860  0.65028  0.60985  Biso   1.000  N
  N15      1.0000 0.21860  0.84972  0.10985  Biso   1.000  N
  N16      1.0000 0.28140  0.34972  0.39015  Biso   1.000  N
  H77      1.0000 0.73110  0.12010  0.91520  Biso   1.000  H
  H78      1.0000 0.76890  0.62010  0.58480  Biso   1.000  H
  H79      1.0000 0.26890  0.87990  0.08480  Biso   1.000  H
  H80      1.0000 0.23110  0.37990  0.41520  Biso   1.000  H
  O1       1.0000 0.16630  0.36111  0.75780  Biso   1.000  O
  O2       1.0000 0.33370  0.86111  0.74220  Biso   1.000  O
  O3       1.0000 0.83370  0.63889  0.24220  Biso   1.000  O
  O4       1.0000 0.66630  0.13889  0.25780  Biso   1.000  O
  O5       1.0000 0.36440  0.28816  0.82080  Biso   1.000  O
  O6       1.0000 0.13560  0.78816  0.67920  Biso   1.000  O
  O7       1.0000 0.63560  0.71184  0.17920  Biso   1.000  O
  O8       1.0000 0.86440  0.21184  0.32080  Biso   1.000  O
  O9       1.0000 0.67600  0.03831  0.97700  Biso   1.000  O
  O10      1.0000 0.82400  0.53831  0.52300  Biso   1.000  O
  O11      1.0000 0.32400  0.96169  0.02300  Biso   1.000  O
  O12      1.0000 0.17600  0.46169  0.47700  Biso   1.000  O
  O13      1.0000 0.21460  0.60283  0.68615  Biso   1.000  O
  O14      1.0000 0.28540  0.10283  0.81385  Biso   1.000  O
  O15      1.0000 0.78540  0.39717  0.31385  Biso   1.000  O
  O16      1.0000 0.71460  0.89717  0.18615  Biso   1.000  O
  O17      1.0000 0.07700  0.46838  0.63200  Biso   1.000  O
  O18      1.0000 0.42300  0.96838  0.86800  Biso   1.000  O
  O19      1.0000 0.92300  0.53162  0.36800  Biso   1.000  O
  O20      1.0000 0.57700  0.03162  0.13200  Biso   1.000  O
  O21      1.0000 0.35030  0.68677  0.77385  Biso   1.000  O
  O22      1.0000 0.14970  0.18677  0.72615  Biso   1.000  O
  O23      1.0000 0.64970  0.31323  0.22615  Biso   1.000  O
  O24      1.0000 0.85030  0.81323  0.27385  Biso   1.000  O
  Cu1      1.0000 0.18444  0.23430  0.84172  Biso   1.000  Cu
  Cu2      1.0000 0.31556  0.73430  0.65828  Biso   1.000  Cu
  Cu3      1.0000 0.81556  0.76570  0.15828  Biso   1.000  Cu
  Cu4      1.0000 0.68444  0.26570  0.34172  Biso   1.000  Cu
  H81      1.0000 0.65700  0.04000  0.02520  Biso   1.000  H
  H82      1.0000 0.84300  0.54000  0.47480  Biso   1.000  H
  H83      1.0000 0.34300  0.96000  0.97480  Biso   1.000  H
  H84      1.0000 0.15700  0.46000  0.52520  Biso   1.000  H
  H85      1.0000 0.61300  0.01070  0.94260  Biso   1.000  H
  H86      1.0000 0.88700  0.51070  0.55740  Biso   1.000  H
  H87      1.0000 0.38700  0.98930  0.05740  Biso   1.000  H
  H88      1.0000 0.11300  0.48930  0.44260  Biso   1.000  H
  H89      1.0000 0.09800  0.43600  0.67110  Biso   1.000  H
  H90      1.0000 0.40200  0.93600  0.82890  Biso   1.000  H
  H91      1.0000 0.90200  0.56400  0.32890  Biso   1.000  H
  H92      1.0000 0.59800  0.06400  0.17110  Biso   1.000  H
  H93      1.0000 0.11700  0.51010  0.65300  Biso   1.000  H
  H94      1.0000 0.38300  0.01010  0.84700  Biso   1.000  H
  H95      1.0000 0.88300  0.48990  0.34700  Biso   1.000  H
  H96      1.0000 0.61700  0.98990  0.15300  Biso   1.000  H
