data_image0
_cell_length_a       13.8225
_cell_length_b       22.7652
_cell_length_c       14.805
_cell_angle_alpha    90
_cell_angle_beta     111.032
_cell_angle_gamma    90

_symmetry_space_group_name_H-M    "P 1"
_symmetry_int_tables_number       1

loop_
  _symmetry_equiv_pos_as_xyz
  'x, y, z'

loop_
  _atom_site_label
  _atom_site_occupancy
  _atom_site_fract_x
  _atom_site_fract_y
  _atom_site_fract_z
  _atom_site_thermal_displace_type
  _atom_site_B_iso_or_equiv
  _atom_site_type_symbol
  W1       1.0000 0.03046  0.66953  0.49054  Biso   1.000  W
  W2       1.0000 0.96954  0.16953  0.50946  Biso   1.000  W
  W3       1.0000 0.96954  0.33047  0.50946  Biso   1.000  W
  W4       1.0000 0.03046  0.83047  0.49054  Biso   1.000  W
  W5       1.0000 0.06231  0.66885  0.24928  Biso   1.000  W
  W6       1.0000 0.93769  0.16885  0.75072  Biso   1.000  W
  W7       1.0000 0.93769  0.33115  0.75072  Biso   1.000  W
  W8       1.0000 0.06231  0.83115  0.24928  Biso   1.000  W
  W9       1.0000 0.56314  0.67573  0.28499  Biso   1.000  W
  W10      1.0000 0.43686  0.17573  0.71501  Biso   1.000  W
  W11      1.0000 0.43686  0.32427  0.71501  Biso   1.000  W
  W12      1.0000 0.56314  0.82427  0.28499  Biso   1.000  W
  W13      1.0000 0.59469  0.67576  0.04413  Biso   1.000  W
  W14      1.0000 0.40531  0.17576  0.95587  Biso   1.000  W
  W15      1.0000 0.40531  0.32424  0.95587  Biso   1.000  W
  W16      1.0000 0.59469  0.82424  0.04413  Biso   1.000  W
  W17      1.0000 0.92263  0.75000  0.64994  Biso   1.000  W
  W18      1.0000 0.07737  0.25000  0.35006  Biso   1.000  W
  W19      1.0000 0.83960  0.59463  0.15117  Biso   1.000  W
  W20      1.0000 0.16040  0.09463  0.84883  Biso   1.000  W
  W21      1.0000 0.16040  0.40537  0.84883  Biso   1.000  W
  W22      1.0000 0.83960  0.90537  0.15117  Biso   1.000  W
  W23      1.0000 0.80743  0.59500  0.39190  Biso   1.000  W
  W24      1.0000 0.19257  0.09500  0.60810  Biso   1.000  W
  W25      1.0000 0.19257  0.40500  0.60810  Biso   1.000  W
  W26      1.0000 0.80743  0.90500  0.39190  Biso   1.000  W
  W27      1.0000 0.78485  0.67606  0.92109  Biso   1.000  W
  W28      1.0000 0.21515  0.17606  0.07891  Biso   1.000  W
  W29      1.0000 0.21515  0.32394  0.07891  Biso   1.000  W
  W30      1.0000 0.78485  0.82394  0.92109  Biso   1.000  W
  W31      1.0000 0.69871  0.67554  0.55086  Biso   1.000  W
  W32      1.0000 0.30129  0.17554  0.44914  Biso   1.000  W
  W33      1.0000 0.30129  0.32446  0.44914  Biso   1.000  W
  W34      1.0000 0.69871  0.82446  0.55086  Biso   1.000  W
  W35      1.0000 0.00976  0.75000  0.01915  Biso   1.000  W
  W36      1.0000 0.99024  0.25000  0.98085  Biso   1.000  W
  P1       1.0000 0.83290  0.75000  0.14100  Biso   1.000  P
  P2       1.0000 0.16710  0.25000  0.85900  Biso   1.000  P
  P3       1.0000 0.79930  0.75000  0.39510  Biso   1.000  P
  P4       1.0000 0.20070  0.25000  0.60490  Biso   1.000  P
  O1       1.0000 0.67470  0.62330  0.31140  Biso   1.000  O
  O2       1.0000 0.32530  0.12330  0.68860  Biso   1.000  O
  O3       1.0000 0.32530  0.37670  0.68860  Biso   1.000  O
  O4       1.0000 0.67470  0.87670  0.31140  Biso   1.000  O
  O5       1.0000 0.06170  0.75000  0.47960  Biso   1.000  O
  O6       1.0000 0.93830  0.25000  0.52040  Biso   1.000  O
  O7       1.0000 0.00930  0.75000  0.76640  Biso   1.000  O
  O8       1.0000 0.99070  0.25000  0.23360  Biso   1.000  O
  O9       1.0000 0.49480  0.75000  0.27170  Biso   1.000  O
  O10      1.0000 0.50520  0.25000  0.72830  Biso   1.000  O
  O11      1.0000 0.98000  0.69380  0.58910  Biso   1.000  O
  O12      1.0000 0.02000  0.19380  0.41090  Biso   1.000  O
  O13      1.0000 0.02000  0.30620  0.41090  Biso   1.000  O
  O14      1.0000 0.98000  0.80620  0.58910  Biso   1.000  O
  O15      1.0000 0.70000  0.62340  0.11170  Biso   1.000  O
  O16      1.0000 0.30000  0.12340  0.88830  Biso   1.000  O
  O17      1.0000 0.30000  0.37660  0.88830  Biso   1.000  O
  O18      1.0000 0.70000  0.87660  0.11170  Biso   1.000  O
  O19      1.0000 0.71530  0.75000  0.12030  Biso   1.000  O
  O20      1.0000 0.28470  0.25000  0.87970  Biso   1.000  O
  O21      1.0000 0.04610  0.69350  0.11880  Biso   1.000  O
  O22      1.0000 0.95390  0.19350  0.88120  Biso   1.000  O
  O23      1.0000 0.95390  0.30650  0.88120  Biso   1.000  O
  O24      1.0000 0.04610  0.80650  0.11880  Biso   1.000  O
  O25      1.0000 0.66220  0.68120  0.95030  Biso   1.000  O
  O26      1.0000 0.33780  0.18120  0.04970  Biso   1.000  O
  O27      1.0000 0.33780  0.31880  0.04970  Biso   1.000  O
  O28      1.0000 0.66220  0.81880  0.95030  Biso   1.000  O
  O29      1.0000 0.08270  0.75000  0.27920  Biso   1.000  O
  O30      1.0000 0.91730  0.25000  0.72080  Biso   1.000  O
  O31      1.0000 0.53030  0.75000  0.99820  Biso   1.000  O
  O32      1.0000 0.46970  0.25000  0.00180  Biso   1.000  O
  O33      1.0000 0.69070  0.75000  0.31780  Biso   1.000  O
  O34      1.0000 0.30930  0.25000  0.68220  Biso   1.000  O
  O35      1.0000 0.74790  0.75000  0.85520  Biso   1.000  O
  O36      1.0000 0.25210  0.25000  0.14480  Biso   1.000  O
  O37      1.0000 0.82030  0.52290  0.12130  Biso   1.000  O
  O38      1.0000 0.17970  0.02290  0.87870  Biso   1.000  O
  O39      1.0000 0.17970  0.47710  0.87870  Biso   1.000  O
  O40      1.0000 0.82030  0.97710  0.12130  Biso   1.000  O
  O41      1.0000 0.04560  0.65640  0.36910  Biso   1.000  O
  O42      1.0000 0.95440  0.15640  0.63090  Biso   1.000  O
  O43      1.0000 0.95440  0.34360  0.63090  Biso   1.000  O
  O44      1.0000 0.04560  0.84360  0.36910  Biso   1.000  O
  O45      1.0000 0.56100  0.68430  0.15570  Biso   1.000  O
  O46      1.0000 0.43900  0.18430  0.84430  Biso   1.000  O
  O47      1.0000 0.43900  0.31570  0.84430  Biso   1.000  O
  O48      1.0000 0.56100  0.81570  0.15570  Biso   1.000  O
  O49      1.0000 0.85920  0.69490  0.39170  Biso   1.000  O
  O50      1.0000 0.14080  0.19490  0.60830  Biso   1.000  O
  O51      1.0000 0.14080  0.30510  0.60830  Biso   1.000  O
  O52      1.0000 0.85920  0.80510  0.39170  Biso   1.000  O
  O53      1.0000 0.14780  0.64450  0.56430  Biso   1.000  O
  O54      1.0000 0.85220  0.14450  0.43570  Biso   1.000  O
  O55      1.0000 0.85220  0.35550  0.43570  Biso   1.000  O
  O56      1.0000 0.14780  0.85550  0.56430  Biso   1.000  O
  O57      1.0000 0.98570  0.59910  0.19620  Biso   1.000  O
  O58      1.0000 0.01430  0.09910  0.80380  Biso   1.000  O
  O59      1.0000 0.01430  0.40090  0.80380  Biso   1.000  O
  O60      1.0000 0.98570  0.90090  0.19620  Biso   1.000  O
  O61      1.0000 0.82520  0.69210  0.65610  Biso   1.000  O
  O62      1.0000 0.17480  0.19210  0.34390  Biso   1.000  O
  O63      1.0000 0.17480  0.30790  0.34390  Biso   1.000  O
  O64      1.0000 0.82520  0.80790  0.65610  Biso   1.000  O
  O65      1.0000 0.49800  0.63040  0.97980  Biso   1.000  O
  O66      1.0000 0.50200  0.13040  0.02020  Biso   1.000  O
  O67      1.0000 0.50200  0.36960  0.02020  Biso   1.000  O
  O68      1.0000 0.49800  0.86960  0.97980  Biso   1.000  O
  O69      1.0000 0.18670  0.64410  0.27780  Biso   1.000  O
  O70      1.0000 0.81330  0.14410  0.72220  Biso   1.000  O
  O71      1.0000 0.81330  0.35590  0.72220  Biso   1.000  O
  O72      1.0000 0.18670  0.85590  0.27780  Biso   1.000  O
  O73      1.0000 0.64120  0.63020  0.60740  Biso   1.000  O
  O74      1.0000 0.35880  0.13020  0.39260  Biso   1.000  O
  O75      1.0000 0.35880  0.36980  0.39260  Biso   1.000  O
  O76      1.0000 0.64120  0.86980  0.60740  Biso   1.000  O
  O77      1.0000 0.78340  0.52250  0.40040  Biso   1.000  O
  O78      1.0000 0.21660  0.02250  0.59960  Biso   1.000  O
  O79      1.0000 0.21660  0.47750  0.59960  Biso   1.000  O
  O80      1.0000 0.78340  0.97750  0.40040  Biso   1.000  O
  O81      1.0000 0.83450  0.62430  0.02580  Biso   1.000  O
  O82      1.0000 0.16550  0.12430  0.97420  Biso   1.000  O
  O83      1.0000 0.16550  0.37570  0.97420  Biso   1.000  O
  O84      1.0000 0.83450  0.87570  0.02580  Biso   1.000  O
  O85      1.0000 0.74830  0.62870  0.82430  Biso   1.000  O
  O86      1.0000 0.25170  0.12870  0.17570  Biso   1.000  O
  O87      1.0000 0.25170  0.37130  0.17570  Biso   1.000  O
  O88      1.0000 0.74830  0.87130  0.82430  Biso   1.000  O
  O89      1.0000 0.84650  0.75000  0.03910  Biso   1.000  O
  O90      1.0000 0.15350  0.25000  0.96090  Biso   1.000  O
  O91      1.0000 0.84110  0.59070  0.27870  Biso   1.000  O
  O92      1.0000 0.15890  0.09070  0.72130  Biso   1.000  O
  O93      1.0000 0.15890  0.40930  0.72130  Biso   1.000  O
  O94      1.0000 0.84110  0.90930  0.27870  Biso   1.000  O
  O95      1.0000 0.59910  0.67970  0.42370  Biso   1.000  O
  O96      1.0000 0.40090  0.17970  0.57630  Biso   1.000  O
  O97      1.0000 0.40090  0.32030  0.57630  Biso   1.000  O
  O98      1.0000 0.59910  0.82030  0.42370  Biso   1.000  O
  O99      1.0000 0.78430  0.75000  0.49570  Biso   1.000  O
  O100     1.0000 0.21570  0.25000  0.50430  Biso   1.000  O
  O101     1.0000 0.95010  0.59940  0.47030  Biso   1.000  O
  O102     1.0000 0.04990  0.09940  0.52970  Biso   1.000  O
  O103     1.0000 0.04990  0.40060  0.52970  Biso   1.000  O
  O104     1.0000 0.95010  0.90060  0.47030  Biso   1.000  O
  O105     1.0000 0.77130  0.62310  0.49700  Biso   1.000  O
  O106     1.0000 0.22870  0.12310  0.50300  Biso   1.000  O
  O107     1.0000 0.22870  0.37690  0.50300  Biso   1.000  O
  O108     1.0000 0.77130  0.87690  0.49700  Biso   1.000  O
  O109     1.0000 0.92380  0.69200  0.93100  Biso   1.000  O
  O110     1.0000 0.07620  0.19200  0.06900  Biso   1.000  O
  O111     1.0000 0.07620  0.30800  0.06900  Biso   1.000  O
  O112     1.0000 0.92380  0.80800  0.93100  Biso   1.000  O
  O113     1.0000 0.88490  0.69400  0.19430  Biso   1.000  O
  O114     1.0000 0.11510  0.19400  0.80570  Biso   1.000  O
  O115     1.0000 0.11510  0.30600  0.80570  Biso   1.000  O
  O116     1.0000 0.88490  0.80600  0.19430  Biso   1.000  O
  O117     1.0000 0.45840  0.63140  0.26120  Biso   1.000  O
  O118     1.0000 0.54160  0.13140  0.73880  Biso   1.000  O
  O119     1.0000 0.54160  0.36860  0.73880  Biso   1.000  O
  O120     1.0000 0.45840  0.86860  0.26120  Biso   1.000  O
  O121     1.0000 0.11730  0.75000  0.98810  Biso   1.000  O
  O122     1.0000 0.88270  0.25000  0.01190  Biso   1.000  O
  O123     1.0000 0.65070  0.75000  0.57840  Biso   1.000  O
  O124     1.0000 0.34930  0.25000  0.42160  Biso   1.000  O
  Cu1      1.0000 0.72477  0.55098  0.75538  Biso   1.000  Cu
  Cu2      1.0000 0.27523  0.05098  0.24462  Biso   1.000  Cu
  Cu3      1.0000 0.27523  0.44902  0.24462  Biso   1.000  Cu
  Cu4      1.0000 0.72477  0.94902  0.75538  Biso   1.000  Cu
  N1       1.0000 0.77740  0.49050  0.87670  Biso   1.000  N
  N2       1.0000 0.22260  0.99050  0.12330  Biso   1.000  N
  N3       1.0000 0.22260  0.50950  0.12330  Biso   1.000  N
  N4       1.0000 0.77740  0.00950  0.87670  Biso   1.000  N
  C1       1.0000 0.86980  0.46600  0.91340  Biso   1.000  C
  C2       1.0000 0.13020  0.96600  0.08660  Biso   1.000  C
  C3       1.0000 0.13020  0.53400  0.08660  Biso   1.000  C
  C4       1.0000 0.86980  0.03400  0.91340  Biso   1.000  C
  H1       1.0000 0.92430  0.48210  0.89890  Biso   1.000  H
  H2       1.0000 0.07570  0.98210  0.10110  Biso   1.000  H
  H3       1.0000 0.07570  0.51790  0.10110  Biso   1.000  H
  H4       1.0000 0.92430  0.01790  0.89890  Biso   1.000  H
  C5       1.0000 0.88850  0.41610  0.97380  Biso   1.000  C
  C6       1.0000 0.11150  0.91610  0.02620  Biso   1.000  C
  C7       1.0000 0.11150  0.58390  0.02620  Biso   1.000  C
  C8       1.0000 0.88850  0.08390  0.97380  Biso   1.000  C
  H5       1.0000 0.95390  0.39910  0.99830  Biso   1.000  H
  H6       1.0000 0.04610  0.89910  0.00170  Biso   1.000  H
  H7       1.0000 0.04610  0.60090  0.00170  Biso   1.000  H
  H8       1.0000 0.95390  0.10090  0.99830  Biso   1.000  H
  C9       1.0000 0.80540  0.39300  0.99590  Biso   1.000  C
  C10      1.0000 0.19460  0.89300  0.00410  Biso   1.000  C
  C11      1.0000 0.19460  0.60700  0.00410  Biso   1.000  C
  C12      1.0000 0.80540  0.10700  0.99590  Biso   1.000  C
  H9       1.0000 0.81500  0.36040  0.03610  Biso   1.000  H
  H10      1.0000 0.18500  0.86040  0.96390  Biso   1.000  H
  H11      1.0000 0.18500  0.63960  0.96390  Biso   1.000  H
  H12      1.0000 0.81500  0.13960  0.03610  Biso   1.000  H
  C13      1.0000 0.71430  0.41800  0.95900  Biso   1.000  C
  C14      1.0000 0.28570  0.91800  0.04100  Biso   1.000  C
  C15      1.0000 0.28570  0.58200  0.04100  Biso   1.000  C
  C16      1.0000 0.71430  0.08200  0.95900  Biso   1.000  C
  H13      1.0000 0.65900  0.40320  0.97370  Biso   1.000  H
  H14      1.0000 0.34100  0.90320  0.02630  Biso   1.000  H
  H15      1.0000 0.34100  0.59680  0.02630  Biso   1.000  H
  H16      1.0000 0.65900  0.09680  0.97370  Biso   1.000  H
  C17      1.0000 0.69830  0.46850  0.89510  Biso   1.000  C
  C18      1.0000 0.30170  0.96850  0.10490  Biso   1.000  C
  C19      1.0000 0.30170  0.53150  0.10490  Biso   1.000  C
  C20      1.0000 0.69830  0.03150  0.89510  Biso   1.000  C
  C21      1.0000 0.59950  0.49860  0.85010  Biso   1.000  C
  C22      1.0000 0.40050  0.99860  0.14990  Biso   1.000  C
  C23      1.0000 0.40050  0.50140  0.14990  Biso   1.000  C
  C24      1.0000 0.59950  0.00140  0.85010  Biso   1.000  C
  C25      1.0000 0.50780  0.48570  0.86900  Biso   1.000  C
  C26      1.0000 0.49220  0.98570  0.13100  Biso   1.000  C
  C27      1.0000 0.49220  0.51430  0.13100  Biso   1.000  C
  C28      1.0000 0.50780  0.01430  0.86900  Biso   1.000  C
  H17      1.0000 0.50820  0.45640  0.91290  Biso   1.000  H
  H18      1.0000 0.49180  0.95640  0.08710  Biso   1.000  H
  H19      1.0000 0.49180  0.54360  0.08710  Biso   1.000  H
  H20      1.0000 0.50820  0.04360  0.91290  Biso   1.000  H
  C29      1.0000 0.42180  0.51580  0.82370  Biso   1.000  C
  C30      1.0000 0.57820  0.01580  0.17630  Biso   1.000  C
  C31      1.0000 0.57820  0.48420  0.17630  Biso   1.000  C
  C32      1.0000 0.42180  0.98420  0.82370  Biso   1.000  C
  H21      1.0000 0.36210  0.50680  0.83600  Biso   1.000  H
  H22      1.0000 0.63790  0.00680  0.16400  Biso   1.000  H
  H23      1.0000 0.63790  0.49320  0.16400  Biso   1.000  H
  H24      1.0000 0.36210  0.99320  0.83600  Biso   1.000  H
  C33      1.0000 0.41860  0.55990  0.75900  Biso   1.000  C
  C34      1.0000 0.58140  0.05990  0.24100  Biso   1.000  C
  C35      1.0000 0.58140  0.44010  0.24100  Biso   1.000  C
  C36      1.0000 0.41860  0.94010  0.75900  Biso   1.000  C
  H25      1.0000 0.35820  0.58150  0.72990  Biso   1.000  H
  H26      1.0000 0.64180  0.08150  0.27010  Biso   1.000  H
  H27      1.0000 0.64180  0.41850  0.27010  Biso   1.000  H
  H28      1.0000 0.35820  0.91850  0.72990  Biso   1.000  H
  C37      1.0000 0.50630  0.57180  0.73780  Biso   1.000  C
  C38      1.0000 0.49370  0.07180  0.26220  Biso   1.000  C
  C39      1.0000 0.49370  0.42820  0.26220  Biso   1.000  C
  C40      1.0000 0.50630  0.92820  0.73780  Biso   1.000  C
  H29      1.0000 0.50470  0.60010  0.69190  Biso   1.000  H
  H30      1.0000 0.49530  0.10010  0.30810  Biso   1.000  H
  H31      1.0000 0.49530  0.39990  0.30810  Biso   1.000  H
  H32      1.0000 0.50470  0.89990  0.69190  Biso   1.000  H
  N5       1.0000 0.59690  0.54100  0.78610  Biso   1.000  N
  N6       1.0000 0.40310  0.04100  0.21390  Biso   1.000  N
  N7       1.0000 0.40310  0.45900  0.21390  Biso   1.000  N
  N8       1.0000 0.59690  0.95900  0.78610  Biso   1.000  N
  N9       1.0000 0.85270  0.55530  0.72390  Biso   1.000  N
  N10      1.0000 0.14730  0.05530  0.27610  Biso   1.000  N
  N11      1.0000 0.14730  0.44470  0.27610  Biso   1.000  N
  N12      1.0000 0.85270  0.94470  0.72390  Biso   1.000  N
  C41      1.0000 0.93380  0.59000  0.76730  Biso   1.000  C
  C42      1.0000 0.06620  0.09000  0.23270  Biso   1.000  C
  C43      1.0000 0.06620  0.41000  0.23270  Biso   1.000  C
  C44      1.0000 0.93380  0.91000  0.76730  Biso   1.000  C
  H33      1.0000 0.92910  0.61820  0.81100  Biso   1.000  H
  H34      1.0000 0.07090  0.11820  0.18900  Biso   1.000  H
  H35      1.0000 0.07090  0.38180  0.18900  Biso   1.000  H
  H36      1.0000 0.92910  0.88180  0.81100  Biso   1.000  H
  C45      1.0000 0.02540  0.58530  0.74890  Biso   1.000  C
  C46      1.0000 0.97460  0.08530  0.25110  Biso   1.000  C
  C47      1.0000 0.97460  0.41470  0.25110  Biso   1.000  C
  C48      1.0000 0.02540  0.91470  0.74890  Biso   1.000  C
  H37      1.0000 0.08220  0.60900  0.78090  Biso   1.000  H
  H38      1.0000 0.91780  0.10900  0.21910  Biso   1.000  H
  H39      1.0000 0.91780  0.39100  0.21910  Biso   1.000  H
  H40      1.0000 0.08220  0.89100  0.78090  Biso   1.000  H
  C49      1.0000 0.02970  0.54390  0.68090  Biso   1.000  C
  C50      1.0000 0.97030  0.04390  0.31910  Biso   1.000  C
  C51      1.0000 0.97030  0.45610  0.31910  Biso   1.000  C
  C52      1.0000 0.02970  0.95610  0.68090  Biso   1.000  C
  H41      1.0000 0.08940  0.54010  0.66610  Biso   1.000  H
  H42      1.0000 0.91060  0.04010  0.33390  Biso   1.000  H
  H43      1.0000 0.91060  0.45990  0.33390  Biso   1.000  H
  H44      1.0000 0.08940  0.95990  0.66610  Biso   1.000  H
  C53      1.0000 0.94570  0.50880  0.63630  Biso   1.000  C
  C54      1.0000 0.05430  0.00880  0.36370  Biso   1.000  C
  C55      1.0000 0.05430  0.49120  0.36370  Biso   1.000  C
  C56      1.0000 0.94570  0.99120  0.63630  Biso   1.000  C
  H45      1.0000 0.94780  0.48080  0.59130  Biso   1.000  H
  H46      1.0000 0.05220  0.98080  0.40870  Biso   1.000  H
  H47      1.0000 0.05220  0.51920  0.40870  Biso   1.000  H
  H48      1.0000 0.94780  0.01920  0.59130  Biso   1.000  H
  C57      1.0000 0.85910  0.51550  0.65860  Biso   1.000  C
  C58      1.0000 0.14090  0.01550  0.34140  Biso   1.000  C
  C59      1.0000 0.14090  0.48450  0.34140  Biso   1.000  C
  C60      1.0000 0.85910  0.98450  0.65860  Biso   1.000  C
  C61      1.0000 0.76200  0.48050  0.61330  Biso   1.000  C
  C62      1.0000 0.23800  0.98050  0.38670  Biso   1.000  C
  C63      1.0000 0.23800  0.51950  0.38670  Biso   1.000  C
  C64      1.0000 0.76200  0.01950  0.61330  Biso   1.000  C
  C65      1.0000 0.75120  0.43990  0.54200  Biso   1.000  C
  C66      1.0000 0.24880  0.93990  0.45800  Biso   1.000  C
  C67      1.0000 0.24880  0.56010  0.45800  Biso   1.000  C
  C68      1.0000 0.75120  0.06010  0.54200  Biso   1.000  C
  H49      1.0000 0.80390  0.43400  0.51780  Biso   1.000  H
  H50      1.0000 0.19610  0.93400  0.48220  Biso   1.000  H
  H51      1.0000 0.19610  0.56600  0.48220  Biso   1.000  H
  H52      1.0000 0.80390  0.06600  0.51780  Biso   1.000  H
  C69      1.0000 0.66040  0.40770  0.50690  Biso   1.000  C
  C70      1.0000 0.33960  0.90770  0.49310  Biso   1.000  C
  C71      1.0000 0.33960  0.59230  0.49310  Biso   1.000  C
  C72      1.0000 0.66040  0.09230  0.50690  Biso   1.000  C
  H53      1.0000 0.65190  0.37900  0.45990  Biso   1.000  H
  H54      1.0000 0.34810  0.87900  0.54010  Biso   1.000  H
  H55      1.0000 0.34810  0.62100  0.54010  Biso   1.000  H
  H56      1.0000 0.65190  0.12100  0.45990  Biso   1.000  H
  C73      1.0000 0.58370  0.41860  0.54190  Biso   1.000  C
  C74      1.0000 0.41630  0.91860  0.45810  Biso   1.000  C
  C75      1.0000 0.41630  0.58140  0.45810  Biso   1.000  C
  C76      1.0000 0.58370  0.08140  0.54190  Biso   1.000  C
  H57      1.0000 0.52260  0.39700  0.52010  Biso   1.000  H
  H58      1.0000 0.47740  0.89700  0.47990  Biso   1.000  H
  H59      1.0000 0.47740  0.60300  0.47990  Biso   1.000  H
  H60      1.0000 0.52260  0.10300  0.52010  Biso   1.000  H
  C77      1.0000 0.59770  0.46280  0.61120  Biso   1.000  C
  C78      1.0000 0.40230  0.96280  0.38880  Biso   1.000  C
  C79      1.0000 0.40230  0.53720  0.38880  Biso   1.000  C
  C80      1.0000 0.59770  0.03720  0.61120  Biso   1.000  C
  H61      1.0000 0.54390  0.47200  0.63240  Biso   1.000  H
  H62      1.0000 0.45610  0.97200  0.36760  Biso   1.000  H
  H63      1.0000 0.45610  0.52800  0.36760  Biso   1.000  H
  H64      1.0000 0.54390  0.02800  0.63240  Biso   1.000  H
  N13      1.0000 0.68670  0.49170  0.64700  Biso   1.000  N
  N14      1.0000 0.31330  0.99170  0.35300  Biso   1.000  N
  N15      1.0000 0.31330  0.50830  0.35300  Biso   1.000  N
  N16      1.0000 0.68670  0.00830  0.64700  Biso   1.000  N
  C81      1.0000 0.38800  0.75000  0.76900  Biso   1.000  C
  C82      1.0000 0.61200  0.25000  0.23100  Biso   1.000  C
  H65      1.0000 0.37360  0.75000  0.82610  Biso   1.000  H
  H66      1.0000 0.62640  0.25000  0.17390  Biso   1.000  H
  C83      1.0000 0.31200  0.75000  0.68800  Biso   1.000  C
  C84      1.0000 0.68800  0.25000  0.31200  Biso   1.000  C
  H67      1.0000 0.24370  0.75000  0.68440  Biso   1.000  H
  H68      1.0000 0.75630  0.25000  0.31560  Biso   1.000  H
  C85      1.0000 0.34000  0.75000  0.59800  Biso   1.000  C
  C86      1.0000 0.66000  0.25000  0.40200  Biso   1.000  C
  H69      1.0000 0.28860  0.75000  0.53690  Biso   1.000  H
  H70      1.0000 0.71140  0.25000  0.46310  Biso   1.000  H
  C87      1.0000 0.44000  0.75000  0.60990  Biso   1.000  C
  C88      1.0000 0.56000  0.25000  0.39010  Biso   1.000  C
  H71      1.0000 0.45990  0.75000  0.55640  Biso   1.000  H
  H72      1.0000 0.54010  0.25000  0.44360  Biso   1.000  H
  N17      1.0000 0.51310  0.75000  0.70260  Biso   1.000  N
  N18      1.0000 0.48690  0.25000  0.29740  Biso   1.000  N
  C89      1.0000 0.49000  0.75000  0.77470  Biso   1.000  C
  C90      1.0000 0.51000  0.25000  0.22530  Biso   1.000  C
  H73      1.0000 0.54210  0.75000  0.83530  Biso   1.000  H
  H74      1.0000 0.45790  0.25000  0.16470  Biso   1.000  H
  O125     1.0000 0.34290  0.75000  0.04490  Biso   1.000  O
  O126     1.0000 0.65710  0.25000  0.95510  Biso   1.000  O
  O127     1.0000 0.28400  0.75000  0.20100  Biso   1.000  O
  O128     1.0000 0.71600  0.25000  0.79900  Biso   1.000  O
