data_image0
_cell_length_a       31.79
_cell_length_b       7.925
_cell_length_c       16.005
_cell_angle_alpha    90
_cell_angle_beta     97.69
_cell_angle_gamma    90

_symmetry_space_group_name_H-M    "P 1"
_symmetry_int_tables_number       1

loop_
  _symmetry_equiv_pos_as_xyz
  'x, y, z'

loop_
  _atom_site_label
  _atom_site_occupancy
  _atom_site_fract_x
  _atom_site_fract_y
  _atom_site_fract_z
  _atom_site_thermal_displace_type
  _atom_site_B_iso_or_equiv
  _atom_site_type_symbol
  Cu1      1.0000 0.10913  0.30029  0.69541  Biso   1.000  Cu
  Cu2      1.0000 0.89087  0.30029  0.80459  Biso   1.000  Cu
  Cu3      1.0000 0.60913  0.80029  0.69541  Biso   1.000  Cu
  Cu4      1.0000 0.39087  0.80029  0.80459  Biso   1.000  Cu
  Cu5      1.0000 0.89087  0.69971  0.30459  Biso   1.000  Cu
  Cu6      1.0000 0.10913  0.69971  0.19541  Biso   1.000  Cu
  Cu7      1.0000 0.39087  0.19971  0.30459  Biso   1.000  Cu
  Cu8      1.0000 0.60913  0.19971  0.19541  Biso   1.000  Cu
  Cl1      1.0000 0.05105  0.44903  0.64741  Biso   1.000  Cl
  Cl2      1.0000 0.94895  0.44903  0.85259  Biso   1.000  Cl
  Cl3      1.0000 0.55105  0.94903  0.64741  Biso   1.000  Cl
  Cl4      1.0000 0.44895  0.94903  0.85259  Biso   1.000  Cl
  Cl5      1.0000 0.94895  0.55097  0.35259  Biso   1.000  Cl
  Cl6      1.0000 0.05105  0.55097  0.14741  Biso   1.000  Cl
  Cl7      1.0000 0.44895  0.05097  0.35259  Biso   1.000  Cl
  Cl8      1.0000 0.55105  0.05097  0.14741  Biso   1.000  Cl
  N1       1.0000 0.16459  0.19410  0.75086  Biso   1.000  N
  N2       1.0000 0.83541  0.19410  0.74914  Biso   1.000  N
  N3       1.0000 0.66459  0.69410  0.75086  Biso   1.000  N
  N4       1.0000 0.33541  0.69410  0.74914  Biso   1.000  N
  N5       1.0000 0.83541  0.80590  0.24914  Biso   1.000  N
  N6       1.0000 0.16459  0.80590  0.25086  Biso   1.000  N
  N7       1.0000 0.33541  0.30590  0.24914  Biso   1.000  N
  N8       1.0000 0.66459  0.30590  0.25086  Biso   1.000  N
  C1       1.0000 0.19716  0.13420  0.71602  Biso   1.000  C
  C2       1.0000 0.80284  0.13420  0.78398  Biso   1.000  C
  C3       1.0000 0.69716  0.63420  0.71602  Biso   1.000  C
  C4       1.0000 0.30284  0.63420  0.78398  Biso   1.000  C
  C5       1.0000 0.80284  0.86580  0.28398  Biso   1.000  C
  C6       1.0000 0.19716  0.86580  0.21602  Biso   1.000  C
  C7       1.0000 0.30284  0.36580  0.28398  Biso   1.000  C
  C8       1.0000 0.69716  0.36580  0.21602  Biso   1.000  C
  H1       1.0000 0.19600  0.13720  0.65770  Biso   1.000  H
  H2       1.0000 0.80400  0.13720  0.84230  Biso   1.000  H
  H3       1.0000 0.69600  0.63720  0.65770  Biso   1.000  H
  H4       1.0000 0.30400  0.63720  0.84230  Biso   1.000  H
  H5       1.0000 0.80400  0.86280  0.34230  Biso   1.000  H
  H6       1.0000 0.19600  0.86280  0.15770  Biso   1.000  H
  H7       1.0000 0.30400  0.36280  0.34230  Biso   1.000  H
  H8       1.0000 0.69600  0.36280  0.15770  Biso   1.000  H
  C9       1.0000 0.23308  0.06700  0.76400  Biso   1.000  C
  C10      1.0000 0.76692  0.06700  0.73600  Biso   1.000  C
  C11      1.0000 0.73308  0.56700  0.76400  Biso   1.000  C
  C12      1.0000 0.26692  0.56700  0.73600  Biso   1.000  C
  C13      1.0000 0.76692  0.93300  0.23600  Biso   1.000  C
  C14      1.0000 0.23308  0.93300  0.26400  Biso   1.000  C
  C15      1.0000 0.26692  0.43300  0.23600  Biso   1.000  C
  C16      1.0000 0.73308  0.43300  0.26400  Biso   1.000  C
  H9       1.0000 0.25520  0.02490  0.73740  Biso   1.000  H
  H10      1.0000 0.74480  0.02490  0.76260  Biso   1.000  H
  H11      1.0000 0.75520  0.52490  0.73740  Biso   1.000  H
  H12      1.0000 0.24480  0.52490  0.76260  Biso   1.000  H
  H13      1.0000 0.74480  0.97510  0.26260  Biso   1.000  H
  H14      1.0000 0.25520  0.97510  0.23740  Biso   1.000  H
  H15      1.0000 0.24480  0.47510  0.26260  Biso   1.000  H
  H16      1.0000 0.75520  0.47510  0.23740  Biso   1.000  H
  C17      1.0000 0.23586  0.06300  0.84960  Biso   1.000  C
  C18      1.0000 0.76414  0.06300  0.65040  Biso   1.000  C
  C19      1.0000 0.73586  0.56300  0.84960  Biso   1.000  C
  C20      1.0000 0.26414  0.56300  0.65040  Biso   1.000  C
  C21      1.0000 0.76414  0.93700  0.15040  Biso   1.000  C
  C22      1.0000 0.23586  0.93700  0.34960  Biso   1.000  C
  C23      1.0000 0.26414  0.43700  0.15040  Biso   1.000  C
  C24      1.0000 0.73586  0.43700  0.34960  Biso   1.000  C
  H17      1.0000 0.26000  0.01950  0.88180  Biso   1.000  H
  H18      1.0000 0.74000  0.01950  0.61820  Biso   1.000  H
  H19      1.0000 0.76000  0.51950  0.88180  Biso   1.000  H
  H20      1.0000 0.24000  0.51950  0.61820  Biso   1.000  H
  H21      1.0000 0.74000  0.98050  0.11820  Biso   1.000  H
  H22      1.0000 0.26000  0.98050  0.38180  Biso   1.000  H
  H23      1.0000 0.24000  0.48050  0.11820  Biso   1.000  H
  H24      1.0000 0.76000  0.48050  0.38180  Biso   1.000  H
  C25      1.0000 0.20220  0.12470  0.88875  Biso   1.000  C
  C26      1.0000 0.79780  0.12470  0.61125  Biso   1.000  C
  C27      1.0000 0.70220  0.62470  0.88875  Biso   1.000  C
  C28      1.0000 0.29780  0.62470  0.61125  Biso   1.000  C
  C29      1.0000 0.79780  0.87530  0.11125  Biso   1.000  C
  C30      1.0000 0.20220  0.87530  0.38875  Biso   1.000  C
  C31      1.0000 0.29780  0.37530  0.11125  Biso   1.000  C
  C32      1.0000 0.70220  0.37530  0.38875  Biso   1.000  C
  C33      1.0000 0.16713  0.18960  0.83635  Biso   1.000  C
  C34      1.0000 0.83287  0.18960  0.66365  Biso   1.000  C
  C35      1.0000 0.66713  0.68960  0.83635  Biso   1.000  C
  C36      1.0000 0.33287  0.68960  0.66365  Biso   1.000  C
  C37      1.0000 0.83287  0.81040  0.16365  Biso   1.000  C
  C38      1.0000 0.16713  0.81040  0.33635  Biso   1.000  C
  C39      1.0000 0.33287  0.31040  0.16365  Biso   1.000  C
  C40      1.0000 0.66713  0.31040  0.33635  Biso   1.000  C
  C41      1.0000 0.20146  0.12600  0.97815  Biso   1.000  C
  C42      1.0000 0.79854  0.12600  0.52185  Biso   1.000  C
  C43      1.0000 0.70146  0.62600  0.97815  Biso   1.000  C
  C44      1.0000 0.29854  0.62600  0.52185  Biso   1.000  C
  C45      1.0000 0.79854  0.87400  0.02185  Biso   1.000  C
  C46      1.0000 0.20146  0.87400  0.47815  Biso   1.000  C
  C47      1.0000 0.29854  0.37400  0.02185  Biso   1.000  C
  C48      1.0000 0.70146  0.37400  0.47815  Biso   1.000  C
  H25      1.0000 0.22480  0.08490  0.01360  Biso   1.000  H
  H26      1.0000 0.77520  0.08490  0.48640  Biso   1.000  H
  H27      1.0000 0.72480  0.58490  0.01360  Biso   1.000  H
  H28      1.0000 0.27520  0.58490  0.48640  Biso   1.000  H
  H29      1.0000 0.77520  0.91510  0.98640  Biso   1.000  H
  H30      1.0000 0.22480  0.91510  0.51360  Biso   1.000  H
  H31      1.0000 0.27520  0.41510  0.98640  Biso   1.000  H
  H32      1.0000 0.72480  0.41510  0.51360  Biso   1.000  H
  C49      1.0000 0.16767  0.18570  0.01196  Biso   1.000  C
  C50      1.0000 0.83233  0.18570  0.48804  Biso   1.000  C
  C51      1.0000 0.66767  0.68570  0.01196  Biso   1.000  C
  C52      1.0000 0.33233  0.68570  0.48804  Biso   1.000  C
  C53      1.0000 0.83233  0.81430  0.98804  Biso   1.000  C
  C54      1.0000 0.16767  0.81430  0.51196  Biso   1.000  C
  C55      1.0000 0.33233  0.31430  0.98804  Biso   1.000  C
  C56      1.0000 0.66767  0.31430  0.51196  Biso   1.000  C
  H33      1.0000 0.16810  0.18530  0.07020  Biso   1.000  H
  H34      1.0000 0.83190  0.18530  0.42980  Biso   1.000  H
  H35      1.0000 0.66810  0.68530  0.07020  Biso   1.000  H
  H36      1.0000 0.33190  0.68530  0.42980  Biso   1.000  H
  H37      1.0000 0.83190  0.81470  0.92980  Biso   1.000  H
  H38      1.0000 0.16810  0.81470  0.57020  Biso   1.000  H
  H39      1.0000 0.33190  0.31470  0.92980  Biso   1.000  H
  H40      1.0000 0.66810  0.31470  0.57020  Biso   1.000  H
  C57      1.0000 0.13105  0.24960  0.95917  Biso   1.000  C
  C58      1.0000 0.86895  0.24960  0.54083  Biso   1.000  C
  C59      1.0000 0.63105  0.74960  0.95917  Biso   1.000  C
  C60      1.0000 0.36895  0.74960  0.54083  Biso   1.000  C
  C61      1.0000 0.86895  0.75040  0.04083  Biso   1.000  C
  C62      1.0000 0.13105  0.75040  0.45917  Biso   1.000  C
  C63      1.0000 0.36895  0.25040  0.04083  Biso   1.000  C
  C64      1.0000 0.63105  0.25040  0.45917  Biso   1.000  C
  C65      1.0000 0.13112  0.25160  0.87180  Biso   1.000  C
  C66      1.0000 0.86888  0.25160  0.62820  Biso   1.000  C
  C67      1.0000 0.63112  0.75160  0.87180  Biso   1.000  C
  C68      1.0000 0.36888  0.75160  0.62820  Biso   1.000  C
  C69      1.0000 0.86888  0.74840  0.12820  Biso   1.000  C
  C70      1.0000 0.13112  0.74840  0.37180  Biso   1.000  C
  C71      1.0000 0.36888  0.24840  0.12820  Biso   1.000  C
  C72      1.0000 0.63112  0.24840  0.37180  Biso   1.000  C
  C73      1.0000 0.09436  0.30730  0.98932  Biso   1.000  C
  C74      1.0000 0.90564  0.30730  0.51068  Biso   1.000  C
  C75      1.0000 0.59436  0.80730  0.98932  Biso   1.000  C
  C76      1.0000 0.40564  0.80730  0.51068  Biso   1.000  C
  C77      1.0000 0.90564  0.69270  0.01068  Biso   1.000  C
  C78      1.0000 0.09436  0.69270  0.48932  Biso   1.000  C
  C79      1.0000 0.40564  0.19270  0.01068  Biso   1.000  C
  C80      1.0000 0.59436  0.19270  0.48932  Biso   1.000  C
  H41      1.0000 0.09290  0.30900  0.04700  Biso   1.000  H
  H42      1.0000 0.90710  0.30900  0.45300  Biso   1.000  H
  H43      1.0000 0.59290  0.80900  0.04700  Biso   1.000  H
  H44      1.0000 0.40710  0.80900  0.45300  Biso   1.000  H
  H45      1.0000 0.90710  0.69100  0.95300  Biso   1.000  H
  H46      1.0000 0.09290  0.69100  0.54700  Biso   1.000  H
  H47      1.0000 0.40710  0.19100  0.95300  Biso   1.000  H
  H48      1.0000 0.59290  0.19100  0.54700  Biso   1.000  H
  C81      1.0000 0.06066  0.36110  0.93366  Biso   1.000  C
  C82      1.0000 0.93934  0.36110  0.56634  Biso   1.000  C
  C83      1.0000 0.56066  0.86110  0.93366  Biso   1.000  C
  C84      1.0000 0.43934  0.86110  0.56634  Biso   1.000  C
  C85      1.0000 0.93934  0.63890  0.06634  Biso   1.000  C
  C86      1.0000 0.06066  0.63890  0.43366  Biso   1.000  C
  C87      1.0000 0.43934  0.13890  0.06634  Biso   1.000  C
  C88      1.0000 0.56066  0.13890  0.43366  Biso   1.000  C
  H49      1.0000 0.03590  0.39760  0.95310  Biso   1.000  H
  H50      1.0000 0.96410  0.39760  0.54690  Biso   1.000  H
  H51      1.0000 0.53590  0.89760  0.95310  Biso   1.000  H
  H52      1.0000 0.46410  0.89760  0.54690  Biso   1.000  H
  H53      1.0000 0.96410  0.60240  0.04690  Biso   1.000  H
  H54      1.0000 0.03590  0.60240  0.45310  Biso   1.000  H
  H55      1.0000 0.46410  0.10240  0.04690  Biso   1.000  H
  H56      1.0000 0.53590  0.10240  0.45310  Biso   1.000  H
  C89      1.0000 0.06358  0.36100  0.84764  Biso   1.000  C
  C90      1.0000 0.93642  0.36100  0.65236  Biso   1.000  C
  C91      1.0000 0.56358  0.86100  0.84764  Biso   1.000  C
  C92      1.0000 0.43642  0.86100  0.65236  Biso   1.000  C
  C93      1.0000 0.93642  0.63900  0.15236  Biso   1.000  C
  C94      1.0000 0.06358  0.63900  0.34764  Biso   1.000  C
  C95      1.0000 0.43642  0.13900  0.15236  Biso   1.000  C
  C96      1.0000 0.56358  0.13900  0.34764  Biso   1.000  C
  H57      1.0000 0.04050  0.39880  0.81050  Biso   1.000  H
  H58      1.0000 0.95950  0.39880  0.68950  Biso   1.000  H
  H59      1.0000 0.54050  0.89880  0.81050  Biso   1.000  H
  H60      1.0000 0.45950  0.89880  0.68950  Biso   1.000  H
  H61      1.0000 0.95950  0.60120  0.18950  Biso   1.000  H
  H62      1.0000 0.04050  0.60120  0.31050  Biso   1.000  H
  H63      1.0000 0.45950  0.10120  0.18950  Biso   1.000  H
  H64      1.0000 0.54050  0.10120  0.31050  Biso   1.000  H
  N9       1.0000 0.09806  0.30900  0.81664  Biso   1.000  N
  N10      1.0000 0.90194  0.30900  0.68336  Biso   1.000  N
  N11      1.0000 0.59806  0.80900  0.81664  Biso   1.000  N
  N12      1.0000 0.40194  0.80900  0.68336  Biso   1.000  N
  N13      1.0000 0.90194  0.69100  0.18336  Biso   1.000  N
  N14      1.0000 0.09806  0.69100  0.31664  Biso   1.000  N
  N15      1.0000 0.40194  0.19100  0.18336  Biso   1.000  N
  N16      1.0000 0.59806  0.19100  0.31664  Biso   1.000  N
  C97      1.0000 0.14488  0.27870  0.43121  Biso   1.000  C
  C98      1.0000 0.85512  0.27870  0.06879  Biso   1.000  C
  C99      1.0000 0.64488  0.77870  0.43121  Biso   1.000  C
  C100     1.0000 0.35512  0.77870  0.06879  Biso   1.000  C
  C101     1.0000 0.85512  0.72130  0.56879  Biso   1.000  C
  C102     1.0000 0.14488  0.72130  0.93121  Biso   1.000  C
  C103     1.0000 0.35512  0.22130  0.56879  Biso   1.000  C
  C104     1.0000 0.64488  0.22130  0.93121  Biso   1.000  C
  C105     1.0000 0.11597  0.20460  0.36808  Biso   1.000  C
  C106     1.0000 0.88403  0.20460  0.13192  Biso   1.000  C
  C107     1.0000 0.61597  0.70460  0.36808  Biso   1.000  C
  C108     1.0000 0.38403  0.70460  0.13192  Biso   1.000  C
  C109     1.0000 0.88403  0.79540  0.63192  Biso   1.000  C
  C110     1.0000 0.11597  0.79540  0.86808  Biso   1.000  C
  C111     1.0000 0.38403  0.29540  0.63192  Biso   1.000  C
  C112     1.0000 0.61597  0.29540  0.86808  Biso   1.000  C
  C113     1.0000 0.11784  0.21120  0.28176  Biso   1.000  C
  C114     1.0000 0.88216  0.21120  0.21824  Biso   1.000  C
  C115     1.0000 0.61784  0.71120  0.28176  Biso   1.000  C
  C116     1.0000 0.38216  0.71120  0.21824  Biso   1.000  C
  C117     1.0000 0.88216  0.78880  0.71824  Biso   1.000  C
  C118     1.0000 0.11784  0.78880  0.78176  Biso   1.000  C
  C119     1.0000 0.38216  0.28880  0.71824  Biso   1.000  C
  C120     1.0000 0.61784  0.28880  0.78176  Biso   1.000  C
  C121     1.0000 0.13474  0.27910  0.51440  Biso   1.000  C
  C122     1.0000 0.86526  0.27910  0.98560  Biso   1.000  C
  C123     1.0000 0.63474  0.77910  0.51440  Biso   1.000  C
  C124     1.0000 0.36526  0.77910  0.98560  Biso   1.000  C
  C125     1.0000 0.86526  0.72090  0.48560  Biso   1.000  C
  C126     1.0000 0.13474  0.72090  0.01440  Biso   1.000  C
  C127     1.0000 0.36526  0.22090  0.48560  Biso   1.000  C
  C128     1.0000 0.63474  0.22090  0.01440  Biso   1.000  C
  N17      1.0000 0.12696  0.28070  0.58229  Biso   1.000  N
  N18      1.0000 0.87304  0.28070  0.91771  Biso   1.000  N
  N19      1.0000 0.62696  0.78070  0.58229  Biso   1.000  N
  N20      1.0000 0.37304  0.78070  0.91771  Biso   1.000  N
  N21      1.0000 0.87304  0.71930  0.41771  Biso   1.000  N
  N22      1.0000 0.12696  0.71930  0.08229  Biso   1.000  N
  N23      1.0000 0.37304  0.21930  0.41771  Biso   1.000  N
  N24      1.0000 0.62696  0.21930  0.08229  Biso   1.000  N
  C129     1.0000 0.18515  0.34240  0.41863  Biso   1.000  C
  C130     1.0000 0.81485  0.34240  0.08137  Biso   1.000  C
  C131     1.0000 0.68515  0.84240  0.41863  Biso   1.000  C
  C132     1.0000 0.31485  0.84240  0.08137  Biso   1.000  C
  C133     1.0000 0.81485  0.65760  0.58137  Biso   1.000  C
  C134     1.0000 0.18515  0.65760  0.91863  Biso   1.000  C
  C135     1.0000 0.31485  0.15760  0.58137  Biso   1.000  C
  C136     1.0000 0.68515  0.15760  0.91863  Biso   1.000  C
  N25      1.0000 0.21808  0.39300  0.41061  Biso   1.000  N
  N26      1.0000 0.78192  0.39300  0.08939  Biso   1.000  N
  N27      1.0000 0.71808  0.89300  0.41061  Biso   1.000  N
  N28      1.0000 0.28192  0.89300  0.08939  Biso   1.000  N
  N29      1.0000 0.78192  0.60700  0.58939  Biso   1.000  N
  N30      1.0000 0.21808  0.60700  0.91061  Biso   1.000  N
  N31      1.0000 0.28192  0.10700  0.58939  Biso   1.000  N
  N32      1.0000 0.71808  0.10700  0.91061  Biso   1.000  N
  O1       1.0000 0.08607  0.11400  0.39883  Biso   1.000  O
  O2       1.0000 0.91393  0.11400  0.10117  Biso   1.000  O
  O3       1.0000 0.58607  0.61400  0.39883  Biso   1.000  O
  O4       1.0000 0.41393  0.61400  0.10117  Biso   1.000  O
  O5       1.0000 0.91393  0.88600  0.60117  Biso   1.000  O
  O6       1.0000 0.08607  0.88600  0.89883  Biso   1.000  O
  O7       1.0000 0.41393  0.38600  0.60117  Biso   1.000  O
  O8       1.0000 0.58607  0.38600  0.89883  Biso   1.000  O
  C137     1.0000 0.04102  0.13240  0.36380  Biso   1.000  C
  C138     1.0000 0.95898  0.13240  0.13620  Biso   1.000  C
  C139     1.0000 0.54102  0.63240  0.36380  Biso   1.000  C
  C140     1.0000 0.45898  0.63240  0.13620  Biso   1.000  C
  C141     1.0000 0.95898  0.86760  0.63620  Biso   1.000  C
  C142     1.0000 0.04102  0.86760  0.86380  Biso   1.000  C
  C143     1.0000 0.45898  0.36760  0.63620  Biso   1.000  C
  C144     1.0000 0.54102  0.36760  0.86380  Biso   1.000  C
  H65      1.0000 0.03770  0.22400  0.32330  Biso   1.000  H
  H66      1.0000 0.96230  0.22400  0.17670  Biso   1.000  H
  H67      1.0000 0.53770  0.72400  0.32330  Biso   1.000  H
  H68      1.0000 0.46230  0.72400  0.17670  Biso   1.000  H
  H69      1.0000 0.96230  0.77600  0.67670  Biso   1.000  H
  H70      1.0000 0.03770  0.77600  0.82330  Biso   1.000  H
  H71      1.0000 0.46230  0.27600  0.67670  Biso   1.000  H
  H72      1.0000 0.53770  0.27600  0.82330  Biso   1.000  H
  H73      1.0000 0.03090  0.02940  0.33520  Biso   1.000  H
  H74      1.0000 0.96910  0.02940  0.16480  Biso   1.000  H
  H75      1.0000 0.53090  0.52940  0.33520  Biso   1.000  H
  H76      1.0000 0.46910  0.52940  0.16480  Biso   1.000  H
  H77      1.0000 0.96910  0.97060  0.66480  Biso   1.000  H
  H78      1.0000 0.03090  0.97060  0.83520  Biso   1.000  H
  H79      1.0000 0.46910  0.47060  0.66480  Biso   1.000  H
  H80      1.0000 0.53090  0.47060  0.83520  Biso   1.000  H
  C145     1.0000 0.01714  0.16670  0.43130  Biso   1.000  C
  C146     1.0000 0.98286  0.16670  0.06870  Biso   1.000  C
  C147     1.0000 0.51714  0.66670  0.43130  Biso   1.000  C
  C148     1.0000 0.48286  0.66670  0.06870  Biso   1.000  C
  C149     1.0000 0.98286  0.83330  0.56870  Biso   1.000  C
  C150     1.0000 0.01714  0.83330  0.93130  Biso   1.000  C
  C151     1.0000 0.48286  0.33330  0.56870  Biso   1.000  C
  C152     1.0000 0.51714  0.33330  0.93130  Biso   1.000  C
  H81      1.0000 0.98820  0.18910  0.40880  Biso   1.000  H
  H82      1.0000 0.01180  0.18910  0.09120  Biso   1.000  H
  H83      1.0000 0.48820  0.68910  0.40880  Biso   1.000  H
  H84      1.0000 0.51180  0.68910  0.09120  Biso   1.000  H
  H85      1.0000 0.01180  0.81090  0.59120  Biso   1.000  H
  H86      1.0000 0.98820  0.81090  0.90880  Biso   1.000  H
  H87      1.0000 0.51180  0.31090  0.59120  Biso   1.000  H
  H88      1.0000 0.48820  0.31090  0.90880  Biso   1.000  H
  H89      1.0000 0.02890  0.26340  0.46220  Biso   1.000  H
  H90      1.0000 0.97110  0.26340  0.03780  Biso   1.000  H
  H91      1.0000 0.52890  0.76340  0.46220  Biso   1.000  H
  H92      1.0000 0.47110  0.76340  0.03780  Biso   1.000  H
  H93      1.0000 0.97110  0.73660  0.53780  Biso   1.000  H
  H94      1.0000 0.02890  0.73660  0.96220  Biso   1.000  H
  H95      1.0000 0.47110  0.23660  0.53780  Biso   1.000  H
  H96      1.0000 0.52890  0.23660  0.96220  Biso   1.000  H
  H97      1.0000 0.01830  0.07090  0.46820  Biso   1.000  H
  H98      1.0000 0.98170  0.07090  0.03180  Biso   1.000  H
  H99      1.0000 0.51830  0.57090  0.46820  Biso   1.000  H
  H100     1.0000 0.48170  0.57090  0.03180  Biso   1.000  H
  H101     1.0000 0.98170  0.92910  0.53180  Biso   1.000  H
  H102     1.0000 0.01830  0.92910  0.96820  Biso   1.000  H
  H103     1.0000 0.48170  0.42910  0.53180  Biso   1.000  H
  H104     1.0000 0.51830  0.42910  0.96820  Biso   1.000  H
  C153     1.0000 0.09473  0.09480  0.22534  Biso   1.000  C
  C154     1.0000 0.90527  0.09480  0.27466  Biso   1.000  C
  C155     1.0000 0.59473  0.59480  0.22534  Biso   1.000  C
  C156     1.0000 0.40527  0.59480  0.27466  Biso   1.000  C
  C157     1.0000 0.90527  0.90520  0.77466  Biso   1.000  C
  C158     1.0000 0.09473  0.90520  0.72534  Biso   1.000  C
  C159     1.0000 0.40527  0.40520  0.77466  Biso   1.000  C
  C160     1.0000 0.59473  0.40520  0.72534  Biso   1.000  C
  N33      1.0000 0.07748  0.99630  0.18067  Biso   1.000  N
  N34      1.0000 0.92252  0.99630  0.31933  Biso   1.000  N
  N35      1.0000 0.57748  0.49630  0.18067  Biso   1.000  N
  N36      1.0000 0.42252  0.49630  0.31933  Biso   1.000  N
  N37      1.0000 0.92252  0.00370  0.81933  Biso   1.000  N
  N38      1.0000 0.07748  0.00370  0.68067  Biso   1.000  N
  N39      1.0000 0.42252  0.50370  0.81933  Biso   1.000  N
  N40      1.0000 0.57748  0.50370  0.68067  Biso   1.000  N
  C161     1.0000 0.14346  0.32900  0.24406  Biso   1.000  C
  C162     1.0000 0.85654  0.32900  0.25594  Biso   1.000  C
  C163     1.0000 0.64346  0.82900  0.24406  Biso   1.000  C
  C164     1.0000 0.35654  0.82900  0.25594  Biso   1.000  C
  C165     1.0000 0.85654  0.67100  0.75594  Biso   1.000  C
  C166     1.0000 0.14346  0.67100  0.74406  Biso   1.000  C
  C167     1.0000 0.35654  0.17100  0.75594  Biso   1.000  C
  C168     1.0000 0.64346  0.17100  0.74406  Biso   1.000  C
  N41      1.0000 0.16247  0.42370  0.21067  Biso   1.000  N
  N42      1.0000 0.83753  0.42370  0.28933  Biso   1.000  N
  N43      1.0000 0.66247  0.92370  0.21067  Biso   1.000  N
  N44      1.0000 0.33753  0.92370  0.28933  Biso   1.000  N
  N45      1.0000 0.83753  0.57630  0.78933  Biso   1.000  N
  N46      1.0000 0.16247  0.57630  0.71067  Biso   1.000  N
  N47      1.0000 0.33753  0.07630  0.78933  Biso   1.000  N
  N48      1.0000 0.66247  0.07630  0.71067  Biso   1.000  N
