data_image0
_cell_length_a       21.468
_cell_length_b       6.716
_cell_length_c       16.166
_cell_angle_alpha    90
_cell_angle_beta     98.39
_cell_angle_gamma    90

_symmetry_space_group_name_H-M    "P 1"
_symmetry_int_tables_number       1

loop_
  _symmetry_equiv_pos_as_xyz
  'x, y, z'

loop_
  _atom_site_label
  _atom_site_occupancy
  _atom_site_fract_x
  _atom_site_fract_y
  _atom_site_fract_z
  _atom_site_thermal_displace_type
  _atom_site_B_iso_or_equiv
  _atom_site_type_symbol
  Cu1      1.0000 0.16120  0.94810  0.72140  Biso   1.000  Cu
  Cu2      1.0000 0.83880  0.94810  0.77860  Biso   1.000  Cu
  Cu3      1.0000 0.66120  0.44810  0.72140  Biso   1.000  Cu
  Cu4      1.0000 0.33880  0.44810  0.77860  Biso   1.000  Cu
  Cu5      1.0000 0.83880  0.05190  0.27860  Biso   1.000  Cu
  Cu6      1.0000 0.16120  0.05190  0.22140  Biso   1.000  Cu
  Cu7      1.0000 0.33880  0.55190  0.27860  Biso   1.000  Cu
  Cu8      1.0000 0.66120  0.55190  0.22140  Biso   1.000  Cu
  Br1      1.0000 0.23410  0.89290  0.84930  Biso   1.000  Br
  Br2      1.0000 0.76590  0.89290  0.65070  Biso   1.000  Br
  Br3      1.0000 0.73410  0.39290  0.84930  Biso   1.000  Br
  Br4      1.0000 0.26590  0.39290  0.65070  Biso   1.000  Br
  Br5      1.0000 0.76590  0.10710  0.15070  Biso   1.000  Br
  Br6      1.0000 0.23410  0.10710  0.34930  Biso   1.000  Br
  Br7      1.0000 0.26590  0.60710  0.15070  Biso   1.000  Br
  Br8      1.0000 0.73410  0.60710  0.34930  Biso   1.000  Br
  C1       1.0000 0.20370  0.94700  0.56060  Biso   1.000  C
  C2       1.0000 0.79630  0.94700  0.93940  Biso   1.000  C
  C3       1.0000 0.70370  0.44700  0.56060  Biso   1.000  C
  C4       1.0000 0.29630  0.44700  0.93940  Biso   1.000  C
  C5       1.0000 0.79630  0.05300  0.43940  Biso   1.000  C
  C6       1.0000 0.20370  0.05300  0.06060  Biso   1.000  C
  C7       1.0000 0.29630  0.55300  0.43940  Biso   1.000  C
  C8       1.0000 0.70370  0.55300  0.06060  Biso   1.000  C
  C9       1.0000 0.14490  0.06800  0.55720  Biso   1.000  C
  C10      1.0000 0.85510  0.06800  0.94280  Biso   1.000  C
  C11      1.0000 0.64490  0.56800  0.55720  Biso   1.000  C
  C12      1.0000 0.35510  0.56800  0.94280  Biso   1.000  C
  C13      1.0000 0.85510  0.93200  0.44280  Biso   1.000  C
  C14      1.0000 0.14490  0.93200  0.05720  Biso   1.000  C
  C15      1.0000 0.35510  0.43200  0.44280  Biso   1.000  C
  C16      1.0000 0.64490  0.43200  0.05720  Biso   1.000  C
  C17      1.0000 0.06530  0.25900  0.46670  Biso   1.000  C
  C18      1.0000 0.93470  0.25900  0.03330  Biso   1.000  C
  C19      1.0000 0.56530  0.75900  0.46670  Biso   1.000  C
  C20      1.0000 0.43470  0.75900  0.03330  Biso   1.000  C
  C21      1.0000 0.93470  0.74100  0.53330  Biso   1.000  C
  C22      1.0000 0.06530  0.74100  0.96670  Biso   1.000  C
  C23      1.0000 0.43470  0.24100  0.53330  Biso   1.000  C
  C24      1.0000 0.56530  0.24100  0.96670  Biso   1.000  C
  C25      1.0000 0.07290  0.48200  0.45700  Biso   1.000  C
  C26      1.0000 0.92710  0.48200  0.04300  Biso   1.000  C
  C27      1.0000 0.57290  0.98200  0.45700  Biso   1.000  C
  C28      1.0000 0.42710  0.98200  0.04300  Biso   1.000  C
  C29      1.0000 0.92710  0.51800  0.54300  Biso   1.000  C
  C30      1.0000 0.07290  0.51800  0.95700  Biso   1.000  C
  C31      1.0000 0.42710  0.01800  0.54300  Biso   1.000  C
  C32      1.0000 0.57290  0.01800  0.95700  Biso   1.000  C
  C33      1.0000 0.04540  0.76200  0.36500  Biso   1.000  C
  C34      1.0000 0.95460  0.76200  0.13500  Biso   1.000  C
  C35      1.0000 0.54540  0.26200  0.36500  Biso   1.000  C
  C36      1.0000 0.45460  0.26200  0.13500  Biso   1.000  C
  C37      1.0000 0.95460  0.23800  0.63500  Biso   1.000  C
  C38      1.0000 0.04540  0.23800  0.86500  Biso   1.000  C
  C39      1.0000 0.45460  0.73800  0.63500  Biso   1.000  C
  C40      1.0000 0.54540  0.73800  0.86500  Biso   1.000  C
  C41      1.0000 0.09520  0.80400  0.30930  Biso   1.000  C
  C42      1.0000 0.90480  0.80400  0.19070  Biso   1.000  C
  C43      1.0000 0.59520  0.30400  0.30930  Biso   1.000  C
  C44      1.0000 0.40480  0.30400  0.19070  Biso   1.000  C
  C45      1.0000 0.90480  0.19600  0.69070  Biso   1.000  C
  C46      1.0000 0.09520  0.19600  0.80930  Biso   1.000  C
  C47      1.0000 0.40480  0.69600  0.69070  Biso   1.000  C
  C48      1.0000 0.59520  0.69600  0.80930  Biso   1.000  C
  N1       1.0000 0.22720  0.90300  0.65060  Biso   1.000  N
  N2       1.0000 0.77280  0.90300  0.84940  Biso   1.000  N
  N3       1.0000 0.72720  0.40300  0.65060  Biso   1.000  N
  N4       1.0000 0.27280  0.40300  0.84940  Biso   1.000  N
  N5       1.0000 0.77280  0.09700  0.34940  Biso   1.000  N
  N6       1.0000 0.22720  0.09700  0.15060  Biso   1.000  N
  N7       1.0000 0.27280  0.59700  0.34940  Biso   1.000  N
  N8       1.0000 0.72720  0.59700  0.15060  Biso   1.000  N
  N9       1.0000 0.12540  0.15700  0.48410  Biso   1.000  N
  N10      1.0000 0.87460  0.15700  0.01590  Biso   1.000  N
  N11      1.0000 0.62540  0.65700  0.48410  Biso   1.000  N
  N12      1.0000 0.37460  0.65700  0.01590  Biso   1.000  N
  N13      1.0000 0.87460  0.84300  0.51590  Biso   1.000  N
  N14      1.0000 0.12540  0.84300  0.98410  Biso   1.000  N
  N15      1.0000 0.37460  0.34300  0.51590  Biso   1.000  N
  N16      1.0000 0.62540  0.34300  0.98410  Biso   1.000  N
  N17      1.0000 0.04170  0.55500  0.38710  Biso   1.000  N
  N18      1.0000 0.95830  0.55500  0.11290  Biso   1.000  N
  N19      1.0000 0.54170  0.05500  0.38710  Biso   1.000  N
  N20      1.0000 0.45830  0.05500  0.11290  Biso   1.000  N
  N21      1.0000 0.95830  0.44500  0.61290  Biso   1.000  N
  N22      1.0000 0.04170  0.44500  0.88710  Biso   1.000  N
  N23      1.0000 0.45830  0.94500  0.61290  Biso   1.000  N
  N24      1.0000 0.54170  0.94500  0.88710  Biso   1.000  N
  O1       1.0000 0.11550  0.07700  0.61700  Biso   1.000  O
  O2       1.0000 0.88450  0.07700  0.88300  Biso   1.000  O
  O3       1.0000 0.61550  0.57700  0.61700  Biso   1.000  O
  O4       1.0000 0.38450  0.57700  0.88300  Biso   1.000  O
  O5       1.0000 0.88450  0.92300  0.38300  Biso   1.000  O
  O6       1.0000 0.11550  0.92300  0.11700  Biso   1.000  O
  O7       1.0000 0.38450  0.42300  0.38300  Biso   1.000  O
  O8       1.0000 0.61550  0.42300  0.11700  Biso   1.000  O
  O9       1.0000 0.10650  0.58000  0.50870  Biso   1.000  O
  O10      1.0000 0.89350  0.58000  0.99130  Biso   1.000  O
  O11      1.0000 0.60650  0.08000  0.50870  Biso   1.000  O
  O12      1.0000 0.39350  0.08000  0.99130  Biso   1.000  O
  O13      1.0000 0.89350  0.42000  0.49130  Biso   1.000  O
  O14      1.0000 0.10650  0.42000  0.00870  Biso   1.000  O
  O15      1.0000 0.39350  0.92000  0.49130  Biso   1.000  O
  O16      1.0000 0.60650  0.92000  0.00870  Biso   1.000  O
  O17      1.0000 0.09310  0.98500  0.28230  Biso   1.000  O
  O18      1.0000 0.90690  0.98500  0.21770  Biso   1.000  O
  O19      1.0000 0.59310  0.48500  0.28230  Biso   1.000  O
  O20      1.0000 0.40690  0.48500  0.21770  Biso   1.000  O
  O21      1.0000 0.90690  0.01500  0.71770  Biso   1.000  O
  O22      1.0000 0.09310  0.01500  0.78230  Biso   1.000  O
  O23      1.0000 0.40690  0.51500  0.71770  Biso   1.000  O
  O24      1.0000 0.59310  0.51500  0.78230  Biso   1.000  O
  O25      1.0000 0.13310  0.67900  0.29540  Biso   1.000  O
  O26      1.0000 0.86690  0.67900  0.20460  Biso   1.000  O
  O27      1.0000 0.63310  0.17900  0.29540  Biso   1.000  O
  O28      1.0000 0.36690  0.17900  0.20460  Biso   1.000  O
  O29      1.0000 0.86690  0.32100  0.70460  Biso   1.000  O
  O30      1.0000 0.13310  0.32100  0.79540  Biso   1.000  O
  O31      1.0000 0.36690  0.82100  0.70460  Biso   1.000  O
  O32      1.0000 0.63310  0.82100  0.79540  Biso   1.000  O
  O33      1.0000 0.11900  0.64300  0.68400  Biso   1.000  O
  O34      1.0000 0.88100  0.64300  0.81600  Biso   1.000  O
  O35      1.0000 0.61900  0.14300  0.68400  Biso   1.000  O
  O36      1.0000 0.38100  0.14300  0.81600  Biso   1.000  O
  O37      1.0000 0.88100  0.35700  0.31600  Biso   1.000  O
  O38      1.0000 0.11900  0.35700  0.18400  Biso   1.000  O
  O39      1.0000 0.38100  0.85700  0.31600  Biso   1.000  O
  O40      1.0000 0.61900  0.85700  0.18400  Biso   1.000  O
  H1       1.0000 0.23530  0.01990  0.53680  Biso   1.000  H
  H2       1.0000 0.76470  0.01990  0.96320  Biso   1.000  H
  H3       1.0000 0.73530  0.51990  0.53680  Biso   1.000  H
  H4       1.0000 0.26470  0.51990  0.96320  Biso   1.000  H
  H5       1.0000 0.76470  0.98010  0.46320  Biso   1.000  H
  H6       1.0000 0.23530  0.98010  0.03680  Biso   1.000  H
  H7       1.0000 0.26470  0.48010  0.46320  Biso   1.000  H
  H8       1.0000 0.73530  0.48010  0.03680  Biso   1.000  H
  H9       1.0000 0.19600  0.82520  0.53030  Biso   1.000  H
  H10      1.0000 0.80400  0.82520  0.96970  Biso   1.000  H
  H11      1.0000 0.69600  0.32520  0.53030  Biso   1.000  H
  H12      1.0000 0.30400  0.32520  0.96970  Biso   1.000  H
  H13      1.0000 0.80400  0.17480  0.46970  Biso   1.000  H
  H14      1.0000 0.19600  0.17480  0.03030  Biso   1.000  H
  H15      1.0000 0.30400  0.67480  0.46970  Biso   1.000  H
  H16      1.0000 0.69600  0.67480  0.03030  Biso   1.000  H
  H17      1.0000 0.04150  0.20390  0.41650  Biso   1.000  H
  H18      1.0000 0.95850  0.20390  0.08350  Biso   1.000  H
  H19      1.0000 0.54150  0.70390  0.41650  Biso   1.000  H
  H20      1.0000 0.45850  0.70390  0.08350  Biso   1.000  H
  H21      1.0000 0.95850  0.79610  0.58350  Biso   1.000  H
  H22      1.0000 0.04150  0.79610  0.91650  Biso   1.000  H
  H23      1.0000 0.45850  0.29610  0.58350  Biso   1.000  H
  H24      1.0000 0.54150  0.29610  0.91650  Biso   1.000  H
  H25      1.0000 0.04150  0.23180  0.51180  Biso   1.000  H
  H26      1.0000 0.95850  0.23180  0.98820  Biso   1.000  H
  H27      1.0000 0.54150  0.73180  0.51180  Biso   1.000  H
  H28      1.0000 0.45850  0.73180  0.98820  Biso   1.000  H
  H29      1.0000 0.95850  0.76820  0.48820  Biso   1.000  H
  H30      1.0000 0.04150  0.76820  0.01180  Biso   1.000  H
  H31      1.0000 0.45850  0.26820  0.48820  Biso   1.000  H
  H32      1.0000 0.54150  0.26820  0.01180  Biso   1.000  H
  H33      1.0000 0.00480  0.80330  0.33600  Biso   1.000  H
  H34      1.0000 0.99520  0.80330  0.16400  Biso   1.000  H
  H35      1.0000 0.50480  0.30330  0.33600  Biso   1.000  H
  H36      1.0000 0.49520  0.30330  0.16400  Biso   1.000  H
  H37      1.0000 0.99520  0.19670  0.66400  Biso   1.000  H
  H38      1.0000 0.00480  0.19670  0.83600  Biso   1.000  H
  H39      1.0000 0.49520  0.69670  0.66400  Biso   1.000  H
  H40      1.0000 0.50480  0.69670  0.83600  Biso   1.000  H
  H41      1.0000 0.05400  0.83810  0.41480  Biso   1.000  H
  H42      1.0000 0.94600  0.83810  0.08520  Biso   1.000  H
  H43      1.0000 0.55400  0.33810  0.41480  Biso   1.000  H
  H44      1.0000 0.44600  0.33810  0.08520  Biso   1.000  H
  H45      1.0000 0.94600  0.16190  0.58520  Biso   1.000  H
  H46      1.0000 0.05400  0.16190  0.91480  Biso   1.000  H
  H47      1.0000 0.44600  0.66190  0.58520  Biso   1.000  H
  H48      1.0000 0.55400  0.66190  0.91480  Biso   1.000  H
  H49      1.0000 0.24160  0.77260  0.66420  Biso   1.000  H
  H50      1.0000 0.75840  0.77260  0.83580  Biso   1.000  H
  H51      1.0000 0.74160  0.27260  0.66420  Biso   1.000  H
  H52      1.0000 0.25840  0.27260  0.83580  Biso   1.000  H
  H53      1.0000 0.75840  0.22740  0.33580  Biso   1.000  H
  H54      1.0000 0.24160  0.22740  0.16420  Biso   1.000  H
  H55      1.0000 0.25840  0.72740  0.33580  Biso   1.000  H
  H56      1.0000 0.74160  0.72740  0.16420  Biso   1.000  H
  H57      1.0000 0.25830  0.99380  0.67210  Biso   1.000  H
  H58      1.0000 0.74170  0.99380  0.82790  Biso   1.000  H
  H59      1.0000 0.75830  0.49380  0.67210  Biso   1.000  H
  H60      1.0000 0.24170  0.49380  0.82790  Biso   1.000  H
  H61      1.0000 0.74170  0.00620  0.32790  Biso   1.000  H
  H62      1.0000 0.25830  0.00620  0.17210  Biso   1.000  H
  H63      1.0000 0.24170  0.50620  0.32790  Biso   1.000  H
  H64      1.0000 0.75830  0.50620  0.17210  Biso   1.000  H
  H65      1.0000 0.15220  0.15610  0.44150  Biso   1.000  H
  H66      1.0000 0.84780  0.15610  0.05850  Biso   1.000  H
  H67      1.0000 0.65220  0.65610  0.44150  Biso   1.000  H
  H68      1.0000 0.34780  0.65610  0.05850  Biso   1.000  H
  H69      1.0000 0.84780  0.84390  0.55850  Biso   1.000  H
  H70      1.0000 0.15220  0.84390  0.94150  Biso   1.000  H
  H71      1.0000 0.34780  0.34390  0.55850  Biso   1.000  H
  H72      1.0000 0.65220  0.34390  0.94150  Biso   1.000  H
  H73      1.0000 0.01550  0.46690  0.34960  Biso   1.000  H
  H74      1.0000 0.98450  0.46690  0.15040  Biso   1.000  H
  H75      1.0000 0.51550  0.96690  0.34960  Biso   1.000  H
  H76      1.0000 0.48450  0.96690  0.15040  Biso   1.000  H
  H77      1.0000 0.98450  0.53310  0.65040  Biso   1.000  H
  H78      1.0000 0.01550  0.53310  0.84960  Biso   1.000  H
  H79      1.0000 0.48450  0.03310  0.65040  Biso   1.000  H
  H80      1.0000 0.51550  0.03310  0.84960  Biso   1.000  H
  O41      1.0000 0.00000  0.29100  0.25000  Biso   1.000  O
  O42      1.0000 0.50000  0.79100  0.25000  Biso   1.000  O
  O43      1.0000 0.00000  0.70900  0.75000  Biso   1.000  O
  O44      1.0000 0.50000  0.20900  0.75000  Biso   1.000  O
