data_image0
_cell_length_a       7.7257
_cell_length_b       8.3648
_cell_length_c       11.5516
_cell_angle_alpha    76.654
_cell_angle_beta     82.088
_cell_angle_gamma    63.636

_symmetry_space_group_name_H-M    "P 1"
_symmetry_int_tables_number       1

loop_
  _symmetry_equiv_pos_as_xyz
  'x, y, z'

loop_
  _atom_site_label
  _atom_site_occupancy
  _atom_site_fract_x
  _atom_site_fract_y
  _atom_site_fract_z
  _atom_site_thermal_displace_type
  _atom_site_B_iso_or_equiv
  _atom_site_type_symbol
  Cu1      1.0000 0.14532  0.03637  0.44881  Biso   1.000  Cu
  Cu2      1.0000 0.85468  0.96363  0.55119  Biso   1.000  Cu
  O1       1.0000 0.23560  0.97170  0.61250  Biso   1.000  O
  O2       1.0000 0.76440  0.02830  0.38750  Biso   1.000  O
  O3       1.0000 0.98850  0.91050  0.69890  Biso   1.000  O
  O4       1.0000 0.01150  0.08950  0.30110  Biso   1.000  O
  O5       1.0000 0.12170  0.81570  0.91090  Biso   1.000  O
  O6       1.0000 0.87830  0.18430  0.08910  Biso   1.000  O
  O7       1.0000 0.42410  0.46870  0.35540  Biso   1.000  O
  O8       1.0000 0.57590  0.53130  0.64460  Biso   1.000  O
  O9       1.0000 0.01940  0.71450  0.52820  Biso   1.000  O
  O10      1.0000 0.98060  0.28550  0.47180  Biso   1.000  O
  O11      1.0000 0.26240  0.77990  0.43780  Biso   1.000  O
  O12      1.0000 0.73760  0.22010  0.56220  Biso   1.000  O
  O13      1.0000 0.73940  0.50880  0.24000  Biso   1.000  O
  O14      1.0000 0.26060  0.49120  0.76000  Biso   1.000  O
  O15      1.0000 0.61710  0.79500  0.17230  Biso   1.000  O
  O16      1.0000 0.38290  0.20500  0.82770  Biso   1.000  O
  O17      1.0000 0.37390  0.09640  0.35530  Biso   1.000  O
  O18      1.0000 0.62610  0.90360  0.64470  Biso   1.000  O
  H1       1.0000 0.36520  0.11120  0.28060  Biso   1.000  H
  H2       1.0000 0.63480  0.88880  0.71940  Biso   1.000  H
  H3       1.0000 0.48160  0.07900  0.37870  Biso   1.000  H
  H4       1.0000 0.51840  0.92100  0.62130  Biso   1.000  H
  N1       1.0000 0.61010  0.64580  0.19520  Biso   1.000  N
  N2       1.0000 0.38990  0.35420  0.80480  Biso   1.000  N
  C1       1.0000 0.14350  0.92120  0.70090  Biso   1.000  C
  C2       1.0000 0.85650  0.07880  0.29910  Biso   1.000  C
  C3       1.0000 0.23490  0.87280  0.81900  Biso   1.000  C
  C4       1.0000 0.76510  0.12720  0.18100  Biso   1.000  C
  H5       1.0000 0.36440  0.77600  0.81640  Biso   1.000  H
  H6       1.0000 0.63560  0.22400  0.18360  Biso   1.000  H
  H7       1.0000 0.24420  0.97770  0.83460  Biso   1.000  H
  H8       1.0000 0.75580  0.02230  0.16540  Biso   1.000  H
  C5       1.0000 0.20100  0.73550  0.02040  Biso   1.000  C
  C6       1.0000 0.79900  0.26450  0.97960  Biso   1.000  C
  C7       1.0000 0.10050  0.65840  0.10330  Biso   1.000  C
  C8       1.0000 0.89950  0.34160  0.89670  Biso   1.000  C
  H9       1.0000 0.98440  0.66540  0.08340  Biso   1.000  H
  H10      1.0000 0.01560  0.33460  0.91660  Biso   1.000  H
  C9       1.0000 0.16930  0.57080  0.21560  Biso   1.000  C
  C10      1.0000 0.83070  0.42920  0.78440  Biso   1.000  C
  H11      1.0000 0.09890  0.51960  0.27030  Biso   1.000  H
  H12      1.0000 0.90110  0.48040  0.72970  Biso   1.000  H
  C11      1.0000 0.34190  0.55810  0.24790  Biso   1.000  C
  C12      1.0000 0.65810  0.44190  0.75210  Biso   1.000  C
  C13      1.0000 0.43700  0.64130  0.16420  Biso   1.000  C
  C14      1.0000 0.56300  0.35870  0.83580  Biso   1.000  C
  C15      1.0000 0.37120  0.73000  0.05100  Biso   1.000  C
  C16      1.0000 0.62880  0.27000  0.94900  Biso   1.000  C
  H13      1.0000 0.43930  0.78440  0.99690  Biso   1.000  H
  H14      1.0000 0.56070  0.21560  0.00310  Biso   1.000  H
  C17      1.0000 0.29270  0.48040  0.45640  Biso   1.000  C
  C18      1.0000 0.70730  0.51960  0.54360  Biso   1.000  C
  H15      1.0000 0.36400  0.40450  0.52670  Biso   1.000  H
  H16      1.0000 0.63600  0.59550  0.47330  Biso   1.000  H
  H17      1.0000 0.20200  0.43500  0.44460  Biso   1.000  H
  H18      1.0000 0.79800  0.56500  0.55540  Biso   1.000  H
  C19      1.0000 0.18200  0.67500  0.47600  Biso   1.000  C
  C20      1.0000 0.81800  0.32500  0.52400  Biso   1.000  C
  O19      1.0000 0.28350  0.16000  0.11890  Biso   1.000  O
  O20      1.0000 0.71650  0.84000  0.88110  Biso   1.000  O
  H19      1.0000 0.33680  0.04410  0.12600  Biso   1.000  H
  H20      1.0000 0.66320  0.95590  0.87400  Biso   1.000  H
  H21      1.0000 0.21450  0.22080  0.05770  Biso   1.000  H
  H22      1.0000 0.78550  0.77920  0.94230  Biso   1.000  H
