data_image0
_cell_length_a       22.0462
_cell_length_b       12.2957
_cell_length_c       9.756
_cell_angle_alpha    90
_cell_angle_beta     90
_cell_angle_gamma    90

_symmetry_space_group_name_H-M    "P 1"
_symmetry_int_tables_number       1

loop_
  _symmetry_equiv_pos_as_xyz
  'x, y, z'

loop_
  _atom_site_label
  _atom_site_occupancy
  _atom_site_fract_x
  _atom_site_fract_y
  _atom_site_fract_z
  _atom_site_thermal_displace_type
  _atom_site_B_iso_or_equiv
  _atom_site_type_symbol
  Mo1      1.0000 0.69560  0.67640  0.02660  Biso   1.000  Mo
  Mo2      1.0000 0.80440  0.82360  0.52660  Biso   1.000  Mo
  Mo3      1.0000 0.19560  0.82360  0.97340  Biso   1.000  Mo
  Mo4      1.0000 0.30440  0.67640  0.47340  Biso   1.000  Mo
  Mo5      1.0000 0.30440  0.32360  0.97340  Biso   1.000  Mo
  Mo6      1.0000 0.19560  0.17640  0.47340  Biso   1.000  Mo
  Mo7      1.0000 0.80440  0.17640  0.02660  Biso   1.000  Mo
  Mo8      1.0000 0.69560  0.32360  0.52660  Biso   1.000  Mo
  Cu1      1.0000 0.75390  0.93080  0.86270  Biso   1.000  Cu
  Cu2      1.0000 0.74610  0.56920  0.36270  Biso   1.000  Cu
  Cu3      1.0000 0.25390  0.56920  0.13730  Biso   1.000  Cu
  Cu4      1.0000 0.24610  0.93080  0.63730  Biso   1.000  Cu
  Cu5      1.0000 0.24610  0.06920  0.13730  Biso   1.000  Cu
  Cu6      1.0000 0.25390  0.43080  0.63730  Biso   1.000  Cu
  Cu7      1.0000 0.74610  0.43080  0.86270  Biso   1.000  Cu
  Cu8      1.0000 0.75390  0.06920  0.36270  Biso   1.000  Cu
  O1       1.0000 0.71060  0.81000  0.97220  Biso   1.000  O
  O2       1.0000 0.78940  0.69000  0.47220  Biso   1.000  O
  O3       1.0000 0.21060  0.69000  0.02780  Biso   1.000  O
  O4       1.0000 0.28940  0.81000  0.52780  Biso   1.000  O
  O5       1.0000 0.28940  0.19000  0.02780  Biso   1.000  O
  O6       1.0000 0.21060  0.31000  0.52780  Biso   1.000  O
  O7       1.0000 0.78940  0.31000  0.97220  Biso   1.000  O
  O8       1.0000 0.71060  0.19000  0.47220  Biso   1.000  O
  O9       1.0000 0.73210  0.58330  0.91480  Biso   1.000  O
  O10      1.0000 0.76790  0.91670  0.41480  Biso   1.000  O
  O11      1.0000 0.23210  0.91670  0.08520  Biso   1.000  O
  O12      1.0000 0.26790  0.58330  0.58520  Biso   1.000  O
  O13      1.0000 0.26790  0.41670  0.08520  Biso   1.000  O
  O14      1.0000 0.23210  0.08330  0.58520  Biso   1.000  O
  O15      1.0000 0.76790  0.08330  0.91480  Biso   1.000  O
  O16      1.0000 0.73210  0.41670  0.41480  Biso   1.000  O
  O17      1.0000 0.72140  0.65930  0.19600  Biso   1.000  O
  O18      1.0000 0.77860  0.84070  0.69600  Biso   1.000  O
  O19      1.0000 0.22140  0.84070  0.80400  Biso   1.000  O
  O20      1.0000 0.27860  0.65930  0.30400  Biso   1.000  O
  O21      1.0000 0.27860  0.34070  0.80400  Biso   1.000  O
  O22      1.0000 0.22140  0.15930  0.30400  Biso   1.000  O
  O23      1.0000 0.77860  0.15930  0.19600  Biso   1.000  O
  O24      1.0000 0.72140  0.34070  0.69600  Biso   1.000  O
  O25      1.0000 0.61770  0.65340  0.02420  Biso   1.000  O
  O26      1.0000 0.88230  0.84660  0.52420  Biso   1.000  O
  O27      1.0000 0.11770  0.84660  0.97580  Biso   1.000  O
  O28      1.0000 0.38230  0.65340  0.47580  Biso   1.000  O
  O29      1.0000 0.38230  0.34660  0.97580  Biso   1.000  O
  O30      1.0000 0.11770  0.15340  0.47580  Biso   1.000  O
  O31      1.0000 0.88230  0.15340  0.02420  Biso   1.000  O
  O32      1.0000 0.61770  0.34660  0.52420  Biso   1.000  O
  N1       1.0000 0.67630  0.97190  0.77040  Biso   1.000  N
  N2       1.0000 0.82370  0.52810  0.27040  Biso   1.000  N
  N3       1.0000 0.17630  0.52810  0.22960  Biso   1.000  N
  N4       1.0000 0.32370  0.97190  0.72960  Biso   1.000  N
  N5       1.0000 0.32370  0.02810  0.22960  Biso   1.000  N
  N6       1.0000 0.17630  0.47190  0.72960  Biso   1.000  N
  N7       1.0000 0.82370  0.47190  0.77040  Biso   1.000  N
  N8       1.0000 0.67630  0.02810  0.27040  Biso   1.000  N
  N9       1.0000 0.83170  0.89350  0.95630  Biso   1.000  N
  N10      1.0000 0.66830  0.60650  0.45630  Biso   1.000  N
  N11      1.0000 0.33170  0.60650  0.04370  Biso   1.000  N
  N12      1.0000 0.16830  0.89350  0.54370  Biso   1.000  N
  N13      1.0000 0.16830  0.10650  0.04370  Biso   1.000  N
  N14      1.0000 0.33170  0.39350  0.54370  Biso   1.000  N
  N15      1.0000 0.66830  0.39350  0.95630  Biso   1.000  N
  N16      1.0000 0.83170  0.10650  0.45630  Biso   1.000  N
  C1       1.0000 0.65570  0.07220  0.75300  Biso   1.000  C
  C2       1.0000 0.84430  0.42780  0.25300  Biso   1.000  C
  C3       1.0000 0.15570  0.42780  0.24700  Biso   1.000  C
  C4       1.0000 0.34430  0.07220  0.74700  Biso   1.000  C
  C5       1.0000 0.34430  0.92780  0.24700  Biso   1.000  C
  C6       1.0000 0.15570  0.57220  0.74700  Biso   1.000  C
  C7       1.0000 0.84430  0.57220  0.75300  Biso   1.000  C
  C8       1.0000 0.65570  0.92780  0.25300  Biso   1.000  C
  C9       1.0000 0.60360  0.09530  0.67750  Biso   1.000  C
  C10      1.0000 0.89640  0.40470  0.17750  Biso   1.000  C
  C11      1.0000 0.10360  0.40470  0.32250  Biso   1.000  C
  C12      1.0000 0.39640  0.09530  0.82250  Biso   1.000  C
  C13      1.0000 0.39640  0.90470  0.32250  Biso   1.000  C
  C14      1.0000 0.10360  0.59530  0.82250  Biso   1.000  C
  C15      1.0000 0.89640  0.59530  0.67750  Biso   1.000  C
  C16      1.0000 0.60360  0.90470  0.17750  Biso   1.000  C
  C17      1.0000 0.57070  0.01190  0.61660  Biso   1.000  C
  C18      1.0000 0.92930  0.48810  0.11660  Biso   1.000  C
  C19      1.0000 0.07070  0.48810  0.38340  Biso   1.000  C
  C20      1.0000 0.42930  0.01190  0.88340  Biso   1.000  C
  C21      1.0000 0.42930  0.98810  0.38340  Biso   1.000  C
  C22      1.0000 0.07070  0.51190  0.88340  Biso   1.000  C
  C23      1.0000 0.92930  0.51190  0.61660  Biso   1.000  C
  C24      1.0000 0.57070  0.98810  0.11660  Biso   1.000  C
  C25      1.0000 0.59210  0.90660  0.63780  Biso   1.000  C
  C26      1.0000 0.90790  0.59340  0.13780  Biso   1.000  C
  C27      1.0000 0.09210  0.59340  0.36220  Biso   1.000  C
  C28      1.0000 0.40790  0.90660  0.86220  Biso   1.000  C
  C29      1.0000 0.40790  0.09340  0.36220  Biso   1.000  C
  C30      1.0000 0.09210  0.40660  0.86220  Biso   1.000  C
  C31      1.0000 0.90790  0.40660  0.63780  Biso   1.000  C
  C32      1.0000 0.59210  0.09340  0.13780  Biso   1.000  C
  C33      1.0000 0.64400  0.89090  0.71320  Biso   1.000  C
  C34      1.0000 0.85600  0.60910  0.21320  Biso   1.000  C
  C35      1.0000 0.14400  0.60910  0.28680  Biso   1.000  C
  C36      1.0000 0.35600  0.89090  0.78680  Biso   1.000  C
  C37      1.0000 0.35600  0.10910  0.28680  Biso   1.000  C
  C38      1.0000 0.14400  0.39090  0.78680  Biso   1.000  C
  C39      1.0000 0.85600  0.39090  0.71320  Biso   1.000  C
  C40      1.0000 0.64400  0.10910  0.21320  Biso   1.000  C
  C41      1.0000 0.88560  0.88620  0.89170  Biso   1.000  C
  C42      1.0000 0.61440  0.61380  0.39170  Biso   1.000  C
  C43      1.0000 0.38560  0.61380  0.10830  Biso   1.000  C
  C44      1.0000 0.11440  0.88620  0.60830  Biso   1.000  C
  C45      1.0000 0.11440  0.11380  0.10830  Biso   1.000  C
  C46      1.0000 0.38560  0.38620  0.60830  Biso   1.000  C
  C47      1.0000 0.61440  0.38620  0.89170  Biso   1.000  C
  C48      1.0000 0.88560  0.11380  0.39170  Biso   1.000  C
  C49      1.0000 0.94010  0.87920  0.96300  Biso   1.000  C
  C50      1.0000 0.55990  0.62080  0.46300  Biso   1.000  C
  C51      1.0000 0.44010  0.62080  0.03700  Biso   1.000  C
  C52      1.0000 0.05990  0.87920  0.53700  Biso   1.000  C
  C53      1.0000 0.05990  0.12080  0.03700  Biso   1.000  C
  C54      1.0000 0.44010  0.37920  0.53700  Biso   1.000  C
  C55      1.0000 0.55990  0.37920  0.96300  Biso   1.000  C
  C56      1.0000 0.94010  0.12080  0.46300  Biso   1.000  C
  C57      1.0000 0.93990  0.88080  0.10630  Biso   1.000  C
  C58      1.0000 0.56010  0.61920  0.60630  Biso   1.000  C
  C59      1.0000 0.43990  0.61920  0.89370  Biso   1.000  C
  C60      1.0000 0.06010  0.88080  0.39370  Biso   1.000  C
  C61      1.0000 0.06010  0.11920  0.89370  Biso   1.000  C
  C62      1.0000 0.43990  0.38080  0.39370  Biso   1.000  C
  C63      1.0000 0.56010  0.38080  0.10630  Biso   1.000  C
  C64      1.0000 0.93990  0.11920  0.60630  Biso   1.000  C
  C65      1.0000 0.88380  0.88680  0.17180  Biso   1.000  C
  C66      1.0000 0.61620  0.61320  0.67180  Biso   1.000  C
  C67      1.0000 0.38380  0.61320  0.82820  Biso   1.000  C
  C68      1.0000 0.11620  0.88680  0.32820  Biso   1.000  C
  C69      1.0000 0.11620  0.11320  0.82820  Biso   1.000  C
  C70      1.0000 0.38380  0.38680  0.32820  Biso   1.000  C
  C71      1.0000 0.61620  0.38680  0.17180  Biso   1.000  C
  C72      1.0000 0.88380  0.11320  0.67180  Biso   1.000  C
  C73      1.0000 0.83160  0.89290  0.09480  Biso   1.000  C
  C74      1.0000 0.66840  0.60710  0.59480  Biso   1.000  C
  C75      1.0000 0.33160  0.60710  0.90520  Biso   1.000  C
  C76      1.0000 0.16840  0.89290  0.40520  Biso   1.000  C
  C77      1.0000 0.16840  0.10710  0.90520  Biso   1.000  C
  C78      1.0000 0.33160  0.39290  0.40520  Biso   1.000  C
  C79      1.0000 0.66840  0.39290  0.09480  Biso   1.000  C
  C80      1.0000 0.83160  0.10710  0.59480  Biso   1.000  C
  C81      1.0000 0.51720  0.03540  0.53220  Biso   1.000  C
  C82      1.0000 0.98280  0.46460  0.03220  Biso   1.000  C
  C83      1.0000 0.01720  0.46460  0.46780  Biso   1.000  C
  C84      1.0000 0.48280  0.03540  0.96780  Biso   1.000  C
  C85      1.0000 0.48280  0.96460  0.46780  Biso   1.000  C
  C86      1.0000 0.01720  0.53540  0.96780  Biso   1.000  C
  C87      1.0000 0.98280  0.53540  0.53220  Biso   1.000  C
  C88      1.0000 0.51720  0.96460  0.03220  Biso   1.000  C
  C89      1.0000 0.99780  0.87750  0.18170  Biso   1.000  C
  C90      1.0000 0.50220  0.62250  0.68170  Biso   1.000  C
  C91      1.0000 0.49780  0.62250  0.81830  Biso   1.000  C
  C92      1.0000 0.00220  0.87750  0.31830  Biso   1.000  C
  C93      1.0000 0.00220  0.12250  0.81830  Biso   1.000  C
  C94      1.0000 0.49780  0.37750  0.31830  Biso   1.000  C
  C95      1.0000 0.50220  0.37750  0.18170  Biso   1.000  C
  C96      1.0000 0.99780  0.12250  0.68170  Biso   1.000  C
  H1       1.0000 0.68030  0.12970  0.78860  Biso   1.000  H
  H2       1.0000 0.81970  0.37030  0.28860  Biso   1.000  H
  H3       1.0000 0.18030  0.37030  0.21140  Biso   1.000  H
  H4       1.0000 0.31970  0.12970  0.71140  Biso   1.000  H
  H5       1.0000 0.31970  0.87030  0.21140  Biso   1.000  H
  H6       1.0000 0.18030  0.62970  0.71140  Biso   1.000  H
  H7       1.0000 0.81970  0.62970  0.78860  Biso   1.000  H
  H8       1.0000 0.68030  0.87030  0.28860  Biso   1.000  H
  H9       1.0000 0.59170  0.16320  0.66570  Biso   1.000  H
  H10      1.0000 0.90830  0.33680  0.16570  Biso   1.000  H
  H11      1.0000 0.09170  0.33680  0.33430  Biso   1.000  H
  H12      1.0000 0.40830  0.16320  0.83430  Biso   1.000  H
  H13      1.0000 0.40830  0.83680  0.33430  Biso   1.000  H
  H14      1.0000 0.09170  0.66320  0.83430  Biso   1.000  H
  H15      1.0000 0.90830  0.66320  0.66570  Biso   1.000  H
  H16      1.0000 0.59170  0.83680  0.16570  Biso   1.000  H
  H17      1.0000 0.57180  0.83980  0.60360  Biso   1.000  H
  H18      1.0000 0.92820  0.66020  0.10360  Biso   1.000  H
  H19      1.0000 0.07180  0.66020  0.39640  Biso   1.000  H
  H20      1.0000 0.42820  0.83980  0.89640  Biso   1.000  H
  H21      1.0000 0.42820  0.16020  0.39640  Biso   1.000  H
  H22      1.0000 0.07180  0.33980  0.89640  Biso   1.000  H
  H23      1.0000 0.92820  0.33980  0.60360  Biso   1.000  H
  H24      1.0000 0.57180  0.16020  0.10360  Biso   1.000  H
  H25      1.0000 0.65930  0.82870  0.73130  Biso   1.000  H
  H26      1.0000 0.84070  0.67130  0.23130  Biso   1.000  H
  H27      1.0000 0.15930  0.67130  0.26870  Biso   1.000  H
  H28      1.0000 0.34070  0.82870  0.76870  Biso   1.000  H
  H29      1.0000 0.34070  0.17130  0.26870  Biso   1.000  H
  H30      1.0000 0.15930  0.32870  0.76870  Biso   1.000  H
  H31      1.0000 0.84070  0.32870  0.73130  Biso   1.000  H
  H32      1.0000 0.65930  0.17130  0.23130  Biso   1.000  H
  H33      1.0000 0.88590  0.88430  0.79440  Biso   1.000  H
  H34      1.0000 0.61410  0.61570  0.29440  Biso   1.000  H
  H35      1.0000 0.38590  0.61570  0.20560  Biso   1.000  H
  H36      1.0000 0.11410  0.88430  0.70560  Biso   1.000  H
  H37      1.0000 0.11410  0.11570  0.20560  Biso   1.000  H
  H38      1.0000 0.38590  0.38430  0.70560  Biso   1.000  H
  H39      1.0000 0.61410  0.38430  0.79440  Biso   1.000  H
  H40      1.0000 0.88590  0.11570  0.29440  Biso   1.000  H
  H41      1.0000 0.97350  0.87740  0.91550  Biso   1.000  H
  H42      1.0000 0.52650  0.62260  0.41550  Biso   1.000  H
  H43      1.0000 0.47350  0.62260  0.08450  Biso   1.000  H
  H44      1.0000 0.02650  0.87740  0.58450  Biso   1.000  H
  H45      1.0000 0.02650  0.12260  0.08450  Biso   1.000  H
  H46      1.0000 0.47350  0.37740  0.58450  Biso   1.000  H
  H47      1.0000 0.52650  0.37740  0.91550  Biso   1.000  H
  H48      1.0000 0.97350  0.12260  0.41550  Biso   1.000  H
  H49      1.0000 0.88070  0.88050  0.26750  Biso   1.000  H
  H50      1.0000 0.61930  0.61950  0.76750  Biso   1.000  H
  H51      1.0000 0.38070  0.61950  0.73250  Biso   1.000  H
  H52      1.0000 0.11930  0.88050  0.23250  Biso   1.000  H
  H53      1.0000 0.11930  0.11950  0.73250  Biso   1.000  H
  H54      1.0000 0.38070  0.38050  0.23250  Biso   1.000  H
  H55      1.0000 0.61930  0.38050  0.26750  Biso   1.000  H
  H56      1.0000 0.88070  0.11950  0.76750  Biso   1.000  H
  H57      1.0000 0.79420  0.89930  0.13640  Biso   1.000  H
  H58      1.0000 0.70580  0.60070  0.63640  Biso   1.000  H
  H59      1.0000 0.29420  0.60070  0.86360  Biso   1.000  H
  H60      1.0000 0.20580  0.89930  0.36360  Biso   1.000  H
  H61      1.0000 0.20580  0.10070  0.86360  Biso   1.000  H
  H62      1.0000 0.29420  0.39930  0.36360  Biso   1.000  H
  H63      1.0000 0.70580  0.39930  0.13640  Biso   1.000  H
  H64      1.0000 0.79420  0.10070  0.63640  Biso   1.000  H
  H65      1.0000 0.50940  0.10340  0.52510  Biso   1.000  H
  H66      1.0000 0.99060  0.39660  0.02510  Biso   1.000  H
  H67      1.0000 0.00940  0.39660  0.47490  Biso   1.000  H
  H68      1.0000 0.49060  0.10340  0.97490  Biso   1.000  H
  H69      1.0000 0.49060  0.89660  0.47490  Biso   1.000  H
  H70      1.0000 0.00940  0.60340  0.97490  Biso   1.000  H
  H71      1.0000 0.99060  0.60340  0.52510  Biso   1.000  H
  H72      1.0000 0.50940  0.89660  0.02510  Biso   1.000  H
  H73      1.0000 0.03360  0.87530  0.12900  Biso   1.000  H
  H74      1.0000 0.46640  0.62470  0.62900  Biso   1.000  H
  H75      1.0000 0.53360  0.62470  0.87100  Biso   1.000  H
  H76      1.0000 0.96640  0.87530  0.37100  Biso   1.000  H
  H77      1.0000 0.96640  0.12470  0.87100  Biso   1.000  H
  H78      1.0000 0.53360  0.37530  0.37100  Biso   1.000  H
  H79      1.0000 0.46640  0.37530  0.12900  Biso   1.000  H
  H80      1.0000 0.03360  0.12470  0.62900  Biso   1.000  H
