data_image0
_cell_length_a       7.2851
_cell_length_b       9.9062
_cell_length_c       9.1407
_cell_angle_alpha    90
_cell_angle_beta     98.207
_cell_angle_gamma    90

_symmetry_space_group_name_H-M    "P 1"
_symmetry_int_tables_number       1

loop_
  _symmetry_equiv_pos_as_xyz
  'x, y, z'

loop_
  _atom_site_label
  _atom_site_occupancy
  _atom_site_fract_x
  _atom_site_fract_y
  _atom_site_fract_z
  _atom_site_thermal_displace_type
  _atom_site_B_iso_or_equiv
  _atom_site_type_symbol
  Cu1      1.0000 0.41990  0.02280  0.96630  Biso   1.000  Cu
  Cu2      1.0000 0.91990  0.97720  0.46630  Biso   1.000  Cu
  S1       1.0000 0.22780  0.85340  0.71090  Biso   1.000  S
  S2       1.0000 0.72780  0.14660  0.21090  Biso   1.000  S
  O1       1.0000 0.20790  0.94620  0.83620  Biso   1.000  O
  O2       1.0000 0.70790  0.05380  0.33620  Biso   1.000  O
  O3       1.0000 0.16700  0.92520  0.56840  Biso   1.000  O
  O4       1.0000 0.66700  0.07480  0.06840  Biso   1.000  O
  O5       1.0000 0.42480  0.81840  0.71550  Biso   1.000  O
  O6       1.0000 0.92480  0.18160  0.21550  Biso   1.000  O
  O7       1.0000 0.11100  0.73520  0.72160  Biso   1.000  O
  O8       1.0000 0.61100  0.26480  0.22160  Biso   1.000  O
  O9       1.0000 0.76420  0.84660  0.61450  Biso   1.000  O
  O10      1.0000 0.26420  0.15340  0.11450  Biso   1.000  O
  N1       1.0000 0.93750  0.82160  0.32170  Biso   1.000  N
  N2       1.0000 0.43750  0.17840  0.82170  Biso   1.000  N
  N3       1.0000 0.92710  0.14120  0.59990  Biso   1.000  N
  N4       1.0000 0.42710  0.85880  0.09990  Biso   1.000  N
  C1       1.0000 0.92970  0.69370  0.36870  Biso   1.000  C
  C2       1.0000 0.42970  0.30630  0.86870  Biso   1.000  C
  C3       1.0000 0.93580  0.58290  0.27720  Biso   1.000  C
  C4       1.0000 0.43580  0.41710  0.77720  Biso   1.000  C
  C5       1.0000 0.95530  0.60170  0.12840  Biso   1.000  C
  C6       1.0000 0.45530  0.39830  0.62840  Biso   1.000  C
  C7       1.0000 0.96980  0.73490  0.08070  Biso   1.000  C
  C8       1.0000 0.46980  0.26510  0.58070  Biso   1.000  C
  C9       1.0000 0.96020  0.84070  0.17890  Biso   1.000  C
  C10      1.0000 0.46020  0.15930  0.67890  Biso   1.000  C
  C11      1.0000 0.94800  0.48280  0.03090  Biso   1.000  C
  C12      1.0000 0.44800  0.51720  0.53090  Biso   1.000  C
  C13      1.0000 0.96280  0.48530  0.88770  Biso   1.000  C
  C14      1.0000 0.46280  0.51470  0.38770  Biso   1.000  C
  C15      1.0000 0.94910  0.36560  0.79170  Biso   1.000  C
  C16      1.0000 0.44910  0.63440  0.29170  Biso   1.000  C
  C17      1.0000 0.90370  0.23670  0.83750  Biso   1.000  C
  C18      1.0000 0.40370  0.76330  0.33750  Biso   1.000  C
  C19      1.0000 0.89500  0.12930  0.74170  Biso   1.000  C
  C20      1.0000 0.39500  0.87070  0.24170  Biso   1.000  C
  C21      1.0000 0.97110  0.26400  0.55410  Biso   1.000  C
  C22      1.0000 0.47110  0.73600  0.05410  Biso   1.000  C
  C23      1.0000 0.98410  0.37720  0.64510  Biso   1.000  C
  C24      1.0000 0.48410  0.62280  0.14510  Biso   1.000  C
  H1       1.0000 0.91960  0.67870  0.46770  Biso   1.000  H
  H2       1.0000 0.41960  0.32130  0.96770  Biso   1.000  H
  H3       1.0000 0.92700  0.49610  0.31450  Biso   1.000  H
  H4       1.0000 0.42700  0.50390  0.81450  Biso   1.000  H
  H5       1.0000 0.98590  0.75250  0.98350  Biso   1.000  H
  H6       1.0000 0.48590  0.24750  0.48350  Biso   1.000  H
  H7       1.0000 0.96980  0.92860  0.14500  Biso   1.000  H
  H8       1.0000 0.46980  0.07140  0.64500  Biso   1.000  H
  H9       1.0000 0.87920  0.22350  0.93360  Biso   1.000  H
  H10      1.0000 0.37920  0.77650  0.43360  Biso   1.000  H
  H11      1.0000 0.86570  0.04460  0.77570  Biso   1.000  H
  H12      1.0000 0.36570  0.95540  0.27570  Biso   1.000  H
  H13      1.0000 0.99410  0.27400  0.45720  Biso   1.000  H
  H14      1.0000 0.49410  0.72600  0.95720  Biso   1.000  H
  H15      1.0000 0.01590  0.46040  0.60890  Biso   1.000  H
  H16      1.0000 0.51590  0.53960  0.10890  Biso   1.000  H
  H17      1.0000 0.83680  0.80780  0.67220  Biso   1.000  H
  H18      1.0000 0.33680  0.19220  0.17220  Biso   1.000  H
  H19      1.0000 0.67000  0.84130  0.64760  Biso   1.000  H
  H20      1.0000 0.17000  0.15870  0.14760  Biso   1.000  H
