data_image0
_cell_length_a       10.1125
_cell_length_b       11.695
_cell_length_c       27.4427
_cell_angle_alpha    90
_cell_angle_beta     94.882
_cell_angle_gamma    90

_symmetry_space_group_name_H-M    "P 1"
_symmetry_int_tables_number       1

loop_
  _symmetry_equiv_pos_as_xyz
  'x, y, z'

loop_
  _atom_site_label
  _atom_site_occupancy
  _atom_site_fract_x
  _atom_site_fract_y
  _atom_site_fract_z
  _atom_site_thermal_displace_type
  _atom_site_B_iso_or_equiv
  _atom_site_type_symbol
  Cu1      1.0000 0.20735  0.52464  0.47575  Biso   1.000  Cu
  Cu2      1.0000 0.29265  0.02464  0.02425  Biso   1.000  Cu
  Cu3      1.0000 0.79265  0.47536  0.52425  Biso   1.000  Cu
  Cu4      1.0000 0.70735  0.97536  0.97575  Biso   1.000  Cu
  O1       1.0000 0.14013  0.72354  0.65174  Biso   1.000  O
  O2       1.0000 0.35987  0.22354  0.84826  Biso   1.000  O
  O3       1.0000 0.85987  0.27646  0.34826  Biso   1.000  O
  O4       1.0000 0.64013  0.77646  0.15174  Biso   1.000  O
  H1       1.0000 0.10860  0.70950  0.62390  Biso   1.000  H
  H2       1.0000 0.39140  0.20950  0.87610  Biso   1.000  H
  H3       1.0000 0.89140  0.29050  0.37610  Biso   1.000  H
  H4       1.0000 0.60860  0.79050  0.12390  Biso   1.000  H
  O5       1.0000 0.12808  0.64063  0.56534  Biso   1.000  O
  O6       1.0000 0.37192  0.14063  0.93466  Biso   1.000  O
  O7       1.0000 0.87192  0.35937  0.43466  Biso   1.000  O
  O8       1.0000 0.62808  0.85937  0.06534  Biso   1.000  O
  O9       1.0000 0.28438  0.52214  0.54356  Biso   1.000  O
  O10      1.0000 0.21562  0.02214  0.95644  Biso   1.000  O
  O11      1.0000 0.71562  0.47786  0.45644  Biso   1.000  O
  O12      1.0000 0.78438  0.97786  0.04356  Biso   1.000  O
  O13      1.0000 0.62019  0.97153  0.90923  Biso   1.000  O
  O14      1.0000 0.87981  0.47153  0.59077  Biso   1.000  O
  O15      1.0000 0.37981  0.02847  0.09077  Biso   1.000  O
  O16      1.0000 0.12019  0.52847  0.40923  Biso   1.000  O
  O17      1.0000 0.46586  0.84167  0.92109  Biso   1.000  O
  O18      1.0000 0.03414  0.34167  0.57891  Biso   1.000  O
  O19      1.0000 0.53414  0.15833  0.07891  Biso   1.000  O
  O20      1.0000 0.96586  0.65833  0.42109  Biso   1.000  O
  O21      1.0000 0.33332  0.75195  0.84760  Biso   1.000  O
  O22      1.0000 0.16668  0.25195  0.65240  Biso   1.000  O
  O23      1.0000 0.66668  0.24805  0.15240  Biso   1.000  O
  O24      1.0000 0.83332  0.74805  0.34760  Biso   1.000  O
  H5       1.0000 0.36240  0.76120  0.87610  Biso   1.000  H
  H6       1.0000 0.13760  0.26120  0.62390  Biso   1.000  H
  H7       1.0000 0.63760  0.23880  0.12390  Biso   1.000  H
  H8       1.0000 0.86240  0.73880  0.37610  Biso   1.000  H
  O25      1.0000 0.36409  0.40204  0.44872  Biso   1.000  O
  O26      1.0000 0.13591  0.90204  0.05128  Biso   1.000  O
  O27      1.0000 0.63591  0.59796  0.55128  Biso   1.000  O
  O28      1.0000 0.86409  0.09796  0.94872  Biso   1.000  O
  O29      1.0000 0.30124  0.66588  0.46289  Biso   1.000  O
  O30      1.0000 0.19876  0.16588  0.03711  Biso   1.000  O
  O31      1.0000 0.69876  0.33412  0.53711  Biso   1.000  O
  O32      1.0000 0.80124  0.83412  0.96289  Biso   1.000  O
  O33      1.0000 0.09542  0.39566  0.48990  Biso   1.000  O
  O34      1.0000 0.40458  0.89566  0.01010  Biso   1.000  O
  O35      1.0000 0.90458  0.60434  0.51010  Biso   1.000  O
  O36      1.0000 0.59542  0.10434  0.98990  Biso   1.000  O
  H9       1.0000 0.08130  0.38630  0.51970  Biso   1.000  H
  H10      1.0000 0.41870  0.88630  0.98030  Biso   1.000  H
  H11      1.0000 0.91870  0.61370  0.48030  Biso   1.000  H
  H12      1.0000 0.58130  0.11370  0.01970  Biso   1.000  H
  H13      1.0000 0.02590  0.38900  0.47040  Biso   1.000  H
  H14      1.0000 0.47410  0.88900  0.02960  Biso   1.000  H
  H15      1.0000 0.97410  0.61100  0.52960  Biso   1.000  H
  H16      1.0000 0.52590  0.11100  0.97040  Biso   1.000  H
  N1       1.0000 0.39040  0.26658  0.39122  Biso   1.000  N
  N2       1.0000 0.10960  0.76658  0.10878  Biso   1.000  N
  N3       1.0000 0.60960  0.73342  0.60878  Biso   1.000  N
  N4       1.0000 0.89040  0.23342  0.89122  Biso   1.000  N
  N5       1.0000 0.48610  0.76344  0.45043  Biso   1.000  N
  N6       1.0000 0.01390  0.26344  0.04957  Biso   1.000  N
  N7       1.0000 0.51390  0.23656  0.54957  Biso   1.000  N
  N8       1.0000 0.98610  0.73656  0.95043  Biso   1.000  N
  C1       1.0000 0.23070  0.58148  0.57502  Biso   1.000  C
  C2       1.0000 0.26930  0.08148  0.92498  Biso   1.000  C
  C3       1.0000 0.76930  0.41852  0.42498  Biso   1.000  C
  C4       1.0000 0.73070  0.91852  0.07502  Biso   1.000  C
  C5       1.0000 0.29390  0.58240  0.62631  Biso   1.000  C
  C6       1.0000 0.20610  0.08240  0.87369  Biso   1.000  C
  C7       1.0000 0.70610  0.41760  0.37369  Biso   1.000  C
  C8       1.0000 0.79390  0.91760  0.12631  Biso   1.000  C
  C9       1.0000 0.40050  0.51354  0.63833  Biso   1.000  C
  C10      1.0000 0.09950  0.01354  0.86167  Biso   1.000  C
  C11      1.0000 0.59950  0.48646  0.36167  Biso   1.000  C
  C12      1.0000 0.90050  0.98646  0.13833  Biso   1.000  C
  H17      1.0000 0.43120  0.46630  0.61440  Biso   1.000  H
  H18      1.0000 0.06880  0.96630  0.88560  Biso   1.000  H
  H19      1.0000 0.56880  0.53370  0.38560  Biso   1.000  H
  H20      1.0000 0.93120  0.03370  0.11440  Biso   1.000  H
  C13      1.0000 0.46540  0.51160  0.68555  Biso   1.000  C
  C14      1.0000 0.03460  0.01160  0.81445  Biso   1.000  C
  C15      1.0000 0.53460  0.48840  0.31445  Biso   1.000  C
  C16      1.0000 0.96540  0.98840  0.18555  Biso   1.000  C
  C17      1.0000 0.57640  0.44070  0.69726  Biso   1.000  C
  C18      1.0000 0.92360  0.94070  0.80274  Biso   1.000  C
  C19      1.0000 0.42360  0.55930  0.30274  Biso   1.000  C
  C20      1.0000 0.07640  0.05930  0.19726  Biso   1.000  C
  H21      1.0000 0.60730  0.39410  0.67320  Biso   1.000  H
  H22      1.0000 0.89270  0.89410  0.82680  Biso   1.000  H
  H23      1.0000 0.39270  0.60590  0.32680  Biso   1.000  H
  H24      1.0000 0.10730  0.10590  0.17320  Biso   1.000  H
  C21      1.0000 0.63900  0.43940  0.74313  Biso   1.000  C
  C22      1.0000 0.86100  0.93940  0.75687  Biso   1.000  C
  C23      1.0000 0.36100  0.56060  0.25687  Biso   1.000  C
  C24      1.0000 0.13900  0.06060  0.24313  Biso   1.000  C
  H25      1.0000 0.71300  0.39330  0.75030  Biso   1.000  H
  H26      1.0000 0.78700  0.89330  0.74970  Biso   1.000  H
  H27      1.0000 0.28700  0.60670  0.24970  Biso   1.000  H
  H28      1.0000 0.21300  0.10670  0.25030  Biso   1.000  H
  C25      1.0000 0.59060  0.50820  0.77932  Biso   1.000  C
  C26      1.0000 0.90940  0.00820  0.72068  Biso   1.000  C
  C27      1.0000 0.40940  0.49180  0.22068  Biso   1.000  C
  C28      1.0000 0.09060  0.99180  0.27932  Biso   1.000  C
  H29      1.0000 0.63250  0.50640  0.81080  Biso   1.000  H
  H30      1.0000 0.86750  0.00640  0.68920  Biso   1.000  H
  H31      1.0000 0.36750  0.49360  0.18920  Biso   1.000  H
  H32      1.0000 0.13250  0.99360  0.31080  Biso   1.000  H
  C29      1.0000 0.48390  0.57770  0.76958  Biso   1.000  C
  C30      1.0000 0.01610  0.07770  0.73042  Biso   1.000  C
  C31      1.0000 0.51610  0.42230  0.23042  Biso   1.000  C
  C32      1.0000 0.98390  0.92230  0.26958  Biso   1.000  C
  H33      1.0000 0.45380  0.62160  0.79460  Biso   1.000  H
  H34      1.0000 0.04620  0.12160  0.70540  Biso   1.000  H
  H35      1.0000 0.54620  0.37840  0.20540  Biso   1.000  H
  H36      1.0000 0.95380  0.87840  0.29460  Biso   1.000  H
  C33      1.0000 0.41730  0.58456  0.72200  Biso   1.000  C
  C34      1.0000 0.08270  0.08456  0.77800  Biso   1.000  C
  C35      1.0000 0.58270  0.41544  0.27800  Biso   1.000  C
  C36      1.0000 0.91730  0.91544  0.22200  Biso   1.000  C
  C37      1.0000 0.30840  0.65918  0.70990  Biso   1.000  C
  C38      1.0000 0.19160  0.15918  0.79010  Biso   1.000  C
  C39      1.0000 0.69160  0.34082  0.29010  Biso   1.000  C
  C40      1.0000 0.80840  0.84082  0.20990  Biso   1.000  C
  C41      1.0000 0.24670  0.65497  0.66302  Biso   1.000  C
  C42      1.0000 0.25330  0.15497  0.83698  Biso   1.000  C
  C43      1.0000 0.75330  0.34503  0.33698  Biso   1.000  C
  C44      1.0000 0.74670  0.84503  0.16302  Biso   1.000  C
  C45      1.0000 0.25500  0.73863  0.74784  Biso   1.000  C
  C46      1.0000 0.24500  0.23863  0.75216  Biso   1.000  C
  C47      1.0000 0.74500  0.26137  0.25216  Biso   1.000  C
  C48      1.0000 0.75500  0.76137  0.24784  Biso   1.000  C
  H37      1.0000 0.17640  0.77650  0.73280  Biso   1.000  H
  H38      1.0000 0.32360  0.27650  0.76720  Biso   1.000  H
  H39      1.0000 0.82360  0.22350  0.26720  Biso   1.000  H
  H40      1.0000 0.67640  0.72350  0.23280  Biso   1.000  H
  H41      1.0000 0.22740  0.69220  0.77450  Biso   1.000  H
  H42      1.0000 0.27260  0.19220  0.72550  Biso   1.000  H
  H43      1.0000 0.77260  0.30780  0.22550  Biso   1.000  H
  H44      1.0000 0.72740  0.80780  0.27450  Biso   1.000  H
  C49      1.0000 0.35040  0.82986  0.76938  Biso   1.000  C
  C50      1.0000 0.14960  0.32986  0.73062  Biso   1.000  C
  C51      1.0000 0.64960  0.17014  0.23062  Biso   1.000  C
  C52      1.0000 0.85040  0.67014  0.26938  Biso   1.000  C
  C53      1.0000 0.39860  0.91842  0.74015  Biso   1.000  C
  C54      1.0000 0.10140  0.41842  0.75985  Biso   1.000  C
  C55      1.0000 0.60140  0.08158  0.25985  Biso   1.000  C
  C56      1.0000 0.89860  0.58158  0.24015  Biso   1.000  C
  C57      1.0000 0.35320  0.93400  0.69017  Biso   1.000  C
  C58      1.0000 0.14680  0.43400  0.80983  Biso   1.000  C
  C59      1.0000 0.64680  0.06600  0.30983  Biso   1.000  C
  C60      1.0000 0.85320  0.56600  0.19017  Biso   1.000  C
  H45      1.0000 0.29010  0.88410  0.67550  Biso   1.000  H
  H46      1.0000 0.20990  0.38410  0.82450  Biso   1.000  H
  H47      1.0000 0.70990  0.11590  0.32450  Biso   1.000  H
  H48      1.0000 0.79010  0.61590  0.17550  Biso   1.000  H
  C61      1.0000 0.40020  0.02030  0.66330  Biso   1.000  C
  C62      1.0000 0.09980  0.52030  0.83670  Biso   1.000  C
  C63      1.0000 0.59980  0.97970  0.33670  Biso   1.000  C
  C64      1.0000 0.90020  0.47970  0.16330  Biso   1.000  C
  H49      1.0000 0.36810  0.02880  0.63070  Biso   1.000  H
  H50      1.0000 0.13190  0.52880  0.86930  Biso   1.000  H
  H51      1.0000 0.63190  0.97120  0.36930  Biso   1.000  H
  H52      1.0000 0.86810  0.47120  0.13070  Biso   1.000  H
  C65      1.0000 0.49590  0.09660  0.68375  Biso   1.000  C
  C66      1.0000 0.00410  0.59660  0.81625  Biso   1.000  C
  C67      1.0000 0.50410  0.90340  0.31625  Biso   1.000  C
  C68      1.0000 0.99590  0.40340  0.18375  Biso   1.000  C
  H53      1.0000 0.52810  0.15450  0.66480  Biso   1.000  H
  H54      1.0000 0.97190  0.65450  0.83520  Biso   1.000  H
  H55      1.0000 0.47190  0.84550  0.33520  Biso   1.000  H
  H56      1.0000 0.02810  0.34550  0.16480  Biso   1.000  H
  C69      1.0000 0.54150  0.08530  0.73170  Biso   1.000  C
  C70      1.0000 0.95850  0.58530  0.76830  Biso   1.000  C
  C71      1.0000 0.45850  0.91470  0.26830  Biso   1.000  C
  C72      1.0000 0.04150  0.41470  0.23170  Biso   1.000  C
  H57      1.0000 0.60550  0.13590  0.74520  Biso   1.000  H
  H58      1.0000 0.89450  0.63590  0.75480  Biso   1.000  H
  H59      1.0000 0.39450  0.86410  0.25480  Biso   1.000  H
  H60      1.0000 0.10550  0.36410  0.24520  Biso   1.000  H
  C73      1.0000 0.49350  0.99839  0.76108  Biso   1.000  C
  C74      1.0000 0.00650  0.49839  0.73892  Biso   1.000  C
  C75      1.0000 0.50650  0.00161  0.23892  Biso   1.000  C
  C76      1.0000 0.99350  0.50161  0.26108  Biso   1.000  C
  C77      1.0000 0.53480  0.98979  0.81113  Biso   1.000  C
  C78      1.0000 0.96520  0.48979  0.68887  Biso   1.000  C
  C79      1.0000 0.46520  0.01021  0.18887  Biso   1.000  C
  C80      1.0000 0.03480  0.51021  0.31113  Biso   1.000  C
  H61      1.0000 0.59910  0.03990  0.82470  Biso   1.000  H
  H62      1.0000 0.90090  0.53990  0.67530  Biso   1.000  H
  H63      1.0000 0.40090  0.96010  0.17530  Biso   1.000  H
  H64      1.0000 0.09910  0.46010  0.32470  Biso   1.000  H
  C81      1.0000 0.48310  0.90985  0.84037  Biso   1.000  C
  C82      1.0000 0.01690  0.40985  0.65963  Biso   1.000  C
  C83      1.0000 0.51690  0.09015  0.15963  Biso   1.000  C
  C84      1.0000 0.98310  0.59015  0.34037  Biso   1.000  C
  C85      1.0000 0.52580  0.90722  0.89399  Biso   1.000  C
  C86      1.0000 0.97420  0.40722  0.60601  Biso   1.000  C
  C87      1.0000 0.47420  0.09278  0.10601  Biso   1.000  C
  C88      1.0000 0.02580  0.59278  0.39399  Biso   1.000  C
  C89      1.0000 0.38740  0.83080  0.81900  Biso   1.000  C
  C90      1.0000 0.11260  0.33080  0.68100  Biso   1.000  C
  C91      1.0000 0.61260  0.16920  0.18100  Biso   1.000  C
  C92      1.0000 0.88740  0.66920  0.31900  Biso   1.000  C
  C93      1.0000 0.49570  0.20690  0.41973  Biso   1.000  C
  C94      1.0000 0.00430  0.70690  0.08027  Biso   1.000  C
  C95      1.0000 0.50430  0.79310  0.58027  Biso   1.000  C
  C96      1.0000 0.99570  0.29310  0.91973  Biso   1.000  C
  H65      1.0000 0.53170  0.25530  0.44580  Biso   1.000  H
  H66      1.0000 0.96830  0.75530  0.05420  Biso   1.000  H
  H67      1.0000 0.46830  0.74470  0.55420  Biso   1.000  H
  H68      1.0000 0.03170  0.24470  0.94580  Biso   1.000  H
  H69      1.0000 0.56430  0.18720  0.39910  Biso   1.000  H
  H70      1.0000 0.93570  0.68720  0.10090  Biso   1.000  H
  H71      1.0000 0.43570  0.81280  0.60090  Biso   1.000  H
  H72      1.0000 0.06430  0.31280  0.89910  Biso   1.000  H
  H73      1.0000 0.46090  0.13850  0.43320  Biso   1.000  H
  H74      1.0000 0.03910  0.63850  0.06680  Biso   1.000  H
  H75      1.0000 0.53910  0.86150  0.56680  Biso   1.000  H
  H76      1.0000 0.96090  0.36150  0.93320  Biso   1.000  H
  C97      1.0000 0.35230  0.22530  0.34201  Biso   1.000  C
  C98      1.0000 0.14770  0.72530  0.15799  Biso   1.000  C
  C99      1.0000 0.64770  0.77470  0.65799  Biso   1.000  C
  C100     1.0000 0.85230  0.27470  0.84201  Biso   1.000  C
  H77      1.0000 0.27910  0.26980  0.32770  Biso   1.000  H
  H78      1.0000 0.22090  0.76980  0.17230  Biso   1.000  H
  H79      1.0000 0.72090  0.73020  0.67230  Biso   1.000  H
  H80      1.0000 0.77910  0.23020  0.82770  Biso   1.000  H
  H81      1.0000 0.32650  0.14650  0.34340  Biso   1.000  H
  H82      1.0000 0.17350  0.64650  0.15660  Biso   1.000  H
  H83      1.0000 0.67350  0.85350  0.65660  Biso   1.000  H
  H84      1.0000 0.82650  0.35350  0.84340  Biso   1.000  H
  H85      1.0000 0.42610  0.23250  0.32240  Biso   1.000  H
  H86      1.0000 0.07390  0.73250  0.17760  Biso   1.000  H
  H87      1.0000 0.57390  0.76750  0.67760  Biso   1.000  H
  H88      1.0000 0.92610  0.26750  0.82240  Biso   1.000  H
  C101     1.0000 0.33700  0.35900  0.40839  Biso   1.000  C
  C102     1.0000 0.16300  0.85900  0.09161  Biso   1.000  C
  C103     1.0000 0.66300  0.64100  0.59161  Biso   1.000  C
  C104     1.0000 0.83700  0.14100  0.90839  Biso   1.000  C
  H89      1.0000 0.27210  0.39540  0.38790  Biso   1.000  H
  H90      1.0000 0.22790  0.89540  0.11210  Biso   1.000  H
  H91      1.0000 0.72790  0.60460  0.61210  Biso   1.000  H
  H92      1.0000 0.77210  0.10460  0.88790  Biso   1.000  H
  C105     1.0000 0.62900  0.76390  0.44729  Biso   1.000  C
  C106     1.0000 0.87100  0.26390  0.05271  Biso   1.000  C
  C107     1.0000 0.37100  0.23610  0.55271  Biso   1.000  C
  C108     1.0000 0.12900  0.73610  0.94729  Biso   1.000  C
  H93      1.0000 0.66520  0.69130  0.45800  Biso   1.000  H
  H94      1.0000 0.83480  0.19130  0.04200  Biso   1.000  H
  H95      1.0000 0.33480  0.30870  0.54200  Biso   1.000  H
  H96      1.0000 0.16520  0.80870  0.95800  Biso   1.000  H
  H97      1.0000 0.66850  0.82340  0.46780  Biso   1.000  H
  H98      1.0000 0.83150  0.32340  0.03220  Biso   1.000  H
  H99      1.0000 0.33150  0.17660  0.53220  Biso   1.000  H
  H100     1.0000 0.16850  0.67660  0.96780  Biso   1.000  H
  H101     1.0000 0.64760  0.77720  0.41400  Biso   1.000  H
  H102     1.0000 0.85240  0.27720  0.08600  Biso   1.000  H
  H103     1.0000 0.35240  0.22280  0.58600  Biso   1.000  H
  H104     1.0000 0.14760  0.72280  0.91400  Biso   1.000  H
  C109     1.0000 0.41490  0.87060  0.44461  Biso   1.000  C
  C110     1.0000 0.08510  0.37060  0.05539  Biso   1.000  C
  C111     1.0000 0.58510  0.12940  0.55539  Biso   1.000  C
  C112     1.0000 0.91490  0.62940  0.94461  Biso   1.000  C
  H105     1.0000 0.35430  0.86730  0.41580  Biso   1.000  H
  H106     1.0000 0.14570  0.36730  0.08420  Biso   1.000  H
  H107     1.0000 0.64570  0.13270  0.58420  Biso   1.000  H
  H108     1.0000 0.85430  0.63270  0.91580  Biso   1.000  H
  H109     1.0000 0.47680  0.93190  0.44160  Biso   1.000  H
  H110     1.0000 0.02320  0.43190  0.05840  Biso   1.000  H
  H111     1.0000 0.52320  0.06810  0.55840  Biso   1.000  H
  H112     1.0000 0.97680  0.56810  0.94160  Biso   1.000  H
  H113     1.0000 0.36630  0.88370  0.47270  Biso   1.000  H
  H114     1.0000 0.13370  0.38370  0.02730  Biso   1.000  H
  H115     1.0000 0.63370  0.11630  0.52730  Biso   1.000  H
  H116     1.0000 0.86630  0.61630  0.97270  Biso   1.000  H
  C113     1.0000 0.42320  0.66900  0.46017  Biso   1.000  C
  C114     1.0000 0.07680  0.16900  0.03983  Biso   1.000  C
  C115     1.0000 0.57680  0.33100  0.53983  Biso   1.000  C
  C116     1.0000 0.92320  0.83100  0.96017  Biso   1.000  C
  H117     1.0000 0.47180  0.60190  0.46520  Biso   1.000  H
  H118     1.0000 0.02820  0.10190  0.03480  Biso   1.000  H
  H119     1.0000 0.52820  0.39810  0.53480  Biso   1.000  H
  H120     1.0000 0.97180  0.89810  0.96520  Biso   1.000  H
  O37      1.0000 0.75660  0.03940  0.46174  Biso   1.000  O
  O38      1.0000 0.74340  0.53940  0.03826  Biso   1.000  O
  O39      1.0000 0.24340  0.96060  0.53826  Biso   1.000  O
  O40      1.0000 0.25660  0.46060  0.96174  Biso   1.000  O
  N9       1.0000 0.96620  0.06140  0.43931  Biso   1.000  N
  N10      1.0000 0.53380  0.56140  0.06069  Biso   1.000  N
  N11      1.0000 0.03380  0.93860  0.56069  Biso   1.000  N
  N12      1.0000 0.46620  0.43860  0.93931  Biso   1.000  N
  C117     1.0000 0.95540  0.96440  0.40805  Biso   1.000  C
  C118     1.0000 0.54460  0.46440  0.09195  Biso   1.000  C
  C119     1.0000 0.04460  0.03560  0.59195  Biso   1.000  C
  C120     1.0000 0.45540  0.53560  0.90805  Biso   1.000  C
  H121     1.0000 0.87690  0.92210  0.41380  Biso   1.000  H
  H122     1.0000 0.62310  0.42210  0.08620  Biso   1.000  H
  H123     1.0000 0.12310  0.07790  0.58620  Biso   1.000  H
  H124     1.0000 0.37690  0.57790  0.91380  Biso   1.000  H
  H125     1.0000 0.03200  0.91650  0.41460  Biso   1.000  H
  H126     1.0000 0.46800  0.41650  0.08540  Biso   1.000  H
  H127     1.0000 0.96800  0.08350  0.58540  Biso   1.000  H
  H128     1.0000 0.53200  0.58350  0.91460  Biso   1.000  H
  H129     1.0000 0.95010  0.98900  0.37460  Biso   1.000  H
  H130     1.0000 0.54990  0.48900  0.12540  Biso   1.000  H
  H131     1.0000 0.04990  0.01100  0.62540  Biso   1.000  H
  H132     1.0000 0.45010  0.51100  0.87460  Biso   1.000  H
  C121     1.0000 0.08650  0.12650  0.44023  Biso   1.000  C
  C122     1.0000 0.41350  0.62650  0.05977  Biso   1.000  C
  C123     1.0000 0.91350  0.87350  0.55977  Biso   1.000  C
  C124     1.0000 0.58650  0.37350  0.94023  Biso   1.000  C
  H133     1.0000 0.08610  0.17160  0.41100  Biso   1.000  H
  H134     1.0000 0.41390  0.67160  0.08900  Biso   1.000  H
  H135     1.0000 0.91390  0.82840  0.58900  Biso   1.000  H
  H136     1.0000 0.58610  0.32840  0.91100  Biso   1.000  H
  H137     1.0000 0.16120  0.07560  0.44210  Biso   1.000  H
  H138     1.0000 0.33880  0.57560  0.05790  Biso   1.000  H
  H139     1.0000 0.83880  0.92440  0.55790  Biso   1.000  H
  H140     1.0000 0.66120  0.42440  0.94210  Biso   1.000  H
  H141     1.0000 0.09280  0.17610  0.46820  Biso   1.000  H
  H142     1.0000 0.40720  0.67610  0.03180  Biso   1.000  H
  H143     1.0000 0.90720  0.82390  0.53180  Biso   1.000  H
  H144     1.0000 0.59280  0.32390  0.96820  Biso   1.000  H
  C125     1.0000 0.86290  0.08990  0.46361  Biso   1.000  C
  C126     1.0000 0.63710  0.58990  0.03639  Biso   1.000  C
  C127     1.0000 0.13710  0.91010  0.53639  Biso   1.000  C
  C128     1.0000 0.36290  0.41010  0.96361  Biso   1.000  C
  H145     1.0000 0.87220  0.15380  0.48380  Biso   1.000  H
  H146     1.0000 0.62780  0.65380  0.01620  Biso   1.000  H
  H147     1.0000 0.12780  0.84620  0.51620  Biso   1.000  H
  H148     1.0000 0.37220  0.34620  0.98380  Biso   1.000  H
