data_image0
_cell_length_a       8.9606
_cell_length_b       20.9052
_cell_length_c       20.0946
_cell_angle_alpha    90
_cell_angle_beta     91.24
_cell_angle_gamma    90

_symmetry_space_group_name_H-M    "P 1"
_symmetry_int_tables_number       1

loop_
  _symmetry_equiv_pos_as_xyz
  'x, y, z'

loop_
  _atom_site_label
  _atom_site_occupancy
  _atom_site_fract_x
  _atom_site_fract_y
  _atom_site_fract_z
  _atom_site_thermal_displace_type
  _atom_site_B_iso_or_equiv
  _atom_site_type_symbol
  Cu1      1.0000 0.82984  0.25517  0.08601  Biso   1.000  Cu
  Cu2      1.0000 0.17016  0.25517  0.41399  Biso   1.000  Cu
  Cu3      1.0000 0.32984  0.75517  0.08601  Biso   1.000  Cu
  Cu4      1.0000 0.67016  0.75517  0.41399  Biso   1.000  Cu
  Cu5      1.0000 0.17016  0.74483  0.91399  Biso   1.000  Cu
  Cu6      1.0000 0.82984  0.74483  0.58601  Biso   1.000  Cu
  Cu7      1.0000 0.67016  0.24483  0.91399  Biso   1.000  Cu
  Cu8      1.0000 0.32984  0.24483  0.58601  Biso   1.000  Cu
  Cl1      1.0000 0.69316  0.17763  0.03147  Biso   1.000  Cl
  Cl2      1.0000 0.30684  0.17763  0.46853  Biso   1.000  Cl
  Cl3      1.0000 0.19316  0.67763  0.03147  Biso   1.000  Cl
  Cl4      1.0000 0.80684  0.67763  0.46853  Biso   1.000  Cl
  Cl5      1.0000 0.30684  0.82237  0.96853  Biso   1.000  Cl
  Cl6      1.0000 0.69316  0.82237  0.53147  Biso   1.000  Cl
  Cl7      1.0000 0.80684  0.32237  0.96853  Biso   1.000  Cl
  Cl8      1.0000 0.19316  0.32237  0.53147  Biso   1.000  Cl
  Cl9      1.0000 0.63922  0.29327  0.14414  Biso   1.000  Cl
  Cl10     1.0000 0.36078  0.29327  0.35586  Biso   1.000  Cl
  Cl11     1.0000 0.13922  0.79327  0.14414  Biso   1.000  Cl
  Cl12     1.0000 0.86078  0.79327  0.35586  Biso   1.000  Cl
  Cl13     1.0000 0.36078  0.70673  0.85586  Biso   1.000  Cl
  Cl14     1.0000 0.63922  0.70673  0.64414  Biso   1.000  Cl
  Cl15     1.0000 0.86078  0.20673  0.85586  Biso   1.000  Cl
  Cl16     1.0000 0.13922  0.20673  0.64414  Biso   1.000  Cl
  C1       1.0000 0.02270  0.24144  0.21652  Biso   1.000  C
  C2       1.0000 0.97730  0.24144  0.28348  Biso   1.000  C
  C3       1.0000 0.52270  0.74144  0.21652  Biso   1.000  C
  C4       1.0000 0.47730  0.74144  0.28348  Biso   1.000  C
  C5       1.0000 0.97730  0.75856  0.78348  Biso   1.000  C
  C6       1.0000 0.02270  0.75856  0.71652  Biso   1.000  C
  C7       1.0000 0.47730  0.25856  0.78348  Biso   1.000  C
  C8       1.0000 0.52270  0.25856  0.71652  Biso   1.000  C
  C9       1.0000 0.04260  0.18323  0.18366  Biso   1.000  C
  C10      1.0000 0.95740  0.18323  0.31634  Biso   1.000  C
  C11      1.0000 0.54260  0.68323  0.18366  Biso   1.000  C
  C12      1.0000 0.45740  0.68323  0.31634  Biso   1.000  C
  C13      1.0000 0.95740  0.81677  0.81634  Biso   1.000  C
  C14      1.0000 0.04260  0.81677  0.68366  Biso   1.000  C
  C15      1.0000 0.45740  0.31677  0.81634  Biso   1.000  C
  C16      1.0000 0.54260  0.31677  0.68366  Biso   1.000  C
  C17      1.0000 0.01850  0.12488  0.21634  Biso   1.000  C
  C18      1.0000 0.98150  0.12488  0.28366  Biso   1.000  C
  C19      1.0000 0.51850  0.62488  0.21634  Biso   1.000  C
  C20      1.0000 0.48150  0.62488  0.28366  Biso   1.000  C
  C21      1.0000 0.98150  0.87512  0.78366  Biso   1.000  C
  C22      1.0000 0.01850  0.87512  0.71634  Biso   1.000  C
  C23      1.0000 0.48150  0.37512  0.78366  Biso   1.000  C
  C24      1.0000 0.51850  0.37512  0.71634  Biso   1.000  C
  C25      1.0000 0.05430  0.30393  0.18374  Biso   1.000  C
  C26      1.0000 0.94570  0.30393  0.31626  Biso   1.000  C
  C27      1.0000 0.55430  0.80393  0.18374  Biso   1.000  C
  C28      1.0000 0.44570  0.80393  0.31626  Biso   1.000  C
  C29      1.0000 0.94570  0.69607  0.81626  Biso   1.000  C
  C30      1.0000 0.05430  0.69607  0.68374  Biso   1.000  C
  C31      1.0000 0.44570  0.19607  0.81626  Biso   1.000  C
  C32      1.0000 0.55430  0.19607  0.68374  Biso   1.000  C
  C33      1.0000 0.16410  0.34483  0.20890  Biso   1.000  C
  C34      1.0000 0.83590  0.34483  0.29110  Biso   1.000  C
  C35      1.0000 0.66410  0.84483  0.20890  Biso   1.000  C
  C36      1.0000 0.33590  0.84483  0.29110  Biso   1.000  C
  C37      1.0000 0.83590  0.65517  0.79110  Biso   1.000  C
  C38      1.0000 0.16410  0.65517  0.70890  Biso   1.000  C
  C39      1.0000 0.33590  0.15517  0.79110  Biso   1.000  C
  C40      1.0000 0.66410  0.15517  0.70890  Biso   1.000  C
  H1       1.0000 0.21800  0.33110  0.24370  Biso   1.000  H
  H2       1.0000 0.78200  0.33110  0.25630  Biso   1.000  H
  H3       1.0000 0.71800  0.83110  0.24370  Biso   1.000  H
  H4       1.0000 0.28200  0.83110  0.25630  Biso   1.000  H
  H5       1.0000 0.78200  0.66890  0.75630  Biso   1.000  H
  H6       1.0000 0.21800  0.66890  0.74370  Biso   1.000  H
  H7       1.0000 0.28200  0.16890  0.75630  Biso   1.000  H
  H8       1.0000 0.71800  0.16890  0.74370  Biso   1.000  H
  C41      1.0000 0.18140  0.40455  0.18074  Biso   1.000  C
  C42      1.0000 0.81860  0.40455  0.31926  Biso   1.000  C
  C43      1.0000 0.68140  0.90455  0.18074  Biso   1.000  C
  C44      1.0000 0.31860  0.90455  0.31926  Biso   1.000  C
  C45      1.0000 0.81860  0.59545  0.81926  Biso   1.000  C
  C46      1.0000 0.18140  0.59545  0.68074  Biso   1.000  C
  C47      1.0000 0.31860  0.09545  0.81926  Biso   1.000  C
  C48      1.0000 0.68140  0.09545  0.68074  Biso   1.000  C
  H9       1.0000 0.25500  0.43300  0.19660  Biso   1.000  H
  H10      1.0000 0.74500  0.43300  0.30340  Biso   1.000  H
  H11      1.0000 0.75500  0.93300  0.19660  Biso   1.000  H
  H12      1.0000 0.24500  0.93300  0.30340  Biso   1.000  H
  H13      1.0000 0.74500  0.56700  0.80340  Biso   1.000  H
  H14      1.0000 0.25500  0.56700  0.69660  Biso   1.000  H
  H15      1.0000 0.24500  0.06700  0.80340  Biso   1.000  H
  H16      1.0000 0.75500  0.06700  0.69660  Biso   1.000  H
  C49      1.0000 0.08760  0.42261  0.12857  Biso   1.000  C
  C50      1.0000 0.91240  0.42261  0.37143  Biso   1.000  C
  C51      1.0000 0.58760  0.92261  0.12857  Biso   1.000  C
  C52      1.0000 0.41240  0.92261  0.37143  Biso   1.000  C
  C53      1.0000 0.91240  0.57739  0.87143  Biso   1.000  C
  C54      1.0000 0.08760  0.57739  0.62857  Biso   1.000  C
  C55      1.0000 0.41240  0.07739  0.87143  Biso   1.000  C
  C56      1.0000 0.58760  0.07739  0.62857  Biso   1.000  C
  H17      1.0000 0.09200  0.46470  0.10860  Biso   1.000  H
  H18      1.0000 0.90800  0.46470  0.39140  Biso   1.000  H
  H19      1.0000 0.59200  0.96470  0.10860  Biso   1.000  H
  H20      1.0000 0.40800  0.96470  0.39140  Biso   1.000  H
  H21      1.0000 0.90800  0.53530  0.89140  Biso   1.000  H
  H22      1.0000 0.09200  0.53530  0.60860  Biso   1.000  H
  H23      1.0000 0.40800  0.03530  0.89140  Biso   1.000  H
  H24      1.0000 0.59200  0.03530  0.60860  Biso   1.000  H
  C57      1.0000 0.98390  0.37911  0.10458  Biso   1.000  C
  C58      1.0000 0.01610  0.37911  0.39542  Biso   1.000  C
  C59      1.0000 0.48390  0.87911  0.10458  Biso   1.000  C
  C60      1.0000 0.51610  0.87911  0.39542  Biso   1.000  C
  C61      1.0000 0.01610  0.62089  0.89542  Biso   1.000  C
  C62      1.0000 0.98390  0.62089  0.60458  Biso   1.000  C
  C63      1.0000 0.51610  0.12089  0.89542  Biso   1.000  C
  C64      1.0000 0.48390  0.12089  0.60458  Biso   1.000  C
  H25      1.0000 0.92200  0.38820  0.06970  Biso   1.000  H
  H26      1.0000 0.07800  0.38820  0.43030  Biso   1.000  H
  H27      1.0000 0.42200  0.88820  0.06970  Biso   1.000  H
  H28      1.0000 0.57800  0.88820  0.43030  Biso   1.000  H
  H29      1.0000 0.07800  0.61180  0.93030  Biso   1.000  H
  H30      1.0000 0.92200  0.61180  0.56970  Biso   1.000  H
  H31      1.0000 0.57800  0.11180  0.93030  Biso   1.000  H
  H32      1.0000 0.42200  0.11180  0.56970  Biso   1.000  H
  N1       1.0000 0.96810  0.32035  0.13019  Biso   1.000  N
  N2       1.0000 0.03190  0.32035  0.36981  Biso   1.000  N
  N3       1.0000 0.46810  0.82035  0.13019  Biso   1.000  N
  N4       1.0000 0.53190  0.82035  0.36981  Biso   1.000  N
  N5       1.0000 0.03190  0.67965  0.86981  Biso   1.000  N
  N6       1.0000 0.96810  0.67965  0.63019  Biso   1.000  N
  N7       1.0000 0.53190  0.17965  0.86981  Biso   1.000  N
  N8       1.0000 0.46810  0.17965  0.63019  Biso   1.000  N
  C65      1.0000 0.10150  0.18119  0.11469  Biso   1.000  C
  C66      1.0000 0.89850  0.18119  0.38531  Biso   1.000  C
  C67      1.0000 0.60150  0.68119  0.11469  Biso   1.000  C
  C68      1.0000 0.39850  0.68119  0.38531  Biso   1.000  C
  C69      1.0000 0.89850  0.81881  0.88531  Biso   1.000  C
  C70      1.0000 0.10150  0.81881  0.61469  Biso   1.000  C
  C71      1.0000 0.39850  0.31881  0.88531  Biso   1.000  C
  C72      1.0000 0.60150  0.31881  0.61469  Biso   1.000  C
  C73      1.0000 0.23560  0.15113  0.10272  Biso   1.000  C
  C74      1.0000 0.76440  0.15113  0.39728  Biso   1.000  C
  C75      1.0000 0.73560  0.65113  0.10272  Biso   1.000  C
  C76      1.0000 0.26440  0.65113  0.39728  Biso   1.000  C
  C77      1.0000 0.76440  0.84887  0.89728  Biso   1.000  C
  C78      1.0000 0.23560  0.84887  0.60272  Biso   1.000  C
  C79      1.0000 0.26440  0.34887  0.89728  Biso   1.000  C
  C80      1.0000 0.73560  0.34887  0.60272  Biso   1.000  C
  H33      1.0000 0.28900  0.13420  0.14040  Biso   1.000  H
  H34      1.0000 0.71100  0.13420  0.35960  Biso   1.000  H
  H35      1.0000 0.78900  0.63420  0.14040  Biso   1.000  H
  H36      1.0000 0.21100  0.63420  0.35960  Biso   1.000  H
  H37      1.0000 0.71100  0.86580  0.85960  Biso   1.000  H
  H38      1.0000 0.28900  0.86580  0.64040  Biso   1.000  H
  H39      1.0000 0.21100  0.36580  0.85960  Biso   1.000  H
  H40      1.0000 0.78900  0.36580  0.64040  Biso   1.000  H
  C81      1.0000 0.28500  0.14617  0.03798  Biso   1.000  C
  C82      1.0000 0.71500  0.14617  0.46202  Biso   1.000  C
  C83      1.0000 0.78500  0.64617  0.03798  Biso   1.000  C
  C84      1.0000 0.21500  0.64617  0.46202  Biso   1.000  C
  C85      1.0000 0.71500  0.85383  0.96202  Biso   1.000  C
  C86      1.0000 0.28500  0.85383  0.53798  Biso   1.000  C
  C87      1.0000 0.21500  0.35383  0.96202  Biso   1.000  C
  C88      1.0000 0.78500  0.35383  0.53798  Biso   1.000  C
  H41      1.0000 0.37700  0.12660  0.02840  Biso   1.000  H
  H42      1.0000 0.62300  0.12660  0.47160  Biso   1.000  H
  H43      1.0000 0.87700  0.62660  0.02840  Biso   1.000  H
  H44      1.0000 0.12300  0.62660  0.47160  Biso   1.000  H
  H45      1.0000 0.62300  0.87340  0.97160  Biso   1.000  H
  H46      1.0000 0.37700  0.87340  0.52840  Biso   1.000  H
  H47      1.0000 0.12300  0.37340  0.97160  Biso   1.000  H
  H48      1.0000 0.87700  0.37340  0.52840  Biso   1.000  H
  C89      1.0000 0.19700  0.17113  0.98706  Biso   1.000  C
  C90      1.0000 0.80300  0.17113  0.51294  Biso   1.000  C
  C91      1.0000 0.69700  0.67113  0.98706  Biso   1.000  C
  C92      1.0000 0.30300  0.67113  0.51294  Biso   1.000  C
  C93      1.0000 0.80300  0.82887  0.01294  Biso   1.000  C
  C94      1.0000 0.19700  0.82887  0.48706  Biso   1.000  C
  C95      1.0000 0.30300  0.32887  0.01294  Biso   1.000  C
  C96      1.0000 0.69700  0.32887  0.48706  Biso   1.000  C
  H49      1.0000 0.22400  0.16800  0.94290  Biso   1.000  H
  H50      1.0000 0.77600  0.16800  0.55710  Biso   1.000  H
  H51      1.0000 0.72400  0.66800  0.94290  Biso   1.000  H
  H52      1.0000 0.27600  0.66800  0.55710  Biso   1.000  H
  H53      1.0000 0.77600  0.83200  0.05710  Biso   1.000  H
  H54      1.0000 0.22400  0.83200  0.44290  Biso   1.000  H
  H55      1.0000 0.27600  0.33200  0.05710  Biso   1.000  H
  H56      1.0000 0.72400  0.33200  0.44290  Biso   1.000  H
  C97      1.0000 0.06620  0.20181  0.00214  Biso   1.000  C
  C98      1.0000 0.93380  0.20181  0.49786  Biso   1.000  C
  C99      1.0000 0.56620  0.70181  0.00214  Biso   1.000  C
  C100     1.0000 0.43380  0.70181  0.49786  Biso   1.000  C
  C101     1.0000 0.93380  0.79819  0.99786  Biso   1.000  C
  C102     1.0000 0.06620  0.79819  0.50214  Biso   1.000  C
  C103     1.0000 0.43380  0.29819  0.99786  Biso   1.000  C
  C104     1.0000 0.56620  0.29819  0.50214  Biso   1.000  C
  H57      1.0000 0.00300  0.21840  0.97050  Biso   1.000  H
  H58      1.0000 0.99700  0.21840  0.52950  Biso   1.000  H
  H59      1.0000 0.50300  0.71840  0.97050  Biso   1.000  H
  H60      1.0000 0.49700  0.71840  0.52950  Biso   1.000  H
  H61      1.0000 0.99700  0.78160  0.02950  Biso   1.000  H
  H62      1.0000 0.00300  0.78160  0.47050  Biso   1.000  H
  H63      1.0000 0.49700  0.28160  0.02950  Biso   1.000  H
  H64      1.0000 0.50300  0.28160  0.47050  Biso   1.000  H
  N9       1.0000 0.01910  0.20755  0.06499  Biso   1.000  N
  N10      1.0000 0.98090  0.20755  0.43501  Biso   1.000  N
  N11      1.0000 0.51910  0.70755  0.06499  Biso   1.000  N
  N12      1.0000 0.48090  0.70755  0.43501  Biso   1.000  N
  N13      1.0000 0.98090  0.79245  0.93501  Biso   1.000  N
  N14      1.0000 0.01910  0.79245  0.56499  Biso   1.000  N
  N15      1.0000 0.48090  0.29245  0.93501  Biso   1.000  N
  N16      1.0000 0.51910  0.29245  0.56499  Biso   1.000  N
  C105     1.0000 0.03000  0.06378  0.17789  Biso   1.000  C
  C106     1.0000 0.97000  0.06378  0.32211  Biso   1.000  C
  C107     1.0000 0.53000  0.56378  0.17789  Biso   1.000  C
  C108     1.0000 0.47000  0.56378  0.32211  Biso   1.000  C
  C109     1.0000 0.97000  0.93622  0.82211  Biso   1.000  C
  C110     1.0000 0.03000  0.93622  0.67789  Biso   1.000  C
  C111     1.0000 0.47000  0.43622  0.82211  Biso   1.000  C
  C112     1.0000 0.53000  0.43622  0.67789  Biso   1.000  C
  C113     1.0000 0.93660  0.05435  0.12295  Biso   1.000  C
  C114     1.0000 0.06340  0.05435  0.37705  Biso   1.000  C
  C115     1.0000 0.43660  0.55435  0.12295  Biso   1.000  C
  C116     1.0000 0.56340  0.55435  0.37705  Biso   1.000  C
  C117     1.0000 0.06340  0.94565  0.87705  Biso   1.000  C
  C118     1.0000 0.93660  0.94565  0.62295  Biso   1.000  C
  C119     1.0000 0.56340  0.44565  0.87705  Biso   1.000  C
  C120     1.0000 0.43660  0.44565  0.62295  Biso   1.000  C
  H65      1.0000 0.87600  0.08090  0.11240  Biso   1.000  H
  H66      1.0000 0.12400  0.08090  0.38760  Biso   1.000  H
  H67      1.0000 0.37600  0.58090  0.11240  Biso   1.000  H
  H68      1.0000 0.62400  0.58090  0.38760  Biso   1.000  H
  H69      1.0000 0.12400  0.91910  0.88760  Biso   1.000  H
  H70      1.0000 0.87600  0.91910  0.61240  Biso   1.000  H
  H71      1.0000 0.62400  0.41910  0.88760  Biso   1.000  H
  H72      1.0000 0.37600  0.41910  0.61240  Biso   1.000  H
  C121     1.0000 0.95160  0.99916  0.08604  Biso   1.000  C
  C122     1.0000 0.04840  0.99916  0.41396  Biso   1.000  C
  C123     1.0000 0.45160  0.49916  0.08604  Biso   1.000  C
  C124     1.0000 0.54840  0.49916  0.41396  Biso   1.000  C
  C125     1.0000 0.04840  0.00084  0.91396  Biso   1.000  C
  C126     1.0000 0.95160  0.00084  0.58604  Biso   1.000  C
  C127     1.0000 0.54840  0.50084  0.91396  Biso   1.000  C
  C128     1.0000 0.45160  0.50084  0.58604  Biso   1.000  C
  H73      1.0000 0.88700  0.99230  0.04810  Biso   1.000  H
  H74      1.0000 0.11300  0.99230  0.45190  Biso   1.000  H
  H75      1.0000 0.38700  0.49230  0.04810  Biso   1.000  H
  H76      1.0000 0.61300  0.49230  0.45190  Biso   1.000  H
  H77      1.0000 0.11300  0.00770  0.95190  Biso   1.000  H
  H78      1.0000 0.88700  0.00770  0.54810  Biso   1.000  H
  H79      1.0000 0.61300  0.50770  0.95190  Biso   1.000  H
  H80      1.0000 0.38700  0.50770  0.54810  Biso   1.000  H
  C129     1.0000 0.05860  0.95520  0.10481  Biso   1.000  C
  C130     1.0000 0.94140  0.95520  0.39519  Biso   1.000  C
  C131     1.0000 0.55860  0.45520  0.10481  Biso   1.000  C
  C132     1.0000 0.44140  0.45520  0.39519  Biso   1.000  C
  C133     1.0000 0.94140  0.04480  0.89519  Biso   1.000  C
  C134     1.0000 0.05860  0.04480  0.60481  Biso   1.000  C
  C135     1.0000 0.44140  0.54480  0.89519  Biso   1.000  C
  C136     1.0000 0.55860  0.54480  0.60481  Biso   1.000  C
  H81      1.0000 0.07300  0.91720  0.08280  Biso   1.000  H
  H82      1.0000 0.92700  0.91720  0.41720  Biso   1.000  H
  H83      1.0000 0.57300  0.41720  0.08280  Biso   1.000  H
  H84      1.0000 0.42700  0.41720  0.41720  Biso   1.000  H
  H85      1.0000 0.92700  0.08280  0.91720  Biso   1.000  H
  H86      1.0000 0.07300  0.08280  0.58280  Biso   1.000  H
  H87      1.0000 0.42700  0.58280  0.91720  Biso   1.000  H
  H88      1.0000 0.57300  0.58280  0.58280  Biso   1.000  H
  C137     1.0000 0.14610  0.96772  0.16092  Biso   1.000  C
  C138     1.0000 0.85390  0.96772  0.33908  Biso   1.000  C
  C139     1.0000 0.64610  0.46772  0.16092  Biso   1.000  C
  C140     1.0000 0.35390  0.46772  0.33908  Biso   1.000  C
  C141     1.0000 0.85390  0.03228  0.83908  Biso   1.000  C
  C142     1.0000 0.14610  0.03228  0.66092  Biso   1.000  C
  C143     1.0000 0.35390  0.53228  0.83908  Biso   1.000  C
  C144     1.0000 0.64610  0.53228  0.66092  Biso   1.000  C
  H89      1.0000 0.22200  0.93720  0.17440  Biso   1.000  H
  H90      1.0000 0.77800  0.93720  0.32560  Biso   1.000  H
  H91      1.0000 0.72200  0.43720  0.17440  Biso   1.000  H
  H92      1.0000 0.27800  0.43720  0.32560  Biso   1.000  H
  H93      1.0000 0.77800  0.06280  0.82560  Biso   1.000  H
  H94      1.0000 0.22200  0.06280  0.67440  Biso   1.000  H
  H95      1.0000 0.27800  0.56280  0.82560  Biso   1.000  H
  H96      1.0000 0.72200  0.56280  0.67440  Biso   1.000  H
  N17      1.0000 0.13420  0.02134  0.19769  Biso   1.000  N
  N18      1.0000 0.86580  0.02134  0.30231  Biso   1.000  N
  N19      1.0000 0.63420  0.52134  0.19769  Biso   1.000  N
  N20      1.0000 0.36580  0.52134  0.30231  Biso   1.000  N
  N21      1.0000 0.86580  0.97866  0.80231  Biso   1.000  N
  N22      1.0000 0.13420  0.97866  0.69769  Biso   1.000  N
  N23      1.0000 0.36580  0.47866  0.80231  Biso   1.000  N
  N24      1.0000 0.63420  0.47866  0.69769  Biso   1.000  N
  O1       1.0000 0.59880  0.06410  0.15860  Biso   1.000  O
  O2       1.0000 0.40120  0.06410  0.34140  Biso   1.000  O
  O3       1.0000 0.09880  0.56410  0.15860  Biso   1.000  O
  O4       1.0000 0.90120  0.56410  0.34140  Biso   1.000  O
  O5       1.0000 0.40120  0.93590  0.84140  Biso   1.000  O
  O6       1.0000 0.59880  0.93590  0.65860  Biso   1.000  O
  O7       1.0000 0.90120  0.43590  0.84140  Biso   1.000  O
  O8       1.0000 0.09880  0.43590  0.65860  Biso   1.000  O
  C145     1.0000 0.57650  0.11160  0.18860  Biso   1.000  C
  C146     1.0000 0.42350  0.11160  0.31140  Biso   1.000  C
  C147     1.0000 0.07650  0.61160  0.18860  Biso   1.000  C
  C148     1.0000 0.92350  0.61160  0.31140  Biso   1.000  C
  C149     1.0000 0.42350  0.88840  0.81140  Biso   1.000  C
  C150     1.0000 0.57650  0.88840  0.68860  Biso   1.000  C
  C151     1.0000 0.92350  0.38840  0.81140  Biso   1.000  C
  C152     1.0000 0.07650  0.38840  0.68860  Biso   1.000  C
  H97      1.0000 0.61800  0.15140  0.17700  Biso   1.000  H
  H98      1.0000 0.38200  0.15140  0.32300  Biso   1.000  H
  H99      1.0000 0.11800  0.65140  0.17700  Biso   1.000  H
  H100     1.0000 0.88200  0.65140  0.32300  Biso   1.000  H
  H101     1.0000 0.38200  0.84860  0.82300  Biso   1.000  H
  H102     1.0000 0.61800  0.84860  0.67700  Biso   1.000  H
  H103     1.0000 0.88200  0.34860  0.82300  Biso   1.000  H
  H104     1.0000 0.11800  0.34860  0.67700  Biso   1.000  H
  N25      1.0000 0.50000  0.11406  0.25000  Biso   1.000  N
  N26      1.0000 0.00000  0.61406  0.25000  Biso   1.000  N
  N27      1.0000 0.50000  0.88594  0.75000  Biso   1.000  N
  N28      1.0000 0.00000  0.38594  0.75000  Biso   1.000  N
  C153     1.0000 0.44640  0.17400  0.27210  Biso   1.000  C
  C154     1.0000 0.55360  0.17400  0.22790  Biso   1.000  C
  C155     1.0000 0.94640  0.67400  0.27210  Biso   1.000  C
  C156     1.0000 0.05360  0.67400  0.22790  Biso   1.000  C
  C157     1.0000 0.55360  0.82600  0.72790  Biso   1.000  C
  C158     1.0000 0.44640  0.82600  0.77210  Biso   1.000  C
  C159     1.0000 0.05360  0.32600  0.72790  Biso   1.000  C
  C160     1.0000 0.94640  0.32600  0.77210  Biso   1.000  C
  H105     1.0000 0.50000  0.20650  0.25000  Biso   1.000  H
  H106     1.0000 0.00000  0.70650  0.25000  Biso   1.000  H
  H107     1.0000 0.50000  0.79350  0.75000  Biso   1.000  H
  H108     1.0000 0.00000  0.29350  0.75000  Biso   1.000  H
  H109     1.0000 0.46700  0.17600  0.31950  Biso   1.000  H
  H110     1.0000 0.53300  0.17600  0.18050  Biso   1.000  H
  H111     1.0000 0.96700  0.67600  0.31950  Biso   1.000  H
  H112     1.0000 0.03300  0.67600  0.18050  Biso   1.000  H
  H113     1.0000 0.53300  0.82400  0.68050  Biso   1.000  H
  H114     1.0000 0.46700  0.82400  0.81950  Biso   1.000  H
  H115     1.0000 0.03300  0.32400  0.68050  Biso   1.000  H
  H116     1.0000 0.96700  0.32400  0.81950  Biso   1.000  H
  H117     1.0000 0.34100  0.17900  0.26500  Biso   1.000  H
  H118     1.0000 0.65900  0.17900  0.23500  Biso   1.000  H
  H119     1.0000 0.84100  0.67900  0.26500  Biso   1.000  H
  H120     1.0000 0.15900  0.67900  0.23500  Biso   1.000  H
  H121     1.0000 0.65900  0.82100  0.73500  Biso   1.000  H
  H122     1.0000 0.34100  0.82100  0.76500  Biso   1.000  H
  H123     1.0000 0.15900  0.32100  0.73500  Biso   1.000  H
  H124     1.0000 0.84100  0.32100  0.76500  Biso   1.000  H
  C161     1.0000 0.47020  0.05760  0.28280  Biso   1.000  C
  C162     1.0000 0.52980  0.05760  0.21720  Biso   1.000  C
  C163     1.0000 0.97020  0.55760  0.28280  Biso   1.000  C
  C164     1.0000 0.02980  0.55760  0.21720  Biso   1.000  C
  C165     1.0000 0.52980  0.94240  0.71720  Biso   1.000  C
  C166     1.0000 0.47020  0.94240  0.78280  Biso   1.000  C
  C167     1.0000 0.02980  0.44240  0.71720  Biso   1.000  C
  C168     1.0000 0.97020  0.44240  0.78280  Biso   1.000  C
  H125     1.0000 0.50000  0.02460  0.25000  Biso   1.000  H
  H126     1.0000 0.00000  0.52460  0.25000  Biso   1.000  H
  H127     1.0000 0.50000  0.97540  0.75000  Biso   1.000  H
  H128     1.0000 0.00000  0.47540  0.75000  Biso   1.000  H
  H129     1.0000 0.52200  0.04600  0.32380  Biso   1.000  H
  H130     1.0000 0.47800  0.04600  0.17620  Biso   1.000  H
  H131     1.0000 0.02200  0.54600  0.32380  Biso   1.000  H
  H132     1.0000 0.97800  0.54600  0.17620  Biso   1.000  H
  H133     1.0000 0.47800  0.95400  0.67620  Biso   1.000  H
  H134     1.0000 0.52200  0.95400  0.82380  Biso   1.000  H
  H135     1.0000 0.97800  0.45400  0.67620  Biso   1.000  H
  H136     1.0000 0.02200  0.45400  0.82380  Biso   1.000  H
  H137     1.0000 0.36500  0.04900  0.29000  Biso   1.000  H
  H138     1.0000 0.63500  0.04900  0.21000  Biso   1.000  H
  H139     1.0000 0.86500  0.54900  0.29000  Biso   1.000  H
  H140     1.0000 0.13500  0.54900  0.21000  Biso   1.000  H
  H141     1.0000 0.63500  0.95100  0.71000  Biso   1.000  H
  H142     1.0000 0.36500  0.95100  0.79000  Biso   1.000  H
  H143     1.0000 0.13500  0.45100  0.71000  Biso   1.000  H
  H144     1.0000 0.86500  0.45100  0.79000  Biso   1.000  H
