data_image0
_cell_length_a       16.08
_cell_length_b       10.678
_cell_length_c       22.186
_cell_angle_alpha    90
_cell_angle_beta     101.95
_cell_angle_gamma    90

_symmetry_space_group_name_H-M    "P 1"
_symmetry_int_tables_number       1

loop_
  _symmetry_equiv_pos_as_xyz
  'x, y, z'

loop_
  _atom_site_label
  _atom_site_occupancy
  _atom_site_fract_x
  _atom_site_fract_y
  _atom_site_fract_z
  _atom_site_thermal_displace_type
  _atom_site_B_iso_or_equiv
  _atom_site_type_symbol
  Cu1      1.0000 0.67595  0.76905  0.99816  Biso   1.000  Cu
  Cu2      1.0000 0.32405  0.26905  0.50184  Biso   1.000  Cu
  Cu3      1.0000 0.32405  0.23095  0.00184  Biso   1.000  Cu
  Cu4      1.0000 0.67595  0.73095  0.49816  Biso   1.000  Cu
  O1       1.0000 0.79410  0.92140  0.90224  Biso   1.000  O
  O2       1.0000 0.20590  0.42140  0.59776  Biso   1.000  O
  O3       1.0000 0.20590  0.07860  0.09776  Biso   1.000  O
  O4       1.0000 0.79410  0.57860  0.40224  Biso   1.000  O
  O5       1.0000 0.66450  0.91330  0.92286  Biso   1.000  O
  O6       1.0000 0.33550  0.41330  0.57714  Biso   1.000  O
  O7       1.0000 0.33550  0.08670  0.07714  Biso   1.000  O
  O8       1.0000 0.66450  0.58670  0.42286  Biso   1.000  O
  O9       1.0000 0.82570  0.07400  0.82112  Biso   1.000  O
  O10      1.0000 0.17430  0.57400  0.67888  Biso   1.000  O
  O11      1.0000 0.17430  0.92600  0.17888  Biso   1.000  O
  O12      1.0000 0.82570  0.42600  0.32112  Biso   1.000  O
  H1       1.0000 0.83440  0.01930  0.84760  Biso   1.000  H
  H2       1.0000 0.16560  0.51930  0.65240  Biso   1.000  H
  H3       1.0000 0.16560  0.98070  0.15240  Biso   1.000  H
  H4       1.0000 0.83440  0.48070  0.34760  Biso   1.000  H
  O13      1.0000 0.72530  0.39470  0.61836  Biso   1.000  O
  O14      1.0000 0.27470  0.89470  0.88164  Biso   1.000  O
  O15      1.0000 0.27470  0.60530  0.38164  Biso   1.000  O
  O16      1.0000 0.72530  0.10530  0.11836  Biso   1.000  O
  H5       1.0000 0.71260  0.44590  0.59040  Biso   1.000  H
  H6       1.0000 0.28740  0.94590  0.90960  Biso   1.000  H
  H7       1.0000 0.28740  0.55410  0.40960  Biso   1.000  H
  H8       1.0000 0.71260  0.05410  0.09040  Biso   1.000  H
  O17      1.0000 0.70330  0.60620  0.56477  Biso   1.000  O
  O18      1.0000 0.29670  0.10620  0.93523  Biso   1.000  O
  O19      1.0000 0.29670  0.39380  0.43523  Biso   1.000  O
  O20      1.0000 0.70330  0.89380  0.06477  Biso   1.000  O
  O21      1.0000 0.72150  0.78140  0.61971  Biso   1.000  O
  O22      1.0000 0.27850  0.28140  0.88029  Biso   1.000  O
  O23      1.0000 0.27850  0.21860  0.38029  Biso   1.000  O
  O24      1.0000 0.72150  0.71860  0.11971  Biso   1.000  O
  O25      1.0000 0.79550  0.74850  0.99018  Biso   1.000  O
  O26      1.0000 0.20450  0.24850  0.50982  Biso   1.000  O
  O27      1.0000 0.20450  0.25150  0.00982  Biso   1.000  O
  O28      1.0000 0.79550  0.75150  0.49018  Biso   1.000  O
  H9       1.0000 0.79230  0.81380  0.96750  Biso   1.000  H
  H10      1.0000 0.20770  0.31380  0.53250  Biso   1.000  H
  H11      1.0000 0.20770  0.18620  0.03250  Biso   1.000  H
  H12      1.0000 0.79230  0.68620  0.46750  Biso   1.000  H
  H13      1.0000 0.82540  0.75560  0.02670  Biso   1.000  H
  H14      1.0000 0.17460  0.25560  0.47330  Biso   1.000  H
  H15      1.0000 0.17460  0.24440  0.97330  Biso   1.000  H
  H16      1.0000 0.82540  0.74440  0.52670  Biso   1.000  H
  N1       1.0000 0.55140  0.76860  0.00073  Biso   1.000  N
  N2       1.0000 0.44860  0.26860  0.49927  Biso   1.000  N
  N3       1.0000 0.44860  0.23140  0.99927  Biso   1.000  N
  N4       1.0000 0.55140  0.73140  0.50073  Biso   1.000  N
  N5       1.0000 0.63970  0.61590  0.94579  Biso   1.000  N
  N6       1.0000 0.36030  0.11590  0.55421  Biso   1.000  N
  N7       1.0000 0.36030  0.38410  0.05421  Biso   1.000  N
  N8       1.0000 0.63970  0.88410  0.44579  Biso   1.000  N
  C1       1.0000 0.50830  0.84850  0.02890  Biso   1.000  C
  C2       1.0000 0.49170  0.34850  0.47110  Biso   1.000  C
  C3       1.0000 0.49170  0.15150  0.97110  Biso   1.000  C
  C4       1.0000 0.50830  0.65150  0.52890  Biso   1.000  C
  H17      1.0000 0.53760  0.91250  0.05270  Biso   1.000  H
  H18      1.0000 0.46240  0.41250  0.44730  Biso   1.000  H
  H19      1.0000 0.46240  0.08750  0.94730  Biso   1.000  H
  H20      1.0000 0.53760  0.58750  0.55270  Biso   1.000  H
  C5       1.0000 0.42090  0.83900  0.02370  Biso   1.000  C
  C6       1.0000 0.57910  0.33900  0.47630  Biso   1.000  C
  C7       1.0000 0.57910  0.16100  0.97630  Biso   1.000  C
  C8       1.0000 0.42090  0.66100  0.52370  Biso   1.000  C
  H21      1.0000 0.39270  0.89680  0.04360  Biso   1.000  H
  H22      1.0000 0.60730  0.39680  0.45640  Biso   1.000  H
  H23      1.0000 0.60730  0.10320  0.95640  Biso   1.000  H
  H24      1.0000 0.39270  0.60320  0.54360  Biso   1.000  H
  C9       1.0000 0.37640  0.74570  0.98980  Biso   1.000  C
  C10      1.0000 0.62360  0.24570  0.51020  Biso   1.000  C
  C11      1.0000 0.62360  0.25430  0.01020  Biso   1.000  C
  C12      1.0000 0.37640  0.75430  0.48980  Biso   1.000  C
  H25      1.0000 0.31800  0.73900  0.98670  Biso   1.000  H
  H26      1.0000 0.68200  0.23900  0.51330  Biso   1.000  H
  H27      1.0000 0.68200  0.26100  0.01330  Biso   1.000  H
  H28      1.0000 0.31800  0.76100  0.48670  Biso   1.000  H
  C13      1.0000 0.41950  0.65930  0.95920  Biso   1.000  C
  C14      1.0000 0.58050  0.15930  0.54080  Biso   1.000  C
  C15      1.0000 0.58050  0.34070  0.04080  Biso   1.000  C
  C16      1.0000 0.41950  0.84070  0.45920  Biso   1.000  C
  C17      1.0000 0.38030  0.55890  0.92070  Biso   1.000  C
  C18      1.0000 0.61970  0.05890  0.57930  Biso   1.000  C
  C19      1.0000 0.61970  0.44110  0.07930  Biso   1.000  C
  C20      1.0000 0.38030  0.94110  0.42070  Biso   1.000  C
  H29      1.0000 0.32220  0.54550  0.91600  Biso   1.000  H
  H30      1.0000 0.67780  0.04550  0.58400  Biso   1.000  H
  H31      1.0000 0.67780  0.45450  0.08400  Biso   1.000  H
  H32      1.0000 0.32220  0.95450  0.41600  Biso   1.000  H
  C21      1.0000 0.42550  0.48420  0.89140  Biso   1.000  C
  C22      1.0000 0.57450  0.98420  0.60860  Biso   1.000  C
  C23      1.0000 0.57450  0.51580  0.10860  Biso   1.000  C
  C24      1.0000 0.42550  0.01580  0.39140  Biso   1.000  C
  H33      1.0000 0.39800  0.42060  0.86630  Biso   1.000  H
  H34      1.0000 0.60200  0.92060  0.63370  Biso   1.000  H
  H35      1.0000 0.60200  0.57940  0.13370  Biso   1.000  H
  H36      1.0000 0.39800  0.07940  0.36630  Biso   1.000  H
  C25      1.0000 0.51400  0.49950  0.89770  Biso   1.000  C
  C26      1.0000 0.48600  0.99950  0.60230  Biso   1.000  C
  C27      1.0000 0.48600  0.50050  0.10230  Biso   1.000  C
  C28      1.0000 0.51400  0.00050  0.39770  Biso   1.000  C
  C29      1.0000 0.56440  0.42500  0.86840  Biso   1.000  C
  C30      1.0000 0.43560  0.92500  0.63160  Biso   1.000  C
  C31      1.0000 0.43560  0.57500  0.13160  Biso   1.000  C
  C32      1.0000 0.56440  0.07500  0.36840  Biso   1.000  C
  H37      1.0000 0.53950  0.36200  0.84180  Biso   1.000  H
  H38      1.0000 0.46050  0.86200  0.65820  Biso   1.000  H
  H39      1.0000 0.46050  0.63800  0.15820  Biso   1.000  H
  H40      1.0000 0.53950  0.13800  0.34180  Biso   1.000  H
  C33      1.0000 0.64880  0.44320  0.87830  Biso   1.000  C
  C34      1.0000 0.35120  0.94320  0.62170  Biso   1.000  C
  C35      1.0000 0.35120  0.55680  0.12170  Biso   1.000  C
  C36      1.0000 0.64880  0.05680  0.37830  Biso   1.000  C
  H41      1.0000 0.68250  0.39260  0.85900  Biso   1.000  H
  H42      1.0000 0.31750  0.89260  0.64100  Biso   1.000  H
  H43      1.0000 0.31750  0.60740  0.14100  Biso   1.000  H
  H44      1.0000 0.68250  0.10740  0.35900  Biso   1.000  H
  C37      1.0000 0.68530  0.53900  0.91790  Biso   1.000  C
  C38      1.0000 0.31470  0.03900  0.58210  Biso   1.000  C
  C39      1.0000 0.31470  0.46100  0.08210  Biso   1.000  C
  C40      1.0000 0.68530  0.96100  0.41790  Biso   1.000  C
  H45      1.0000 0.74400  0.54980  0.92510  Biso   1.000  H
  H46      1.0000 0.25600  0.04980  0.57490  Biso   1.000  H
  H47      1.0000 0.25600  0.45020  0.07490  Biso   1.000  H
  H48      1.0000 0.74400  0.95020  0.42510  Biso   1.000  H
  C41      1.0000 0.55500  0.59430  0.93580  Biso   1.000  C
  C42      1.0000 0.44500  0.09430  0.56420  Biso   1.000  C
  C43      1.0000 0.44500  0.40570  0.06420  Biso   1.000  C
  C44      1.0000 0.55500  0.90570  0.43580  Biso   1.000  C
  C45      1.0000 0.50750  0.67600  0.96650  Biso   1.000  C
  C46      1.0000 0.49250  0.17600  0.53350  Biso   1.000  C
  C47      1.0000 0.49250  0.32400  0.03350  Biso   1.000  C
  C48      1.0000 0.50750  0.82400  0.46650  Biso   1.000  C
  C49      1.0000 0.71720  0.95350  0.89300  Biso   1.000  C
  C50      1.0000 0.28280  0.45350  0.60700  Biso   1.000  C
  C51      1.0000 0.28280  0.04650  0.10700  Biso   1.000  C
  C52      1.0000 0.71720  0.54650  0.39300  Biso   1.000  C
  C53      1.0000 0.68580  0.04420  0.84170  Biso   1.000  C
  C54      1.0000 0.31420  0.54420  0.65830  Biso   1.000  C
  C55      1.0000 0.31420  0.95580  0.15830  Biso   1.000  C
  C56      1.0000 0.68580  0.45580  0.34170  Biso   1.000  C
  C57      1.0000 0.74100  0.10130  0.80670  Biso   1.000  C
  C58      1.0000 0.25900  0.60130  0.69330  Biso   1.000  C
  C59      1.0000 0.25900  0.89870  0.19330  Biso   1.000  C
  C60      1.0000 0.74100  0.39870  0.30670  Biso   1.000  C
  C61      1.0000 0.71070  0.18320  0.75930  Biso   1.000  C
  C62      1.0000 0.28930  0.68320  0.74070  Biso   1.000  C
  C63      1.0000 0.28930  0.81680  0.24070  Biso   1.000  C
  C64      1.0000 0.71070  0.31680  0.25930  Biso   1.000  C
  C65      1.0000 0.62190  0.20480  0.74190  Biso   1.000  C
  C66      1.0000 0.37810  0.70480  0.75810  Biso   1.000  C
  C67      1.0000 0.37810  0.79520  0.25810  Biso   1.000  C
  C68      1.0000 0.62190  0.29520  0.24190  Biso   1.000  C
  C69      1.0000 0.58320  0.27730  0.69080  Biso   1.000  C
  C70      1.0000 0.41680  0.77730  0.80920  Biso   1.000  C
  C71      1.0000 0.41680  0.72270  0.30920  Biso   1.000  C
  C72      1.0000 0.58320  0.22270  0.19080  Biso   1.000  C
  H49      1.0000 0.61720  0.31570  0.66690  Biso   1.000  H
  H50      1.0000 0.38280  0.81570  0.83310  Biso   1.000  H
  H51      1.0000 0.38280  0.68430  0.33310  Biso   1.000  H
  H52      1.0000 0.61720  0.18430  0.16690  Biso   1.000  H
  C73      1.0000 0.49780  0.29260  0.67530  Biso   1.000  C
  C74      1.0000 0.50220  0.79260  0.82470  Biso   1.000  C
  C75      1.0000 0.50220  0.70740  0.32470  Biso   1.000  C
  C76      1.0000 0.49780  0.20740  0.17530  Biso   1.000  C
  H53      1.0000 0.47460  0.34040  0.64090  Biso   1.000  H
  H54      1.0000 0.52540  0.84040  0.85910  Biso   1.000  H
  H55      1.0000 0.52540  0.65960  0.35910  Biso   1.000  H
  H56      1.0000 0.47460  0.15960  0.14090  Biso   1.000  H
  C77      1.0000 0.44390  0.23880  0.70950  Biso   1.000  C
  C78      1.0000 0.55610  0.73880  0.79050  Biso   1.000  C
  C79      1.0000 0.55610  0.76120  0.29050  Biso   1.000  C
  C80      1.0000 0.44390  0.26120  0.20950  Biso   1.000  C
  H57      1.0000 0.38560  0.25200  0.69860  Biso   1.000  H
  H58      1.0000 0.61440  0.75200  0.80140  Biso   1.000  H
  H59      1.0000 0.61440  0.74800  0.30140  Biso   1.000  H
  H60      1.0000 0.38560  0.24800  0.19860  Biso   1.000  H
  C81      1.0000 0.47730  0.16680  0.75900  Biso   1.000  C
  C82      1.0000 0.52270  0.66680  0.74100  Biso   1.000  C
  C83      1.0000 0.52270  0.83320  0.24100  Biso   1.000  C
  C84      1.0000 0.47730  0.33320  0.25900  Biso   1.000  C
  H61      1.0000 0.44150  0.12950  0.78180  Biso   1.000  H
  H62      1.0000 0.55850  0.62950  0.71820  Biso   1.000  H
  H63      1.0000 0.55850  0.87050  0.21820  Biso   1.000  H
  H64      1.0000 0.44150  0.37050  0.28180  Biso   1.000  H
  C85      1.0000 0.56630  0.14770  0.77630  Biso   1.000  C
  C86      1.0000 0.43370  0.64770  0.72370  Biso   1.000  C
  C87      1.0000 0.43370  0.85230  0.22370  Biso   1.000  C
  C88      1.0000 0.56630  0.35230  0.27630  Biso   1.000  C
  C89      1.0000 0.60070  0.07100  0.82660  Biso   1.000  C
  C90      1.0000 0.39930  0.57100  0.67340  Biso   1.000  C
  C91      1.0000 0.39930  0.92900  0.17340  Biso   1.000  C
  C92      1.0000 0.60070  0.42900  0.32660  Biso   1.000  C
  H65      1.0000 0.56480  0.03740  0.85030  Biso   1.000  H
  H66      1.0000 0.43520  0.53740  0.64970  Biso   1.000  H
  H67      1.0000 0.43520  0.96260  0.14970  Biso   1.000  H
  H68      1.0000 0.56480  0.46260  0.35030  Biso   1.000  H
  C93      1.0000 0.77170  0.24250  0.72310  Biso   1.000  C
  C94      1.0000 0.22830  0.74250  0.77690  Biso   1.000  C
  C95      1.0000 0.22830  0.75750  0.27690  Biso   1.000  C
  C96      1.0000 0.77170  0.25750  0.22310  Biso   1.000  C
  H69      1.0000 0.75410  0.21760  0.68030  Biso   1.000  H
  H70      1.0000 0.24590  0.71760  0.81970  Biso   1.000  H
  H71      1.0000 0.24590  0.78240  0.31970  Biso   1.000  H
  H72      1.0000 0.75410  0.28240  0.18030  Biso   1.000  H
  H73      1.0000 0.82790  0.20790  0.73830  Biso   1.000  H
  H74      1.0000 0.17210  0.70790  0.76170  Biso   1.000  H
  H75      1.0000 0.17210  0.79210  0.26170  Biso   1.000  H
  H76      1.0000 0.82790  0.29210  0.23830  Biso   1.000  H
  C97      1.0000 0.77860  0.38540  0.72550  Biso   1.000  C
  C98      1.0000 0.22140  0.88540  0.77450  Biso   1.000  C
  C99      1.0000 0.22140  0.61460  0.27450  Biso   1.000  C
  C100     1.0000 0.77860  0.11460  0.22550  Biso   1.000  C
  C101     1.0000 0.75290  0.45540  0.67230  Biso   1.000  C
  C102     1.0000 0.24710  0.95540  0.82770  Biso   1.000  C
  C103     1.0000 0.24710  0.54460  0.32770  Biso   1.000  C
  C104     1.0000 0.75290  0.04460  0.17230  Biso   1.000  C
  C105     1.0000 0.75260  0.58890  0.67390  Biso   1.000  C
  C106     1.0000 0.24740  0.08890  0.82610  Biso   1.000  C
  C107     1.0000 0.24740  0.41110  0.32610  Biso   1.000  C
  C108     1.0000 0.75260  0.91110  0.17390  Biso   1.000  C
  C109     1.0000 0.72420  0.66700  0.61710  Biso   1.000  C
  C110     1.0000 0.27580  0.16700  0.88290  Biso   1.000  C
  C111     1.0000 0.27580  0.33300  0.38290  Biso   1.000  C
  C112     1.0000 0.72420  0.83300  0.11710  Biso   1.000  C
  C113     1.0000 0.78100  0.64810  0.72800  Biso   1.000  C
  C114     1.0000 0.21900  0.14810  0.77200  Biso   1.000  C
  C115     1.0000 0.21900  0.35190  0.27200  Biso   1.000  C
  C116     1.0000 0.78100  0.85190  0.22800  Biso   1.000  C
  H77      1.0000 0.77800  0.73500  0.72920  Biso   1.000  H
  H78      1.0000 0.22200  0.23500  0.77080  Biso   1.000  H
  H79      1.0000 0.22200  0.26500  0.27080  Biso   1.000  H
  H80      1.0000 0.77800  0.76500  0.22920  Biso   1.000  H
  C117     1.0000 0.81530  0.58240  0.78300  Biso   1.000  C
  C118     1.0000 0.18470  0.08240  0.71700  Biso   1.000  C
  C119     1.0000 0.18470  0.41760  0.21700  Biso   1.000  C
  C120     1.0000 0.81530  0.91760  0.28300  Biso   1.000  C
  C121     1.0000 0.85360  0.64410  0.83770  Biso   1.000  C
  C122     1.0000 0.14640  0.14410  0.66230  Biso   1.000  C
  C123     1.0000 0.14640  0.35590  0.16230  Biso   1.000  C
  C124     1.0000 0.85360  0.85590  0.33770  Biso   1.000  C
  H81      1.0000 0.85220  0.73110  0.83900  Biso   1.000  H
  H82      1.0000 0.14780  0.23110  0.66100  Biso   1.000  H
  H83      1.0000 0.14780  0.26890  0.16100  Biso   1.000  H
  H84      1.0000 0.85220  0.76890  0.33900  Biso   1.000  H
  C125     1.0000 0.89240  0.58070  0.88820  Biso   1.000  C
  C126     1.0000 0.10760  0.08070  0.61180  Biso   1.000  C
  C127     1.0000 0.10760  0.41930  0.11180  Biso   1.000  C
  C128     1.0000 0.89240  0.91930  0.38820  Biso   1.000  C
  H85      1.0000 0.92000  0.62290  0.92330  Biso   1.000  H
  H86      1.0000 0.08000  0.12290  0.57670  Biso   1.000  H
  H87      1.0000 0.08000  0.37710  0.07670  Biso   1.000  H
  H88      1.0000 0.92000  0.87710  0.42330  Biso   1.000  H
  C129     1.0000 0.89020  0.44970  0.88640  Biso   1.000  C
  C130     1.0000 0.10980  0.94970  0.61360  Biso   1.000  C
  C131     1.0000 0.10980  0.55030  0.11360  Biso   1.000  C
  C132     1.0000 0.89020  0.05030  0.38640  Biso   1.000  C
  H89      1.0000 0.91630  0.40570  0.92130  Biso   1.000  H
  H90      1.0000 0.08370  0.90570  0.57870  Biso   1.000  H
  H91      1.0000 0.08370  0.59430  0.07870  Biso   1.000  H
  H92      1.0000 0.91630  0.09430  0.42130  Biso   1.000  H
  C133     1.0000 0.85190  0.38440  0.83610  Biso   1.000  C
  C134     1.0000 0.14810  0.88440  0.66390  Biso   1.000  C
  C135     1.0000 0.14810  0.61560  0.16390  Biso   1.000  C
  C136     1.0000 0.85190  0.11560  0.33610  Biso   1.000  C
  H93      1.0000 0.85030  0.29740  0.83730  Biso   1.000  H
  H94      1.0000 0.14970  0.79740  0.66270  Biso   1.000  H
  H95      1.0000 0.14970  0.70260  0.16270  Biso   1.000  H
  H96      1.0000 0.85030  0.20260  0.33730  Biso   1.000  H
  C137     1.0000 0.81410  0.44910  0.78180  Biso   1.000  C
  C138     1.0000 0.18590  0.94910  0.71820  Biso   1.000  C
  C139     1.0000 0.18590  0.55090  0.21820  Biso   1.000  C
  C140     1.0000 0.81410  0.05090  0.28180  Biso   1.000  C
  O29      1.0000 0.08330  0.22590  0.90970  Biso   1.000  O
  O30      1.0000 0.91670  0.72590  0.59030  Biso   1.000  O
  O31      1.0000 0.91670  0.77410  0.09030  Biso   1.000  O
  O32      1.0000 0.08330  0.27410  0.40970  Biso   1.000  O
  N9       1.0000 0.06320  0.33710  0.82290  Biso   1.000  N
  N10      1.0000 0.93680  0.83710  0.67710  Biso   1.000  N
  N11      1.0000 0.93680  0.66290  0.17710  Biso   1.000  N
  N12      1.0000 0.06320  0.16290  0.32290  Biso   1.000  N
  C141     1.0000 0.01860  0.23850  0.78890  Biso   1.000  C
  C142     1.0000 0.98140  0.73850  0.71110  Biso   1.000  C
  C143     1.0000 0.98140  0.76150  0.21110  Biso   1.000  C
  C144     1.0000 0.01860  0.26150  0.28890  Biso   1.000  C
  H97      1.0000 0.05670  0.19070  0.76980  Biso   1.000  H
  H98      1.0000 0.94330  0.69070  0.73020  Biso   1.000  H
  H99      1.0000 0.94330  0.80930  0.23020  Biso   1.000  H
  H100     1.0000 0.05670  0.30930  0.26980  Biso   1.000  H
  H101     1.0000 0.97370  0.27200  0.75770  Biso   1.000  H
  H102     1.0000 0.02630  0.77200  0.74230  Biso   1.000  H
  H103     1.0000 0.02630  0.72800  0.24230  Biso   1.000  H
  H104     1.0000 0.97370  0.22800  0.25770  Biso   1.000  H
  H105     1.0000 0.99480  0.18530  0.81590  Biso   1.000  H
  H106     1.0000 0.00520  0.68530  0.68410  Biso   1.000  H
  H107     1.0000 0.00520  0.81470  0.18410  Biso   1.000  H
  H108     1.0000 0.99480  0.31470  0.31590  Biso   1.000  H
  C145     1.0000 0.06860  0.44090  0.78630  Biso   1.000  C
  C146     1.0000 0.93140  0.94090  0.71370  Biso   1.000  C
  C147     1.0000 0.93140  0.55910  0.21370  Biso   1.000  C
  C148     1.0000 0.06860  0.05910  0.28630  Biso   1.000  C
  H109     1.0000 0.12050  0.48510  0.80220  Biso   1.000  H
  H110     1.0000 0.87950  0.98510  0.69780  Biso   1.000  H
  H111     1.0000 0.87950  0.51490  0.19780  Biso   1.000  H
  H112     1.0000 0.12050  0.01490  0.30220  Biso   1.000  H
  H113     1.0000 0.02110  0.49520  0.78650  Biso   1.000  H
  H114     1.0000 0.97890  0.99520  0.71350  Biso   1.000  H
  H115     1.0000 0.97890  0.50480  0.21350  Biso   1.000  H
  H116     1.0000 0.02110  0.00480  0.28650  Biso   1.000  H
  H117     1.0000 0.06800  0.41420  0.74490  Biso   1.000  H
  H118     1.0000 0.93200  0.91420  0.75510  Biso   1.000  H
  H119     1.0000 0.93200  0.58580  0.25510  Biso   1.000  H
  H120     1.0000 0.06800  0.08580  0.24490  Biso   1.000  H
  C149     1.0000 0.09170  0.32550  0.87930  Biso   1.000  C
  C150     1.0000 0.90830  0.82550  0.62070  Biso   1.000  C
  C151     1.0000 0.90830  0.67450  0.12070  Biso   1.000  C
  C152     1.0000 0.09170  0.17450  0.37930  Biso   1.000  C
  H121     1.0000 0.12070  0.39290  0.90050  Biso   1.000  H
  H122     1.0000 0.87930  0.89290  0.59950  Biso   1.000  H
  H123     1.0000 0.87930  0.60710  0.09950  Biso   1.000  H
  H124     1.0000 0.12070  0.10710  0.40050  Biso   1.000  H
  O33      1.0000 0.83460  0.13960  0.55090  Biso   1.000  O
  O34      1.0000 0.16540  0.63960  0.94910  Biso   1.000  O
  O35      1.0000 0.16540  0.86040  0.44910  Biso   1.000  O
  O36      1.0000 0.83460  0.36040  0.05090  Biso   1.000  O
  N13      1.0000 0.90910  0.31660  0.55440  Biso   1.000  N
  N14      1.0000 0.09090  0.81660  0.94560  Biso   1.000  N
  N15      1.0000 0.09090  0.68340  0.44560  Biso   1.000  N
  N16      1.0000 0.90910  0.18340  0.05440  Biso   1.000  N
  C153     1.0000 0.95600  0.40590  0.59470  Biso   1.000  C
  C154     1.0000 0.04400  0.90590  0.90530  Biso   1.000  C
  C155     1.0000 0.04400  0.59410  0.40530  Biso   1.000  C
  C156     1.0000 0.95600  0.09410  0.09470  Biso   1.000  C
  H125     1.0000 0.92670  0.48470  0.58970  Biso   1.000  H
  H126     1.0000 0.07330  0.98470  0.91030  Biso   1.000  H
  H127     1.0000 0.07330  0.51530  0.41030  Biso   1.000  H
  H128     1.0000 0.92670  0.01530  0.08970  Biso   1.000  H
  H129     1.0000 0.01130  0.41580  0.58520  Biso   1.000  H
  H130     1.0000 0.98870  0.91580  0.91480  Biso   1.000  H
  H131     1.0000 0.98870  0.58420  0.41480  Biso   1.000  H
  H132     1.0000 0.01130  0.08420  0.08520  Biso   1.000  H
  H133     1.0000 0.96200  0.37790  0.63650  Biso   1.000  H
  H134     1.0000 0.03800  0.87790  0.86350  Biso   1.000  H
  H135     1.0000 0.03800  0.62210  0.36350  Biso   1.000  H
  H136     1.0000 0.96200  0.12210  0.13650  Biso   1.000  H
  C157     1.0000 0.87790  0.34210  0.49190  Biso   1.000  C
  C158     1.0000 0.12210  0.84210  0.00810  Biso   1.000  C
  C159     1.0000 0.12210  0.65790  0.50810  Biso   1.000  C
  C160     1.0000 0.87790  0.15790  0.99190  Biso   1.000  C
  H137     1.0000 0.92370  0.36960  0.47350  Biso   1.000  H
  H138     1.0000 0.07630  0.86960  0.02650  Biso   1.000  H
  H139     1.0000 0.07630  0.63040  0.52650  Biso   1.000  H
  H140     1.0000 0.92370  0.13040  0.97350  Biso   1.000  H
  H141     1.0000 0.83550  0.40660  0.48790  Biso   1.000  H
  H142     1.0000 0.16450  0.90660  0.01210  Biso   1.000  H
  H143     1.0000 0.16450  0.59340  0.51210  Biso   1.000  H
  H144     1.0000 0.83550  0.09340  0.98790  Biso   1.000  H
  H145     1.0000 0.85310  0.26760  0.47160  Biso   1.000  H
  H146     1.0000 0.14690  0.76760  0.02840  Biso   1.000  H
  H147     1.0000 0.14690  0.73240  0.52840  Biso   1.000  H
  H148     1.0000 0.85310  0.23240  0.97160  Biso   1.000  H
  C161     1.0000 0.88100  0.21720  0.58080  Biso   1.000  C
  C162     1.0000 0.11900  0.71720  0.91920  Biso   1.000  C
  C163     1.0000 0.11900  0.78280  0.41920  Biso   1.000  C
  C164     1.0000 0.88100  0.28280  0.08080  Biso   1.000  C
  H149     1.0000 0.89730  0.20710  0.62320  Biso   1.000  H
  H150     1.0000 0.10270  0.70710  0.87680  Biso   1.000  H
  H151     1.0000 0.10270  0.79290  0.37680  Biso   1.000  H
  H152     1.0000 0.89730  0.29290  0.12320  Biso   1.000  H
