data_image0
_cell_length_a       14.6316
_cell_length_b       11.0803
_cell_length_c       11.7201
_cell_angle_alpha    90
_cell_angle_beta     108.242
_cell_angle_gamma    90

_symmetry_space_group_name_H-M    "P 1"
_symmetry_int_tables_number       1

loop_
  _symmetry_equiv_pos_as_xyz
  'x, y, z'

loop_
  _atom_site_label
  _atom_site_occupancy
  _atom_site_fract_x
  _atom_site_fract_y
  _atom_site_fract_z
  _atom_site_thermal_displace_type
  _atom_site_B_iso_or_equiv
  _atom_site_type_symbol
  Cu1      1.0000 0.50000  0.75300  0.75000  Biso   1.000  Cu
  Cu2      1.0000 0.50000  0.24700  0.25000  Biso   1.000  Cu
  O1       1.0000 0.40111  0.75884  0.59057  Biso   1.000  O
  O2       1.0000 0.59889  0.75884  0.90943  Biso   1.000  O
  O3       1.0000 0.59889  0.24116  0.40943  Biso   1.000  O
  O4       1.0000 0.40111  0.24116  0.09057  Biso   1.000  O
  O5       1.0000 0.29589  0.63120  0.62728  Biso   1.000  O
  O6       1.0000 0.70411  0.63120  0.87272  Biso   1.000  O
  O7       1.0000 0.70411  0.36880  0.37272  Biso   1.000  O
  O8       1.0000 0.29589  0.36880  0.12728  Biso   1.000  O
  O9       1.0000 0.13281  0.60012  0.47610  Biso   1.000  O
  O10      1.0000 0.86719  0.60012  0.02390  Biso   1.000  O
  O11      1.0000 0.86719  0.39988  0.52390  Biso   1.000  O
  O12      1.0000 0.13281  0.39988  0.97610  Biso   1.000  O
  H1       1.0000 0.17630  0.59630  0.54030  Biso   1.000  H
  H2       1.0000 0.82370  0.59630  0.95970  Biso   1.000  H
  H3       1.0000 0.82370  0.40370  0.45970  Biso   1.000  H
  H4       1.0000 0.17630  0.40370  0.04030  Biso   1.000  H
  O13      1.0000 0.38564  0.77359  0.87551  Biso   1.000  O
  O14      1.0000 0.61436  0.77359  0.62449  Biso   1.000  O
  O15      1.0000 0.61436  0.22641  0.12449  Biso   1.000  O
  O16      1.0000 0.38564  0.22641  0.37551  Biso   1.000  O
  N1       1.0000 0.50000  0.93580  0.75000  Biso   1.000  N
  N2       1.0000 0.50000  0.06420  0.25000  Biso   1.000  N
  N3       1.0000 0.50000  0.57285  0.75000  Biso   1.000  N
  N4       1.0000 0.50000  0.42715  0.25000  Biso   1.000  N
  N5       1.0000 0.23347  0.71810  0.86000  Biso   1.000  N
  N6       1.0000 0.76653  0.71810  0.64000  Biso   1.000  N
  N7       1.0000 0.76653  0.28190  0.14000  Biso   1.000  N
  N8       1.0000 0.23347  0.28190  0.36000  Biso   1.000  N
  C1       1.0000 0.25065  0.73362  0.44029  Biso   1.000  C
  C2       1.0000 0.74935  0.73362  0.05971  Biso   1.000  C
  C3       1.0000 0.74935  0.26638  0.55971  Biso   1.000  C
  C4       1.0000 0.25065  0.26638  0.94029  Biso   1.000  C
  C5       1.0000 0.15864  0.67642  0.40120  Biso   1.000  C
  C6       1.0000 0.84136  0.67642  0.09880  Biso   1.000  C
  C7       1.0000 0.84136  0.32358  0.59880  Biso   1.000  C
  C8       1.0000 0.15864  0.32358  0.90120  Biso   1.000  C
  C9       1.0000 0.09395  0.69800  0.28824  Biso   1.000  C
  C10      1.0000 0.90605  0.69800  0.21176  Biso   1.000  C
  C11      1.0000 0.90605  0.30200  0.71176  Biso   1.000  C
  C12      1.0000 0.09395  0.30200  0.78824  Biso   1.000  C
  C13      1.0000 0.11975  0.77970  0.21041  Biso   1.000  C
  C14      1.0000 0.88025  0.77970  0.28959  Biso   1.000  C
  C15      1.0000 0.88025  0.22030  0.78959  Biso   1.000  C
  C16      1.0000 0.11975  0.22030  0.71041  Biso   1.000  C
  C17      1.0000 0.05922  0.80510  0.09190  Biso   1.000  C
  C18      1.0000 0.94078  0.80510  0.40810  Biso   1.000  C
  C19      1.0000 0.94078  0.19490  0.90810  Biso   1.000  C
  C20      1.0000 0.05922  0.19490  0.59190  Biso   1.000  C
  H5       1.0000 0.00050  0.76530  0.06230  Biso   1.000  H
  H6       1.0000 0.99950  0.76530  0.43770  Biso   1.000  H
  H7       1.0000 0.99950  0.23470  0.93770  Biso   1.000  H
  H8       1.0000 0.00050  0.23470  0.56230  Biso   1.000  H
  C21      1.0000 0.08542  0.88620  0.02120  Biso   1.000  C
  C22      1.0000 0.91458  0.88620  0.47880  Biso   1.000  C
  C23      1.0000 0.91458  0.11380  0.97880  Biso   1.000  C
  C24      1.0000 0.08542  0.11380  0.52120  Biso   1.000  C
  H9       1.0000 0.04360  0.90250  0.94490  Biso   1.000  H
  H10      1.0000 0.95640  0.90250  0.55510  Biso   1.000  H
  H11      1.0000 0.95640  0.09750  0.05510  Biso   1.000  H
  H12      1.0000 0.04360  0.09750  0.44490  Biso   1.000  H
  C25      1.0000 0.17430  0.94610  0.06070  Biso   1.000  C
  C26      1.0000 0.82570  0.94610  0.43930  Biso   1.000  C
  C27      1.0000 0.82570  0.05390  0.93930  Biso   1.000  C
  C28      1.0000 0.17430  0.05390  0.56070  Biso   1.000  C
  H13      1.0000 0.19130  0.00110  0.01090  Biso   1.000  H
  H14      1.0000 0.80870  0.00110  0.48910  Biso   1.000  H
  H15      1.0000 0.80870  0.99890  0.98910  Biso   1.000  H
  H16      1.0000 0.19130  0.99890  0.51090  Biso   1.000  H
  C29      1.0000 0.23535  0.92280  0.17260  Biso   1.000  C
  C30      1.0000 0.76465  0.92280  0.32740  Biso   1.000  C
  C31      1.0000 0.76465  0.07720  0.82740  Biso   1.000  C
  C32      1.0000 0.23535  0.07720  0.67260  Biso   1.000  C
  H17      1.0000 0.29450  0.96200  0.19880  Biso   1.000  H
  H18      1.0000 0.70550  0.96200  0.30120  Biso   1.000  H
  H19      1.0000 0.70550  0.03800  0.80120  Biso   1.000  H
  H20      1.0000 0.29450  0.03800  0.69880  Biso   1.000  H
  C33      1.0000 0.21030  0.84007  0.24990  Biso   1.000  C
  C34      1.0000 0.78970  0.84007  0.25010  Biso   1.000  C
  C35      1.0000 0.78970  0.15993  0.75010  Biso   1.000  C
  C36      1.0000 0.21030  0.15993  0.74990  Biso   1.000  C
  C37      1.0000 0.27395  0.81421  0.36553  Biso   1.000  C
  C38      1.0000 0.72605  0.81421  0.13447  Biso   1.000  C
  C39      1.0000 0.72605  0.18579  0.63447  Biso   1.000  C
  C40      1.0000 0.27395  0.18579  0.86553  Biso   1.000  C
  H21      1.0000 0.33320  0.85300  0.39150  Biso   1.000  H
  H22      1.0000 0.66680  0.85300  0.10850  Biso   1.000  H
  H23      1.0000 0.66680  0.14700  0.60850  Biso   1.000  H
  H24      1.0000 0.33320  0.14700  0.89150  Biso   1.000  H
  C41      1.0000 0.00000  0.62720  0.25000  Biso   1.000  C
  C42      1.0000 0.00000  0.37280  0.75000  Biso   1.000  C
  H25      1.0000 0.99920  0.57520  0.31630  Biso   1.000  H
  H26      1.0000 0.00080  0.57520  0.18370  Biso   1.000  H
  H27      1.0000 0.00080  0.42480  0.68370  Biso   1.000  H
  H28      1.0000 0.99920  0.42480  0.81630  Biso   1.000  H
  C43      1.0000 0.32036  0.70522  0.56179  Biso   1.000  C
  C44      1.0000 0.67964  0.70522  0.93821  Biso   1.000  C
  C45      1.0000 0.67964  0.29478  0.43821  Biso   1.000  C
  C46      1.0000 0.32036  0.29478  0.06179  Biso   1.000  C
  C47      1.0000 0.51995  0.99867  0.85247  Biso   1.000  C
  C48      1.0000 0.48005  0.99867  0.64753  Biso   1.000  C
  C49      1.0000 0.48005  0.00133  0.14753  Biso   1.000  C
  C50      1.0000 0.51995  0.00133  0.35247  Biso   1.000  C
  H29      1.0000 0.53430  0.95640  0.92450  Biso   1.000  H
  H30      1.0000 0.46570  0.95640  0.57550  Biso   1.000  H
  H31      1.0000 0.46570  0.04360  0.07550  Biso   1.000  H
  H32      1.0000 0.53430  0.04360  0.42450  Biso   1.000  H
  C51      1.0000 0.52029  0.12281  0.85644  Biso   1.000  C
  C52      1.0000 0.47971  0.12281  0.64356  Biso   1.000  C
  C53      1.0000 0.47971  0.87719  0.14356  Biso   1.000  C
  C54      1.0000 0.52029  0.87719  0.35644  Biso   1.000  C
  H33      1.0000 0.53400  0.16270  0.92970  Biso   1.000  H
  H34      1.0000 0.46600  0.16270  0.57030  Biso   1.000  H
  H35      1.0000 0.46600  0.83730  0.07030  Biso   1.000  H
  H36      1.0000 0.53400  0.83730  0.42970  Biso   1.000  H
  C55      1.0000 0.50000  0.18820  0.75000  Biso   1.000  C
  C56      1.0000 0.50000  0.81180  0.25000  Biso   1.000  C
  C57      1.0000 0.50000  0.32150  0.75000  Biso   1.000  C
  C58      1.0000 0.50000  0.67850  0.25000  Biso   1.000  C
  C59      1.0000 0.47079  0.38691  0.83369  Biso   1.000  C
  C60      1.0000 0.52921  0.38691  0.66631  Biso   1.000  C
  C61      1.0000 0.52921  0.61309  0.16631  Biso   1.000  C
  C62      1.0000 0.47079  0.61309  0.33369  Biso   1.000  C
  H37      1.0000 0.45120  0.34710  0.89190  Biso   1.000  H
  H38      1.0000 0.54880  0.34710  0.60810  Biso   1.000  H
  H39      1.0000 0.54880  0.65290  0.10810  Biso   1.000  H
  H40      1.0000 0.45120  0.65290  0.39190  Biso   1.000  H
  C63      1.0000 0.47112  0.51109  0.82976  Biso   1.000  C
  C64      1.0000 0.52888  0.51109  0.67024  Biso   1.000  C
  C65      1.0000 0.52888  0.48891  0.17024  Biso   1.000  C
  C66      1.0000 0.47112  0.48891  0.32976  Biso   1.000  C
  H41      1.0000 0.45020  0.55370  0.88530  Biso   1.000  H
  H42      1.0000 0.54980  0.55370  0.61470  Biso   1.000  H
  H43      1.0000 0.54980  0.44630  0.11470  Biso   1.000  H
  H44      1.0000 0.45020  0.44630  0.38530  Biso   1.000  H
  C67      1.0000 0.26570  0.64550  0.96900  Biso   1.000  C
  C68      1.0000 0.73430  0.64550  0.53100  Biso   1.000  C
  C69      1.0000 0.73430  0.35450  0.03100  Biso   1.000  C
  C70      1.0000 0.26570  0.35450  0.46900  Biso   1.000  C
  H45      1.0000 0.32060  0.68330  0.02520  Biso   1.000  H
  H46      1.0000 0.67940  0.68330  0.47480  Biso   1.000  H
  H47      1.0000 0.67940  0.31670  0.97480  Biso   1.000  H
  H48      1.0000 0.32060  0.31670  0.52520  Biso   1.000  H
  H49      1.0000 0.28320  0.56640  0.94950  Biso   1.000  H
  H50      1.0000 0.71680  0.56640  0.55050  Biso   1.000  H
  H51      1.0000 0.71680  0.43360  0.05050  Biso   1.000  H
  H52      1.0000 0.28320  0.43360  0.44950  Biso   1.000  H
  H53      1.0000 0.21470  0.63910  0.00390  Biso   1.000  H
  H54      1.0000 0.78530  0.63910  0.49610  Biso   1.000  H
  H55      1.0000 0.78530  0.36090  0.99610  Biso   1.000  H
  H56      1.0000 0.21470  0.36090  0.50390  Biso   1.000  H
  C71      1.0000 0.13500  0.70870  0.78490  Biso   1.000  C
  C72      1.0000 0.86500  0.70870  0.71510  Biso   1.000  C
  C73      1.0000 0.86500  0.29130  0.21510  Biso   1.000  C
  C74      1.0000 0.13500  0.29130  0.28490  Biso   1.000  C
  H57      1.0000 0.12040  0.77360  0.72780  Biso   1.000  H
  H58      1.0000 0.87960  0.77360  0.77220  Biso   1.000  H
  H59      1.0000 0.87960  0.22640  0.27220  Biso   1.000  H
  H60      1.0000 0.12040  0.22640  0.22780  Biso   1.000  H
  H61      1.0000 0.09330  0.71330  0.83380  Biso   1.000  H
  H62      1.0000 0.90670  0.71330  0.66620  Biso   1.000  H
  H63      1.0000 0.90670  0.28670  0.16620  Biso   1.000  H
  H64      1.0000 0.09330  0.28670  0.33380  Biso   1.000  H
  H65      1.0000 0.12540  0.63290  0.74310  Biso   1.000  H
  H66      1.0000 0.87460  0.63290  0.75690  Biso   1.000  H
  H67      1.0000 0.87460  0.36710  0.25690  Biso   1.000  H
  H68      1.0000 0.12540  0.36710  0.24310  Biso   1.000  H
  C75      1.0000 0.29860  0.77770  0.82500  Biso   1.000  C
  C76      1.0000 0.70140  0.77770  0.67500  Biso   1.000  C
  C77      1.0000 0.70140  0.22230  0.17500  Biso   1.000  C
  C78      1.0000 0.29860  0.22230  0.32500  Biso   1.000  C
  H69      1.0000 0.27660  0.82610  0.75710  Biso   1.000  H
  H70      1.0000 0.72340  0.82610  0.74290  Biso   1.000  H
  H71      1.0000 0.72340  0.17390  0.24290  Biso   1.000  H
  H72      1.0000 0.27660  0.17390  0.25710  Biso   1.000  H
