data_image0
_cell_length_a       15.8566
_cell_length_b       7.8896
_cell_length_c       17.8929
_cell_angle_alpha    90
_cell_angle_beta     106.539
_cell_angle_gamma    90

_symmetry_space_group_name_H-M    "P 1"
_symmetry_int_tables_number       1

loop_
  _symmetry_equiv_pos_as_xyz
  'x, y, z'

loop_
  _atom_site_label
  _atom_site_occupancy
  _atom_site_fract_x
  _atom_site_fract_y
  _atom_site_fract_z
  _atom_site_thermal_displace_type
  _atom_site_B_iso_or_equiv
  _atom_site_type_symbol
  C1       1.0000 0.02678  0.65890  0.15588  Biso   1.000  C
  C2       1.0000 0.47322  0.65890  0.34412  Biso   1.000  C
  C3       1.0000 0.97322  0.34110  0.84412  Biso   1.000  C
  C4       1.0000 0.52678  0.34110  0.65588  Biso   1.000  C
  C5       1.0000 0.05940  0.81930  0.17210  Biso   1.000  C
  C6       1.0000 0.44060  0.81930  0.32790  Biso   1.000  C
  C7       1.0000 0.94060  0.18070  0.82790  Biso   1.000  C
  C8       1.0000 0.55940  0.18070  0.67210  Biso   1.000  C
  H1       1.0000 0.03180  0.89640  0.19860  Biso   1.000  H
  H2       1.0000 0.46820  0.89640  0.30140  Biso   1.000  H
  H3       1.0000 0.96820  0.10360  0.80140  Biso   1.000  H
  H4       1.0000 0.53180  0.10360  0.69860  Biso   1.000  H
  C9       1.0000 0.13430  0.87090  0.14951  Biso   1.000  C
  C10      1.0000 0.36570  0.87090  0.35049  Biso   1.000  C
  C11      1.0000 0.86570  0.12910  0.85049  Biso   1.000  C
  C12      1.0000 0.63430  0.12910  0.64951  Biso   1.000  C
  H5       1.0000 0.15710  0.98200  0.16160  Biso   1.000  H
  H6       1.0000 0.34290  0.98200  0.33840  Biso   1.000  H
  H7       1.0000 0.84290  0.01800  0.83840  Biso   1.000  H
  H8       1.0000 0.65710  0.01800  0.66160  Biso   1.000  H
  C13      1.0000 0.17420  0.76100  0.11017  Biso   1.000  C
  C14      1.0000 0.32580  0.76100  0.38983  Biso   1.000  C
  C15      1.0000 0.82580  0.23900  0.88983  Biso   1.000  C
  C16      1.0000 0.67420  0.23900  0.61017  Biso   1.000  C
  C17      1.0000 0.13946  0.59600  0.08985  Biso   1.000  C
  C18      1.0000 0.36054  0.59600  0.41015  Biso   1.000  C
  C19      1.0000 0.86054  0.40400  0.91015  Biso   1.000  C
  C20      1.0000 0.63946  0.40400  0.58985  Biso   1.000  C
  C21      1.0000 0.17350  0.48270  0.04500  Biso   1.000  C
  C22      1.0000 0.32650  0.48270  0.45500  Biso   1.000  C
  C23      1.0000 0.82650  0.51730  0.95500  Biso   1.000  C
  C24      1.0000 0.67350  0.51730  0.54500  Biso   1.000  C
  H9       1.0000 0.22320  0.51500  0.02860  Biso   1.000  H
  H10      1.0000 0.27680  0.51500  0.47140  Biso   1.000  H
  H11      1.0000 0.77680  0.48500  0.97140  Biso   1.000  H
  H12      1.0000 0.72320  0.48500  0.52860  Biso   1.000  H
  C25      1.0000 0.13620  0.32690  0.02460  Biso   1.000  C
  C26      1.0000 0.36380  0.32690  0.47540  Biso   1.000  C
  C27      1.0000 0.86380  0.67310  0.97540  Biso   1.000  C
  C28      1.0000 0.63620  0.67310  0.52460  Biso   1.000  C
  H13      1.0000 0.15910  0.25360  0.99300  Biso   1.000  H
  H14      1.0000 0.34090  0.25360  0.50700  Biso   1.000  H
  H15      1.0000 0.84090  0.74640  0.00700  Biso   1.000  H
  H16      1.0000 0.65910  0.74640  0.49300  Biso   1.000  H
  C29      1.0000 0.06410  0.27450  0.05003  Biso   1.000  C
  C30      1.0000 0.43590  0.27450  0.44997  Biso   1.000  C
  C31      1.0000 0.93590  0.72550  0.94997  Biso   1.000  C
  C32      1.0000 0.56410  0.72550  0.55003  Biso   1.000  C
  H17      1.0000 0.03930  0.16510  0.03670  Biso   1.000  H
  H18      1.0000 0.46070  0.16510  0.46330  Biso   1.000  H
  H19      1.0000 0.96070  0.83490  0.96330  Biso   1.000  H
  H20      1.0000 0.53930  0.83490  0.53670  Biso   1.000  H
  C33      1.0000 0.02943  0.38250  0.09438  Biso   1.000  C
  C34      1.0000 0.47057  0.38250  0.40562  Biso   1.000  C
  C35      1.0000 0.97057  0.61750  0.90562  Biso   1.000  C
  C36      1.0000 0.52943  0.61750  0.59438  Biso   1.000  C
  C37      1.0000 0.06495  0.54440  0.11399  Biso   1.000  C
  C38      1.0000 0.43505  0.54440  0.38601  Biso   1.000  C
  C39      1.0000 0.93505  0.45560  0.88601  Biso   1.000  C
  C40      1.0000 0.56495  0.45560  0.61399  Biso   1.000  C
  C41      1.0000 0.94940  0.60590  0.18205  Biso   1.000  C
  C42      1.0000 0.55060  0.60590  0.31795  Biso   1.000  C
  C43      1.0000 0.05060  0.39410  0.81795  Biso   1.000  C
  C44      1.0000 0.44940  0.39410  0.68205  Biso   1.000  C
  C45      1.0000 0.95322  0.32650  0.12003  Biso   1.000  C
  C46      1.0000 0.54678  0.32650  0.37997  Biso   1.000  C
  C47      1.0000 0.04678  0.67350  0.87997  Biso   1.000  C
  C48      1.0000 0.45322  0.67350  0.62003  Biso   1.000  C
  C49      1.0000 0.83806  0.38850  0.18291  Biso   1.000  C
  C50      1.0000 0.66194  0.38850  0.31709  Biso   1.000  C
  C51      1.0000 0.16194  0.61150  0.81709  Biso   1.000  C
  C52      1.0000 0.33806  0.61150  0.68291  Biso   1.000  C
  H21      1.0000 0.80020  0.31580  0.14170  Biso   1.000  H
  H22      1.0000 0.69980  0.31580  0.35830  Biso   1.000  H
  H23      1.0000 0.19980  0.68420  0.85830  Biso   1.000  H
  H24      1.0000 0.30020  0.68420  0.64170  Biso   1.000  H
  H25      1.0000 0.80310  0.48810  0.18990  Biso   1.000  H
  H26      1.0000 0.69690  0.48810  0.31010  Biso   1.000  H
  H27      1.0000 0.19690  0.51190  0.81010  Biso   1.000  H
  H28      1.0000 0.30310  0.51190  0.68990  Biso   1.000  H
  C53      1.0000 0.93320  0.28400  0.39675  Biso   1.000  C
  C54      1.0000 0.56680  0.28400  0.10325  Biso   1.000  C
  C55      1.0000 0.06680  0.71600  0.60325  Biso   1.000  C
  C56      1.0000 0.43320  0.71600  0.89675  Biso   1.000  C
  H29      1.0000 0.95480  0.34370  0.44450  Biso   1.000  H
  H30      1.0000 0.54520  0.34370  0.05550  Biso   1.000  H
  H31      1.0000 0.04520  0.65630  0.55550  Biso   1.000  H
  H32      1.0000 0.45480  0.65630  0.94450  Biso   1.000  H
  C57      1.0000 0.89850  0.37530  0.32902  Biso   1.000  C
  C58      1.0000 0.60150  0.37530  0.17098  Biso   1.000  C
  C59      1.0000 0.10150  0.62470  0.67098  Biso   1.000  C
  C60      1.0000 0.39850  0.62470  0.82902  Biso   1.000  C
  H33      1.0000 0.89560  0.49550  0.33070  Biso   1.000  H
  H34      1.0000 0.60440  0.49550  0.16930  Biso   1.000  H
  H35      1.0000 0.10440  0.50450  0.66930  Biso   1.000  H
  H36      1.0000 0.39560  0.50450  0.83070  Biso   1.000  H
  C61      1.0000 0.86777  0.29010  0.25852  Biso   1.000  C
  C62      1.0000 0.63223  0.29010  0.24148  Biso   1.000  C
  C63      1.0000 0.13223  0.70990  0.74148  Biso   1.000  C
  C64      1.0000 0.36777  0.70990  0.75852  Biso   1.000  C
  C65      1.0000 0.86820  0.11450  0.26008  Biso   1.000  C
  C66      1.0000 0.63180  0.11450  0.23992  Biso   1.000  C
  C67      1.0000 0.13180  0.88550  0.73992  Biso   1.000  C
  C68      1.0000 0.36820  0.88550  0.76008  Biso   1.000  C
  H37      1.0000 0.84500  0.05200  0.21340  Biso   1.000  H
  H38      1.0000 0.65500  0.05200  0.28660  Biso   1.000  H
  H39      1.0000 0.15500  0.94800  0.78660  Biso   1.000  H
  H40      1.0000 0.34500  0.94800  0.71340  Biso   1.000  H
  C69      1.0000 0.90280  0.03070  0.33026  Biso   1.000  C
  C70      1.0000 0.59720  0.03070  0.16974  Biso   1.000  C
  C71      1.0000 0.09720  0.96930  0.66974  Biso   1.000  C
  C72      1.0000 0.40280  0.96930  0.83026  Biso   1.000  C
  H41      1.0000 0.90200  0.91040  0.33080  Biso   1.000  H
  H42      1.0000 0.59800  0.91040  0.16920  Biso   1.000  H
  H43      1.0000 0.09800  0.08960  0.66920  Biso   1.000  H
  H44      1.0000 0.40200  0.08960  0.83080  Biso   1.000  H
  C73      1.0000 0.31780  0.96690  0.00131  Biso   1.000  C
  C74      1.0000 0.18220  0.96690  0.49869  Biso   1.000  C
  C75      1.0000 0.68220  0.03310  0.99869  Biso   1.000  C
  C76      1.0000 0.81780  0.03310  0.50131  Biso   1.000  C
  H45      1.0000 0.31050  0.03710  0.95680  Biso   1.000  H
  H46      1.0000 0.18950  0.03710  0.54320  Biso   1.000  H
  H47      1.0000 0.68950  0.96290  0.04320  Biso   1.000  H
  H48      1.0000 0.81050  0.96290  0.45680  Biso   1.000  H
  C77      1.0000 0.24420  0.91940  0.02275  Biso   1.000  C
  C78      1.0000 0.25580  0.91940  0.47725  Biso   1.000  C
  C79      1.0000 0.75580  0.08060  0.97725  Biso   1.000  C
  C80      1.0000 0.74420  0.08060  0.52275  Biso   1.000  C
  H49      1.0000 0.18760  0.95770  0.99350  Biso   1.000  H
  H50      1.0000 0.31240  0.95770  0.50650  Biso   1.000  H
  H51      1.0000 0.81240  0.04230  0.00650  Biso   1.000  H
  H52      1.0000 0.68760  0.04230  0.49350  Biso   1.000  H
  C81      1.0000 0.25310  0.81610  0.08689  Biso   1.000  C
  C82      1.0000 0.24690  0.81610  0.41311  Biso   1.000  C
  C83      1.0000 0.74690  0.18390  0.91311  Biso   1.000  C
  C84      1.0000 0.75310  0.18390  0.58689  Biso   1.000  C
  C85      1.0000 0.33730  0.76250  0.12698  Biso   1.000  C
  C86      1.0000 0.16270  0.76250  0.37302  Biso   1.000  C
  C87      1.0000 0.66270  0.23750  0.87302  Biso   1.000  C
  C88      1.0000 0.83730  0.23750  0.62698  Biso   1.000  C
  H53      1.0000 0.34620  0.69070  0.17110  Biso   1.000  H
  H54      1.0000 0.15380  0.69070  0.32890  Biso   1.000  H
  H55      1.0000 0.65380  0.30930  0.82890  Biso   1.000  H
  H56      1.0000 0.84620  0.30930  0.67110  Biso   1.000  H
  C89      1.0000 0.40820  0.81480  0.10206  Biso   1.000  C
  C90      1.0000 0.09180  0.81480  0.39794  Biso   1.000  C
  C91      1.0000 0.59180  0.18520  0.89794  Biso   1.000  C
  C92      1.0000 0.90820  0.18520  0.60206  Biso   1.000  C
  H57      1.0000 0.46530  0.77600  0.12960  Biso   1.000  H
  H58      1.0000 0.03470  0.77600  0.37040  Biso   1.000  H
  H59      1.0000 0.53470  0.22400  0.87040  Biso   1.000  H
  H60      1.0000 0.96530  0.22400  0.62960  Biso   1.000  H
  Cu1      1.0000 0.00000  0.00000  0.50000  Biso   1.000  Cu
  Cu2      1.0000 0.50000  0.00000  0.00000  Biso   1.000  Cu
  N1       1.0000 0.91553  0.44520  0.15899  Biso   1.000  N
  N2       1.0000 0.58447  0.44520  0.34101  Biso   1.000  N
  N3       1.0000 0.08447  0.55480  0.84101  Biso   1.000  N
  N4       1.0000 0.41553  0.55480  0.65899  Biso   1.000  N
  N5       1.0000 0.93744  0.11420  0.39752  Biso   1.000  N
  N6       1.0000 0.56256  0.11420  0.10248  Biso   1.000  N
  N7       1.0000 0.06256  0.88580  0.60248  Biso   1.000  N
  N8       1.0000 0.43744  0.88580  0.89752  Biso   1.000  N
  N9       1.0000 0.39962  0.91770  0.04082  Biso   1.000  N
  N10      1.0000 0.10038  0.91770  0.45918  Biso   1.000  N
  N11      1.0000 0.60038  0.08230  0.95918  Biso   1.000  N
  N12      1.0000 0.89962  0.08230  0.54082  Biso   1.000  N
  N13      1.0000 0.13911  0.34590  0.53404  Biso   1.000  N
  N14      1.0000 0.36089  0.34590  0.96596  Biso   1.000  N
  N15      1.0000 0.86089  0.65410  0.46596  Biso   1.000  N
  N16      1.0000 0.63911  0.65410  0.03404  Biso   1.000  N
  O1       1.0000 0.91753  0.69580  0.22180  Biso   1.000  O
  O2       1.0000 0.58247  0.69580  0.27820  Biso   1.000  O
  O3       1.0000 0.08247  0.30420  0.77820  Biso   1.000  O
  O4       1.0000 0.41753  0.30420  0.72180  Biso   1.000  O
  O5       1.0000 0.92306  0.18340  0.10789  Biso   1.000  O
  O6       1.0000 0.57694  0.18340  0.39211  Biso   1.000  O
  O7       1.0000 0.07694  0.81660  0.89211  Biso   1.000  O
  O8       1.0000 0.42306  0.81660  0.60789  Biso   1.000  O
  O9       1.0000 0.07873  0.26680  0.55222  Biso   1.000  O
  O10      1.0000 0.42127  0.26680  0.94778  Biso   1.000  O
  O11      1.0000 0.92127  0.73320  0.44778  Biso   1.000  O
  O12      1.0000 0.57873  0.73320  0.05222  Biso   1.000  O
  O13      1.0000 0.12290  0.44150  0.47760  Biso   1.000  O
  O14      1.0000 0.37710  0.44150  0.02240  Biso   1.000  O
  O15      1.0000 0.87710  0.55850  0.52240  Biso   1.000  O
  O16      1.0000 0.62290  0.55850  0.97760  Biso   1.000  O
  O17      1.0000 0.21610  0.33200  0.57849  Biso   1.000  O
  O18      1.0000 0.28390  0.33200  0.92151  Biso   1.000  O
  O19      1.0000 0.78390  0.66800  0.42151  Biso   1.000  O
  O20      1.0000 0.71610  0.66800  0.07849  Biso   1.000  O
  O21      1.0000 0.39540  0.38470  0.19110  Biso   1.000  O
  O22      1.0000 0.10460  0.38470  0.30890  Biso   1.000  O
  O23      1.0000 0.60460  0.61530  0.80890  Biso   1.000  O
  O24      1.0000 0.89540  0.61530  0.69110  Biso   1.000  O
  O25      1.0000 0.20570  0.41300  0.56750  Biso   1.000  O
  O26      1.0000 0.29430  0.41300  0.93250  Biso   1.000  O
  O27      1.0000 0.79430  0.58700  0.43250  Biso   1.000  O
  O28      1.0000 0.70570  0.58700  0.06750  Biso   1.000  O
  O29      1.0000 0.12270  0.35000  0.45750  Biso   1.000  O
  O30      1.0000 0.37730  0.35000  0.04250  Biso   1.000  O
  O31      1.0000 0.87730  0.65000  0.54250  Biso   1.000  O
  O32      1.0000 0.62270  0.65000  0.95750  Biso   1.000  O
  O33      1.0000 0.27170  0.38720  0.23410  Biso   1.000  O
  O34      1.0000 0.22830  0.38720  0.26590  Biso   1.000  O
  O35      1.0000 0.72830  0.61280  0.76590  Biso   1.000  O
  O36      1.0000 0.77170  0.61280  0.73410  Biso   1.000  O
  O37      1.0000 0.39780  0.19450  0.20560  Biso   1.000  O
  O38      1.0000 0.10220  0.19450  0.29440  Biso   1.000  O
  O39      1.0000 0.60220  0.80550  0.79440  Biso   1.000  O
  O40      1.0000 0.89780  0.80550  0.70560  Biso   1.000  O
  O41      1.0000 0.34840  0.24540  0.19930  Biso   1.000  O
  O42      1.0000 0.15160  0.24540  0.30070  Biso   1.000  O
  O43      1.0000 0.65160  0.75460  0.80070  Biso   1.000  O
  O44      1.0000 0.84840  0.75460  0.69930  Biso   1.000  O
