data_image0
_cell_length_a       5.0597
_cell_length_b       12.3
_cell_length_c       21.824
_cell_angle_alpha    90
_cell_angle_beta     90
_cell_angle_gamma    90

_symmetry_space_group_name_H-M    "P 1"
_symmetry_int_tables_number       1

loop_
  _symmetry_equiv_pos_as_xyz
  'x, y, z'

loop_
  _atom_site_label
  _atom_site_occupancy
  _atom_site_fract_x
  _atom_site_fract_y
  _atom_site_fract_z
  _atom_site_thermal_displace_type
  _atom_site_B_iso_or_equiv
  _atom_site_type_symbol
  Cu1      1.0000 0.03757  0.21810  0.05506  Biso   1.000  Cu
  Cu2      1.0000 0.46243  0.78190  0.55506  Biso   1.000  Cu
  Cu3      1.0000 0.96243  0.71810  0.44494  Biso   1.000  Cu
  Cu4      1.0000 0.53757  0.28190  0.94494  Biso   1.000  Cu
  O1       1.0000 0.21340  0.31360  0.99456  Biso   1.000  O
  O2       1.0000 0.28660  0.68640  0.49456  Biso   1.000  O
  O3       1.0000 0.78660  0.81360  0.50544  Biso   1.000  O
  O4       1.0000 0.71340  0.18640  0.00544  Biso   1.000  O
  O5       1.0000 0.84670  0.41020  0.99239  Biso   1.000  O
  O6       1.0000 0.65330  0.58980  0.49239  Biso   1.000  O
  O7       1.0000 0.15330  0.91020  0.50761  Biso   1.000  O
  O8       1.0000 0.34670  0.08980  0.00761  Biso   1.000  O
  O9       1.0000 0.77230  0.23260  0.88453  Biso   1.000  O
  O10      1.0000 0.72770  0.76740  0.38453  Biso   1.000  O
  O11      1.0000 0.22770  0.73260  0.61547  Biso   1.000  O
  O12      1.0000 0.27230  0.26740  0.11547  Biso   1.000  O
  N1       1.0000 0.38630  0.38800  0.89178  Biso   1.000  N
  N2       1.0000 0.11370  0.61200  0.39178  Biso   1.000  N
  N3       1.0000 0.61370  0.88800  0.60822  Biso   1.000  N
  N4       1.0000 0.88630  0.11200  0.10822  Biso   1.000  N
  C1       1.0000 0.06600  0.39040  0.97275  Biso   1.000  C
  C2       1.0000 0.43400  0.60960  0.47275  Biso   1.000  C
  C3       1.0000 0.93400  0.89040  0.52725  Biso   1.000  C
  C4       1.0000 0.56600  0.10960  0.02725  Biso   1.000  C
  C5       1.0000 0.18720  0.45620  0.92116  Biso   1.000  C
  C6       1.0000 0.31280  0.54380  0.42116  Biso   1.000  C
  C7       1.0000 0.81280  0.95620  0.57884  Biso   1.000  C
  C8       1.0000 0.68720  0.04380  0.07884  Biso   1.000  C
  H1       1.0000 0.05020  0.47540  0.89130  Biso   1.000  H
  H2       1.0000 0.44980  0.52460  0.39130  Biso   1.000  H
  H3       1.0000 0.94980  0.97540  0.60870  Biso   1.000  H
  H4       1.0000 0.55020  0.02460  0.10870  Biso   1.000  H
  C9       1.0000 0.31750  0.56070  0.94620  Biso   1.000  C
  C10      1.0000 0.18250  0.43930  0.44620  Biso   1.000  C
  C11      1.0000 0.68250  0.06070  0.55380  Biso   1.000  C
  C12      1.0000 0.81750  0.93930  0.05380  Biso   1.000  C
  H5       1.0000 0.46030  0.53900  0.97390  Biso   1.000  H
  H6       1.0000 0.03970  0.46100  0.47390  Biso   1.000  H
  H7       1.0000 0.53970  0.03900  0.52610  Biso   1.000  H
  H8       1.0000 0.96030  0.96100  0.02610  Biso   1.000  H
  C13      1.0000 0.12610  0.62930  0.98210  Biso   1.000  C
  C14      1.0000 0.37390  0.37070  0.48210  Biso   1.000  C
  C15      1.0000 0.87390  0.12930  0.51790  Biso   1.000  C
  C16      1.0000 0.62610  0.87070  0.01790  Biso   1.000  C
  H9       1.0000 0.21450  0.69330  0.99680  Biso   1.000  H
  H10      1.0000 0.28550  0.30670  0.49680  Biso   1.000  H
  H11      1.0000 0.78550  0.19330  0.50320  Biso   1.000  H
  H12      1.0000 0.71450  0.80670  0.00320  Biso   1.000  H
  H13      1.0000 0.06020  0.58830  0.01630  Biso   1.000  H
  H14      1.0000 0.43980  0.41170  0.51630  Biso   1.000  H
  H15      1.0000 0.93980  0.08830  0.48370  Biso   1.000  H
  H16      1.0000 0.56020  0.91170  0.98370  Biso   1.000  H
  H17      1.0000 0.98140  0.65020  0.95620  Biso   1.000  H
  H18      1.0000 0.51860  0.34980  0.45620  Biso   1.000  H
  H19      1.0000 0.01860  0.15020  0.54380  Biso   1.000  H
  H20      1.0000 0.48140  0.84980  0.04380  Biso   1.000  H
  C17      1.0000 0.43880  0.62730  0.89470  Biso   1.000  C
  C18      1.0000 0.06120  0.37270  0.39470  Biso   1.000  C
  C19      1.0000 0.56120  0.12730  0.60530  Biso   1.000  C
  C20      1.0000 0.93880  0.87270  0.10530  Biso   1.000  C
  H21      1.0000 0.31450  0.63330  0.86160  Biso   1.000  H
  H22      1.0000 0.18550  0.36670  0.36160  Biso   1.000  H
  H23      1.0000 0.68550  0.13330  0.63840  Biso   1.000  H
  H24      1.0000 0.81450  0.86670  0.13840  Biso   1.000  H
  H25      1.0000 0.59630  0.59200  0.88030  Biso   1.000  H
  H26      1.0000 0.90370  0.40800  0.38030  Biso   1.000  H
  H27      1.0000 0.40370  0.09200  0.61970  Biso   1.000  H
  H28      1.0000 0.09630  0.90800  0.11970  Biso   1.000  H
  H29      1.0000 0.48230  0.69850  0.90960  Biso   1.000  H
  H30      1.0000 0.01770  0.30150  0.40960  Biso   1.000  H
  H31      1.0000 0.51770  0.19850  0.59040  Biso   1.000  H
  H32      1.0000 0.98230  0.80150  0.09040  Biso   1.000  H
  C21      1.0000 0.43540  0.39970  0.83445  Biso   1.000  C
  C22      1.0000 0.06460  0.60030  0.33445  Biso   1.000  C
  C23      1.0000 0.56460  0.89970  0.66555  Biso   1.000  C
  C24      1.0000 0.93540  0.10030  0.16555  Biso   1.000  C
  H33      1.0000 0.32710  0.44710  0.81280  Biso   1.000  H
  H34      1.0000 0.17290  0.55290  0.31280  Biso   1.000  H
  H35      1.0000 0.67290  0.94710  0.68720  Biso   1.000  H
  H36      1.0000 0.82710  0.05290  0.18720  Biso   1.000  H
  C25      1.0000 0.63810  0.34750  0.80121  Biso   1.000  C
  C26      1.0000 0.86190  0.65250  0.30121  Biso   1.000  C
  C27      1.0000 0.36190  0.84750  0.69879  Biso   1.000  C
  C28      1.0000 0.13810  0.15250  0.19879  Biso   1.000  C
  C29      1.0000 0.68910  0.38060  0.73901  Biso   1.000  C
  C30      1.0000 0.81090  0.61940  0.23901  Biso   1.000  C
  C31      1.0000 0.31090  0.88060  0.76099  Biso   1.000  C
  C32      1.0000 0.18910  0.11940  0.26099  Biso   1.000  C
  C33      1.0000 0.54710  0.46020  0.70795  Biso   1.000  C
  C34      1.0000 0.95290  0.53980  0.20795  Biso   1.000  C
  C35      1.0000 0.45290  0.96020  0.79205  Biso   1.000  C
  C36      1.0000 0.04710  0.03980  0.29205  Biso   1.000  C
  H37      1.0000 0.40610  0.49360  0.72770  Biso   1.000  H
  H38      1.0000 0.09390  0.50640  0.22770  Biso   1.000  H
  H39      1.0000 0.59390  0.99360  0.77230  Biso   1.000  H
  H40      1.0000 0.90610  0.00640  0.27230  Biso   1.000  H
  C37      1.0000 0.60720  0.49130  0.64921  Biso   1.000  C
  C38      1.0000 0.89280  0.50870  0.14921  Biso   1.000  C
  C39      1.0000 0.39280  0.99130  0.85079  Biso   1.000  C
  C40      1.0000 0.10720  0.00870  0.35079  Biso   1.000  C
  H41      1.0000 0.50630  0.54420  0.62970  Biso   1.000  H
  H42      1.0000 0.99370  0.45580  0.12970  Biso   1.000  H
  H43      1.0000 0.49370  0.04420  0.87030  Biso   1.000  H
  H44      1.0000 0.00630  0.95580  0.37030  Biso   1.000  H
  C41      1.0000 0.81710  0.44410  0.61909  Biso   1.000  C
  C42      1.0000 0.68290  0.55590  0.11909  Biso   1.000  C
  C43      1.0000 0.18290  0.94410  0.88091  Biso   1.000  C
  C44      1.0000 0.31710  0.05590  0.38091  Biso   1.000  C
  H45      1.0000 0.86120  0.46650  0.57970  Biso   1.000  H
  H46      1.0000 0.63880  0.53350  0.07970  Biso   1.000  H
  H47      1.0000 0.13880  0.96650  0.92030  Biso   1.000  H
  H48      1.0000 0.36120  0.03350  0.42030  Biso   1.000  H
  C45      1.0000 0.95830  0.36550  0.64700  Biso   1.000  C
  C46      1.0000 0.54170  0.63450  0.14700  Biso   1.000  C
  C47      1.0000 0.04170  0.86550  0.85300  Biso   1.000  C
  C48      1.0000 0.45830  0.13450  0.35300  Biso   1.000  C
  H49      1.0000 0.09850  0.33360  0.62610  Biso   1.000  H
  H50      1.0000 0.40150  0.66640  0.12610  Biso   1.000  H
  H51      1.0000 0.90150  0.83360  0.87390  Biso   1.000  H
  H52      1.0000 0.59850  0.16640  0.37390  Biso   1.000  H
  C49      1.0000 0.89990  0.33040  0.70662  Biso   1.000  C
  C50      1.0000 0.60010  0.66960  0.20662  Biso   1.000  C
  C51      1.0000 0.10010  0.83040  0.79338  Biso   1.000  C
  C52      1.0000 0.39990  0.16960  0.29338  Biso   1.000  C
  C53      1.0000 0.04210  0.24730  0.73504  Biso   1.000  C
  C54      1.0000 0.45790  0.75270  0.23504  Biso   1.000  C
  C55      1.0000 0.95790  0.74730  0.76496  Biso   1.000  C
  C56      1.0000 0.54210  0.25270  0.26496  Biso   1.000  C
  H53      1.0000 0.17550  0.21280  0.71310  Biso   1.000  H
  H54      1.0000 0.32450  0.78720  0.21310  Biso   1.000  H
  H55      1.0000 0.82450  0.71280  0.78690  Biso   1.000  H
  H56      1.0000 0.67550  0.28720  0.28690  Biso   1.000  H
  C57      1.0000 0.99400  0.21530  0.79283  Biso   1.000  C
  C58      1.0000 0.50600  0.78470  0.29283  Biso   1.000  C
  C59      1.0000 0.00600  0.71530  0.70717  Biso   1.000  C
  C60      1.0000 0.49400  0.28470  0.20717  Biso   1.000  C
  H57      1.0000 0.09280  0.15900  0.80970  Biso   1.000  H
  H58      1.0000 0.40720  0.84100  0.30970  Biso   1.000  H
  H59      1.0000 0.90720  0.65900  0.69030  Biso   1.000  H
  H60      1.0000 0.59280  0.34100  0.19030  Biso   1.000  H
  C61      1.0000 0.79540  0.26590  0.82833  Biso   1.000  C
  C62      1.0000 0.70460  0.73410  0.32833  Biso   1.000  C
  C63      1.0000 0.20460  0.76590  0.67167  Biso   1.000  C
  C64      1.0000 0.29540  0.23410  0.17167  Biso   1.000  C
