data_image0
_cell_length_a       7.253
_cell_length_b       12.144
_cell_length_c       16.001
_cell_angle_alpha    90
_cell_angle_beta     90
_cell_angle_gamma    90

_symmetry_space_group_name_H-M    "P 1"
_symmetry_int_tables_number       1

loop_
  _symmetry_equiv_pos_as_xyz
  'x, y, z'

loop_
  _atom_site_label
  _atom_site_occupancy
  _atom_site_fract_x
  _atom_site_fract_y
  _atom_site_fract_z
  _atom_site_thermal_displace_type
  _atom_site_B_iso_or_equiv
  _atom_site_type_symbol
  Cu1      1.0000 0.95962  0.11972  0.04043  Biso   1.000  Cu
  Cu2      1.0000 0.54038  0.88028  0.54043  Biso   1.000  Cu
  Cu3      1.0000 0.04038  0.61972  0.45957  Biso   1.000  Cu
  Cu4      1.0000 0.45962  0.38028  0.95957  Biso   1.000  Cu
  N1       1.0000 0.01580  0.00530  0.96228  Biso   1.000  N
  N2       1.0000 0.48420  0.99470  0.46228  Biso   1.000  N
  N3       1.0000 0.98420  0.50530  0.53772  Biso   1.000  N
  N4       1.0000 0.51580  0.49470  0.03772  Biso   1.000  N
  O1       1.0000 0.90670  0.02090  0.12730  Biso   1.000  O
  O2       1.0000 0.59330  0.97910  0.62730  Biso   1.000  O
  O3       1.0000 0.09330  0.52090  0.37270  Biso   1.000  O
  O4       1.0000 0.40670  0.47910  0.87270  Biso   1.000  O
  O5       1.0000 0.12010  0.22450  0.98597  Biso   1.000  O
  O6       1.0000 0.37990  0.77550  0.48597  Biso   1.000  O
  O7       1.0000 0.87990  0.72450  0.51403  Biso   1.000  O
  O8       1.0000 0.62010  0.27550  0.01403  Biso   1.000  O
  O9       1.0000 0.33640  0.26720  0.89462  Biso   1.000  O
  O10      1.0000 0.16360  0.73280  0.39462  Biso   1.000  O
  O11      1.0000 0.66360  0.76720  0.60538  Biso   1.000  O
  O12      1.0000 0.83640  0.23280  0.10538  Biso   1.000  O
  C1       1.0000 0.98980  0.85160  0.05996  Biso   1.000  C
  C2       1.0000 0.51020  0.14840  0.55996  Biso   1.000  C
  C3       1.0000 0.01020  0.35160  0.44004  Biso   1.000  C
  C4       1.0000 0.48980  0.64840  0.94004  Biso   1.000  C
  C5       1.0000 0.92460  0.91480  0.12860  Biso   1.000  C
  C6       1.0000 0.57540  0.08520  0.62860  Biso   1.000  C
  C7       1.0000 0.07540  0.41480  0.37140  Biso   1.000  C
  C8       1.0000 0.42460  0.58520  0.87140  Biso   1.000  C
  C9       1.0000 0.87340  0.85940  0.20370  Biso   1.000  C
  C10      1.0000 0.62660  0.14060  0.70370  Biso   1.000  C
  C11      1.0000 0.12660  0.35940  0.29630  Biso   1.000  C
  C12      1.0000 0.37340  0.64060  0.79630  Biso   1.000  C
  H1       1.0000 0.82750  0.90000  0.24840  Biso   1.000  H
  H2       1.0000 0.67250  0.10000  0.74840  Biso   1.000  H
  H3       1.0000 0.17250  0.40000  0.25160  Biso   1.000  H
  H4       1.0000 0.32750  0.60000  0.75160  Biso   1.000  H
  C13      1.0000 0.89030  0.74960  0.21100  Biso   1.000  C
  C14      1.0000 0.60970  0.25040  0.71100  Biso   1.000  C
  C15      1.0000 0.10970  0.24960  0.28900  Biso   1.000  C
  C16      1.0000 0.39030  0.75040  0.78900  Biso   1.000  C
  H5       1.0000 0.85760  0.71640  0.26120  Biso   1.000  H
  H6       1.0000 0.64240  0.28360  0.76120  Biso   1.000  H
  H7       1.0000 0.14240  0.21640  0.23880  Biso   1.000  H
  H8       1.0000 0.35760  0.78360  0.73880  Biso   1.000  H
  C17      1.0000 0.95580  0.68290  0.14520  Biso   1.000  C
  C18      1.0000 0.54420  0.31710  0.64520  Biso   1.000  C
  C19      1.0000 0.04420  0.18290  0.35480  Biso   1.000  C
  C20      1.0000 0.45580  0.81710  0.85480  Biso   1.000  C
  C21      1.0000 0.00160  0.73280  0.06744  Biso   1.000  C
  C22      1.0000 0.49840  0.26720  0.56744  Biso   1.000  C
  C23      1.0000 0.99840  0.23280  0.43256  Biso   1.000  C
  C24      1.0000 0.50160  0.76720  0.93256  Biso   1.000  C
  C25      1.0000 0.05370  0.66270  0.00240  Biso   1.000  C
  C26      1.0000 0.44630  0.33730  0.50240  Biso   1.000  C
  C27      1.0000 0.94630  0.16270  0.49760  Biso   1.000  C
  C28      1.0000 0.55370  0.83730  0.99760  Biso   1.000  C
  H9       1.0000 0.08430  0.69260  0.95080  Biso   1.000  H
  H10      1.0000 0.41570  0.30740  0.45080  Biso   1.000  H
  H11      1.0000 0.91570  0.19260  0.54920  Biso   1.000  H
  H12      1.0000 0.58430  0.80740  0.04920  Biso   1.000  H
  C29      1.0000 0.06070  0.55060  0.01300  Biso   1.000  C
  C30      1.0000 0.43930  0.44940  0.51300  Biso   1.000  C
  C31      1.0000 0.93930  0.05060  0.48700  Biso   1.000  C
  C32      1.0000 0.56070  0.94940  0.98700  Biso   1.000  C
  H13      1.0000 0.09140  0.50600  0.96780  Biso   1.000  H
  H14      1.0000 0.40860  0.49400  0.46780  Biso   1.000  H
  H15      1.0000 0.90860  0.00600  0.53220  Biso   1.000  H
  H16      1.0000 0.59140  0.99400  0.03220  Biso   1.000  H
  C33      1.0000 0.02270  0.50270  0.09020  Biso   1.000  C
  C34      1.0000 0.47730  0.49730  0.59020  Biso   1.000  C
  C35      1.0000 0.97730  0.00270  0.40980  Biso   1.000  C
  C36      1.0000 0.52270  0.99730  0.90980  Biso   1.000  C
  H17      1.0000 0.03370  0.42700  0.09770  Biso   1.000  H
  H18      1.0000 0.46630  0.57300  0.59770  Biso   1.000  H
  H19      1.0000 0.96630  0.92700  0.40230  Biso   1.000  H
  H20      1.0000 0.53370  0.07300  0.90230  Biso   1.000  H
  C37      1.0000 0.96940  0.56830  0.15400  Biso   1.000  C
  C38      1.0000 0.53060  0.43170  0.65400  Biso   1.000  C
  C39      1.0000 0.03060  0.06830  0.34600  Biso   1.000  C
  C40      1.0000 0.46940  0.93170  0.84600  Biso   1.000  C
  H21      1.0000 0.94100  0.53650  0.20530  Biso   1.000  H
  H22      1.0000 0.55900  0.46350  0.70530  Biso   1.000  H
  H23      1.0000 0.05900  0.03650  0.29470  Biso   1.000  H
  H24      1.0000 0.44100  0.96350  0.79470  Biso   1.000  H
  C41      1.0000 0.03220  0.90110  0.98294  Biso   1.000  C
  C42      1.0000 0.46780  0.09890  0.48294  Biso   1.000  C
  C43      1.0000 0.96780  0.40110  0.51706  Biso   1.000  C
  C44      1.0000 0.53220  0.59890  0.01706  Biso   1.000  C
  H25      1.0000 0.07720  0.85440  0.94160  Biso   1.000  H
  H26      1.0000 0.42280  0.14560  0.44160  Biso   1.000  H
  H27      1.0000 0.92280  0.35440  0.55840  Biso   1.000  H
  H28      1.0000 0.57720  0.64560  0.05840  Biso   1.000  H
  C45      1.0000 0.04330  0.03300  0.87630  Biso   1.000  C
  C46      1.0000 0.45670  0.96700  0.37630  Biso   1.000  C
  C47      1.0000 0.95670  0.53300  0.62370  Biso   1.000  C
  C48      1.0000 0.54330  0.46700  0.12370  Biso   1.000  C
  C49      1.0000 0.13030  0.13100  0.85410  Biso   1.000  C
  C50      1.0000 0.36970  0.86900  0.35410  Biso   1.000  C
  C51      1.0000 0.86970  0.63100  0.64590  Biso   1.000  C
  C52      1.0000 0.63030  0.36900  0.14590  Biso   1.000  C
  C53      1.0000 0.16450  0.15120  0.76980  Biso   1.000  C
  C54      1.0000 0.33550  0.84880  0.26980  Biso   1.000  C
  C55      1.0000 0.83550  0.65120  0.73020  Biso   1.000  C
  C56      1.0000 0.66450  0.34880  0.23020  Biso   1.000  C
  H29      1.0000 0.22550  0.21540  0.75440  Biso   1.000  H
  H30      1.0000 0.27450  0.78460  0.25440  Biso   1.000  H
  H31      1.0000 0.77450  0.71540  0.74560  Biso   1.000  H
  H32      1.0000 0.72550  0.28460  0.24560  Biso   1.000  H
  C57      1.0000 0.11020  0.07850  0.70900  Biso   1.000  C
  C58      1.0000 0.38980  0.92150  0.20900  Biso   1.000  C
  C59      1.0000 0.88980  0.57850  0.79100  Biso   1.000  C
  C60      1.0000 0.61020  0.42150  0.29100  Biso   1.000  C
  H33      1.0000 0.13430  0.09350  0.65300  Biso   1.000  H
  H34      1.0000 0.36570  0.90650  0.15300  Biso   1.000  H
  H35      1.0000 0.86570  0.59350  0.84700  Biso   1.000  H
  H36      1.0000 0.63430  0.40650  0.34700  Biso   1.000  H
  C61      1.0000 0.01920  0.98280  0.73130  Biso   1.000  C
  C62      1.0000 0.48080  0.01720  0.23130  Biso   1.000  C
  C63      1.0000 0.98080  0.48280  0.76870  Biso   1.000  C
  C64      1.0000 0.51920  0.51720  0.26870  Biso   1.000  C
  H37      1.0000 0.98200  0.93310  0.69040  Biso   1.000  H
  H38      1.0000 0.51800  0.06690  0.19040  Biso   1.000  H
  H39      1.0000 0.01800  0.43310  0.80960  Biso   1.000  H
  H40      1.0000 0.48200  0.56690  0.30960  Biso   1.000  H
  C65      1.0000 0.98440  0.96140  0.81380  Biso   1.000  C
  C66      1.0000 0.51560  0.03860  0.31380  Biso   1.000  C
  C67      1.0000 0.01560  0.46140  0.68620  Biso   1.000  C
  C68      1.0000 0.48440  0.53860  0.18620  Biso   1.000  C
  H41      1.0000 0.92030  0.89800  0.82840  Biso   1.000  H
  H42      1.0000 0.57970  0.10200  0.32840  Biso   1.000  H
  H43      1.0000 0.07970  0.39800  0.67160  Biso   1.000  H
  H44      1.0000 0.42030  0.60200  0.17160  Biso   1.000  H
  C69      1.0000 0.19930  0.21210  0.91630  Biso   1.000  C
  C70      1.0000 0.30070  0.78790  0.41630  Biso   1.000  C
  C71      1.0000 0.80070  0.71210  0.58370  Biso   1.000  C
  C72      1.0000 0.69930  0.28790  0.08370  Biso   1.000  C
