data_image0
_cell_length_a       9.5425
_cell_length_b       9.9857
_cell_length_c       20.978
_cell_angle_alpha    88.645
_cell_angle_beta     83.015
_cell_angle_gamma    64.759

_symmetry_space_group_name_H-M    "P 1"
_symmetry_int_tables_number       1

loop_
  _symmetry_equiv_pos_as_xyz
  'x, y, z'

loop_
  _atom_site_label
  _atom_site_occupancy
  _atom_site_fract_x
  _atom_site_fract_y
  _atom_site_fract_z
  _atom_site_thermal_displace_type
  _atom_site_B_iso_or_equiv
  _atom_site_type_symbol
  Cu1      1.0000 0.18604  0.20011  0.39914  Biso   1.000  Cu
  Cu2      1.0000 0.81396  0.79989  0.60086  Biso   1.000  Cu
  Cu3      1.0000 0.65643  0.93753  0.13840  Biso   1.000  Cu
  Cu4      1.0000 0.34357  0.06247  0.86160  Biso   1.000  Cu
  O1       1.0000 0.05810  0.39900  0.32953  Biso   1.000  O
  O2       1.0000 0.94190  0.60100  0.67047  Biso   1.000  O
  O3       1.0000 0.95830  0.29100  0.40251  Biso   1.000  O
  O4       1.0000 0.04170  0.70900  0.59749  Biso   1.000  O
  O5       1.0000 0.37590  0.55220  0.45477  Biso   1.000  O
  O6       1.0000 0.62410  0.44780  0.54523  Biso   1.000  O
  O7       1.0000 0.26860  0.54800  0.37030  Biso   1.000  O
  O8       1.0000 0.73140  0.45200  0.62970  Biso   1.000  O
  O9       1.0000 0.60240  0.84590  0.21390  Biso   1.000  O
  O10      1.0000 0.39760  0.15410  0.78610  Biso   1.000  O
  O11      1.0000 0.59890  0.68300  0.15370  Biso   1.000  O
  O12      1.0000 0.40110  0.31700  0.84630  Biso   1.000  O
  O13      1.0000 0.49050  0.38870  0.23520  Biso   1.000  O
  O14      1.0000 0.50950  0.61130  0.76480  Biso   1.000  O
  O15      1.0000 0.42790  0.44900  0.14060  Biso   1.000  O
  O16      1.0000 0.57210  0.55100  0.85940  Biso   1.000  O
  O17      1.0000 0.88020  0.81880  0.14584  Biso   1.000  O
  O18      1.0000 0.11980  0.18120  0.85416  Biso   1.000  O
  O19      1.0000 0.81650  0.02940  0.19730  Biso   1.000  O
  O20      1.0000 0.18350  0.97060  0.80270  Biso   1.000  O
  O21      1.0000 0.29100  0.87610  0.38950  Biso   1.000  O
  O22      1.0000 0.70900  0.12390  0.61050  Biso   1.000  O
  O23      1.0000 0.21280  0.06920  0.32535  Biso   1.000  O
  O24      1.0000 0.78720  0.93080  0.67465  Biso   1.000  O
  N1       1.0000 0.37500  0.55130  0.39670  Biso   1.000  N
  N2       1.0000 0.62500  0.44870  0.60330  Biso   1.000  N
  N3       1.0000 0.41380  0.47640  0.19820  Biso   1.000  N
  N4       1.0000 0.58620  0.52360  0.80180  Biso   1.000  N
  N5       1.0000 0.40460  0.17000  0.39666  Biso   1.000  N
  N6       1.0000 0.59540  0.83000  0.60334  Biso   1.000  N
  N7       1.0000 0.18590  0.23000  0.49240  Biso   1.000  N
  N8       1.0000 0.81410  0.77000  0.50760  Biso   1.000  N
  N9       1.0000 0.44310  0.09000  0.13530  Biso   1.000  N
  N10      1.0000 0.55690  0.91000  0.86470  Biso   1.000  N
  N11      1.0000 0.68650  0.01090  0.05130  Biso   1.000  N
  N12      1.0000 0.31350  0.98910  0.94870  Biso   1.000  N
  C1       1.0000 0.94660  0.38310  0.35750  Biso   1.000  C
  C2       1.0000 0.05340  0.61690  0.64250  Biso   1.000  C
  C3       1.0000 0.78550  0.47020  0.33900  Biso   1.000  C
  C4       1.0000 0.21450  0.52980  0.66100  Biso   1.000  C
  C5       1.0000 0.65250  0.48000  0.37690  Biso   1.000  C
  C6       1.0000 0.34750  0.52000  0.62310  Biso   1.000  C
  H1       1.0000 0.66000  0.43600  0.41660  Biso   1.000  H
  H2       1.0000 0.34000  0.56400  0.58340  Biso   1.000  H
  C7       1.0000 0.50950  0.55450  0.35580  Biso   1.000  C
  C8       1.0000 0.49050  0.44550  0.64420  Biso   1.000  C
  C9       1.0000 0.48990  0.62610  0.29740  Biso   1.000  C
  C10      1.0000 0.51010  0.37390  0.70260  Biso   1.000  C
  C11      1.0000 0.62300  0.62670  0.26210  Biso   1.000  C
  C12      1.0000 0.37700  0.37330  0.73790  Biso   1.000  C
  C13      1.0000 0.76870  0.54740  0.28170  Biso   1.000  C
  C14      1.0000 0.23130  0.45260  0.71830  Biso   1.000  C
  H3       1.0000 0.85680  0.54530  0.25650  Biso   1.000  H
  H4       1.0000 0.14320  0.45470  0.74350  Biso   1.000  H
  C15      1.0000 0.61360  0.71820  0.20330  Biso   1.000  C
  C16      1.0000 0.38640  0.28180  0.79670  Biso   1.000  C
  C17      1.0000 0.33650  0.69880  0.26970  Biso   1.000  C
  C18      1.0000 0.66350  0.30120  0.73030  Biso   1.000  C
  C19      1.0000 0.30250  0.62610  0.22230  Biso   1.000  C
  C20      1.0000 0.69750  0.37390  0.77770  Biso   1.000  C
  C21      1.0000 0.16650  0.68810  0.19330  Biso   1.000  C
  C22      1.0000 0.83350  0.31190  0.80670  Biso   1.000  C
  H5       1.0000 0.14770  0.63490  0.16230  Biso   1.000  H
  H6       1.0000 0.85230  0.36510  0.83770  Biso   1.000  H
  C23      1.0000 0.06040  0.83000  0.21160  Biso   1.000  C
  C24      1.0000 0.93960  0.17000  0.78840  Biso   1.000  C
  C25      1.0000 0.09240  0.90870  0.25670  Biso   1.000  C
  C26      1.0000 0.90760  0.09130  0.74330  Biso   1.000  C
  H7       1.0000 0.02210  0.00620  0.26740  Biso   1.000  H
  H8       1.0000 0.97790  0.99380  0.73260  Biso   1.000  H
  C27      1.0000 0.22890  0.84420  0.28670  Biso   1.000  C
  C28      1.0000 0.77110  0.15580  0.71330  Biso   1.000  C
  C29      1.0000 0.90790  0.90110  0.18300  Biso   1.000  C
  C30      1.0000 0.09210  0.09890  0.81700  Biso   1.000  C
  C31      1.0000 0.24820  0.93490  0.33860  Biso   1.000  C
  C32      1.0000 0.75180  0.06510  0.66140  Biso   1.000  C
  C33      1.0000 0.50570  0.15160  0.34390  Biso   1.000  C
  C34      1.0000 0.49430  0.84840  0.65610  Biso   1.000  C
  H9       1.0000 0.47450  0.14640  0.30400  Biso   1.000  H
  H10      1.0000 0.52550  0.85360  0.69600  Biso   1.000  H
  C35      1.0000 0.65340  0.14010  0.34610  Biso   1.000  C
  C36      1.0000 0.34660  0.85990  0.65390  Biso   1.000  C
  H11      1.0000 0.72050  0.12970  0.30860  Biso   1.000  H
  H12      1.0000 0.27950  0.87030  0.69140  Biso   1.000  H
  C37      1.0000 0.69970  0.14410  0.40470  Biso   1.000  C
  C38      1.0000 0.30030  0.85590  0.59530  Biso   1.000  C
  H13      1.0000 0.80010  0.13470  0.40720  Biso   1.000  H
  H14      1.0000 0.19990  0.86530  0.59280  Biso   1.000  H
  C39      1.0000 0.59970  0.16200  0.45980  Biso   1.000  C
  C40      1.0000 0.40030  0.83800  0.54020  Biso   1.000  C
  H15      1.0000 0.63120  0.16440  0.49980  Biso   1.000  H
  H16      1.0000 0.36880  0.83560  0.50020  Biso   1.000  H
  C41      1.0000 0.44950  0.17650  0.45450  Biso   1.000  C
  C42      1.0000 0.55050  0.82350  0.54550  Biso   1.000  C
  C43      1.0000 0.32890  0.20030  0.50950  Biso   1.000  C
  C44      1.0000 0.67110  0.79970  0.49050  Biso   1.000  C
  C45      1.0000 0.35500  0.18920  0.57300  Biso   1.000  C
  C46      1.0000 0.64500  0.81080  0.42700  Biso   1.000  C
  H17      1.0000 0.45370  0.16800  0.58390  Biso   1.000  H
  H18      1.0000 0.54630  0.83200  0.41610  Biso   1.000  H
  C47      1.0000 0.23220  0.20990  0.62040  Biso   1.000  C
  C48      1.0000 0.76780  0.79010  0.37960  Biso   1.000  C
  H19      1.0000 0.24780  0.19970  0.66350  Biso   1.000  H
  H20      1.0000 0.75220  0.80030  0.33650  Biso   1.000  H
  C49      1.0000 0.08670  0.24600  0.60230  Biso   1.000  C
  C50      1.0000 0.91330  0.75400  0.39770  Biso   1.000  C
  H21      1.0000 0.00180  0.26430  0.63340  Biso   1.000  H
  H22      1.0000 0.99820  0.73570  0.36660  Biso   1.000  H
  C51      1.0000 0.06760  0.25480  0.53850  Biso   1.000  C
  C52      1.0000 0.93240  0.74520  0.46150  Biso   1.000  C
  H23      1.0000 0.96890  0.27890  0.52690  Biso   1.000  H
  H24      1.0000 0.03110  0.72110  0.47310  Biso   1.000  H
  C53      1.0000 0.32360  0.12560  0.18310  Biso   1.000  C
  C54      1.0000 0.67640  0.87440  0.81690  Biso   1.000  C
  H25      1.0000 0.33970  0.07250  0.22070  Biso   1.000  H
  H26      1.0000 0.66030  0.92750  0.77930  Biso   1.000  H
  C55      1.0000 0.17980  0.23740  0.17780  Biso   1.000  C
  C56      1.0000 0.82020  0.76260  0.82220  Biso   1.000  C
  H27      1.0000 0.09820  0.25890  0.21080  Biso   1.000  H
  H28      1.0000 0.90180  0.74110  0.78920  Biso   1.000  H
  C57      1.0000 0.15810  0.31690  0.12320  Biso   1.000  C
  C58      1.0000 0.84190  0.68310  0.87680  Biso   1.000  C
  H29      1.0000 0.06130  0.39450  0.11940  Biso   1.000  H
  H30      1.0000 0.93870  0.60550  0.88060  Biso   1.000  H
  C59      1.0000 0.27660  0.28410  0.07410  Biso   1.000  C
  C60      1.0000 0.72340  0.71590  0.92590  Biso   1.000  C
  H31      1.0000 0.26120  0.33800  0.03680  Biso   1.000  H
  H32      1.0000 0.73880  0.66200  0.96320  Biso   1.000  H
  C61      1.0000 0.41980  0.16920  0.08100  Biso   1.000  C
  C62      1.0000 0.58020  0.83080  0.91900  Biso   1.000  C
  C63      1.0000 0.55820  0.12180  0.03350  Biso   1.000  C
  C64      1.0000 0.44180  0.87820  0.96650  Biso   1.000  C
  C65      1.0000 0.56030  0.18190  0.97270  Biso   1.000  C
  C66      1.0000 0.43970  0.81810  0.02730  Biso   1.000  C
  H33      1.0000 0.47110  0.25850  0.96040  Biso   1.000  H
  H34      1.0000 0.52890  0.74150  0.03960  Biso   1.000  H
  C67      1.0000 0.69590  0.12590  0.93170  Biso   1.000  C
  C68      1.0000 0.30410  0.87410  0.06830  Biso   1.000  C
  H35      1.0000 0.69890  0.16380  0.89090  Biso   1.000  H
  H36      1.0000 0.30110  0.83620  0.10910  Biso   1.000  H
  C69      1.0000 0.83040  0.01200  0.95050  Biso   1.000  C
  C70      1.0000 0.16960  0.98800  0.04950  Biso   1.000  C
  H37      1.0000 0.92380  0.97440  0.92320  Biso   1.000  H
  H38      1.0000 0.07620  0.02560  0.07680  Biso   1.000  H
  C71      1.0000 0.81990  0.95710  0.01090  Biso   1.000  C
  C72      1.0000 0.18010  0.04290  0.98910  Biso   1.000  C
  H39      1.0000 0.90790  0.88050  0.02400  Biso   1.000  H
  H40      1.0000 0.09210  0.11950  0.97600  Biso   1.000  H
  O25      1.0000 0.65390  0.64820  0.14620  Biso   1.000  O
  O26      1.0000 0.34610  0.35180  0.85380  Biso   1.000  O
  O27      1.0000 0.80660  0.30470  0.12920  Biso   1.000  O
  O28      1.0000 0.19340  0.69530  0.87080  Biso   1.000  O
  O29      1.0000 0.83300  0.36700  0.00190  Biso   1.000  O
  O30      1.0000 0.16700  0.63300  0.99810  Biso   1.000  O
  O31      1.0000 0.92000  0.58300  0.04600  Biso   1.000  O
  O32      1.0000 0.08000  0.41700  0.95400  Biso   1.000  O
