data_image0
_cell_length_a       14.16
_cell_length_b       13.67
_cell_length_c       26.5
_cell_angle_alpha    90
_cell_angle_beta     99.98
_cell_angle_gamma    90

_symmetry_space_group_name_H-M    "P 1"
_symmetry_int_tables_number       1

loop_
  _symmetry_equiv_pos_as_xyz
  'x, y, z'

loop_
  _atom_site_label
  _atom_site_occupancy
  _atom_site_fract_x
  _atom_site_fract_y
  _atom_site_fract_z
  _atom_site_thermal_displace_type
  _atom_site_B_iso_or_equiv
  _atom_site_type_symbol
  Cu1      1.0000 0.36860  0.21450  0.22410  Biso   1.000  Cu
  Cu2      1.0000 0.63140  0.71450  0.27590  Biso   1.000  Cu
  Cu3      1.0000 0.63140  0.78550  0.77590  Biso   1.000  Cu
  Cu4      1.0000 0.36860  0.28550  0.72410  Biso   1.000  Cu
  Cu5      1.0000 0.10170  0.20450  0.22860  Biso   1.000  Cu
  Cu6      1.0000 0.89830  0.70450  0.27140  Biso   1.000  Cu
  Cu7      1.0000 0.89830  0.79550  0.77140  Biso   1.000  Cu
  Cu8      1.0000 0.10170  0.29550  0.72860  Biso   1.000  Cu
  O1       1.0000 0.67210  0.59110  0.24580  Biso   1.000  O
  O2       1.0000 0.32790  0.09110  0.25420  Biso   1.000  O
  O3       1.0000 0.32790  0.40890  0.75420  Biso   1.000  O
  O4       1.0000 0.67210  0.90890  0.74580  Biso   1.000  O
  O5       1.0000 0.48070  0.29040  0.21030  Biso   1.000  O
  O6       1.0000 0.51930  0.79040  0.28970  Biso   1.000  O
  O7       1.0000 0.51930  0.70960  0.78970  Biso   1.000  O
  O8       1.0000 0.48070  0.20960  0.71030  Biso   1.000  O
  O9       1.0000 0.82750  0.59070  0.23690  Biso   1.000  O
  O10      1.0000 0.17250  0.09070  0.26310  Biso   1.000  O
  O11      1.0000 0.17250  0.40930  0.76310  Biso   1.000  O
  O12      1.0000 0.82750  0.90930  0.73690  Biso   1.000  O
  O13      1.0000 0.98100  0.28020  0.20730  Biso   1.000  O
  O14      1.0000 0.01900  0.78020  0.29270  Biso   1.000  O
  O15      1.0000 0.01900  0.71980  0.79270  Biso   1.000  O
  O16      1.0000 0.98100  0.21980  0.70730  Biso   1.000  O
  O17      1.0000 0.55850  0.14750  0.22600  Biso   1.000  O
  O18      1.0000 0.44150  0.64750  0.27400  Biso   1.000  O
  O19      1.0000 0.44150  0.85250  0.77400  Biso   1.000  O
  O20      1.0000 0.55850  0.35250  0.72600  Biso   1.000  O
  N1       1.0000 0.36260  0.41860  0.46860  Biso   1.000  N
  N2       1.0000 0.63740  0.91860  0.03140  Biso   1.000  N
  N3       1.0000 0.63740  0.58140  0.53140  Biso   1.000  N
  N4       1.0000 0.36260  0.08140  0.96860  Biso   1.000  N
  N5       1.0000 0.08380  0.36340  0.65830  Biso   1.000  N
  N6       1.0000 0.91620  0.86340  0.84170  Biso   1.000  N
  N7       1.0000 0.91620  0.63660  0.34170  Biso   1.000  N
  N8       1.0000 0.08380  0.13660  0.15830  Biso   1.000  N
  N9       1.0000 0.11290  0.41410  0.47390  Biso   1.000  N
  N10      1.0000 0.88710  0.91410  0.02610  Biso   1.000  N
  N11      1.0000 0.88710  0.58590  0.52610  Biso   1.000  N
  N12      1.0000 0.11290  0.08590  0.97390  Biso   1.000  N
  N13      1.0000 0.14940  0.55090  0.42400  Biso   1.000  N
  N14      1.0000 0.85060  0.05090  0.07600  Biso   1.000  N
  N15      1.0000 0.85060  0.44910  0.57600  Biso   1.000  N
  N16      1.0000 0.14940  0.94910  0.92400  Biso   1.000  N
  N17      1.0000 0.13650  0.57130  0.51150  Biso   1.000  N
  N18      1.0000 0.86350  0.07130  0.98850  Biso   1.000  N
  N19      1.0000 0.86350  0.42870  0.48850  Biso   1.000  N
  N20      1.0000 0.13650  0.92870  0.01150  Biso   1.000  N
  N21      1.0000 0.38160  0.28380  0.29270  Biso   1.000  N
  N22      1.0000 0.61840  0.78380  0.20730  Biso   1.000  N
  N23      1.0000 0.61840  0.71620  0.70730  Biso   1.000  N
  N24      1.0000 0.38160  0.21620  0.79270  Biso   1.000  N
  N25      1.0000 0.11620  0.27830  0.29650  Biso   1.000  N
  N26      1.0000 0.88380  0.77830  0.20350  Biso   1.000  N
  N27      1.0000 0.88380  0.72170  0.70350  Biso   1.000  N
  N28      1.0000 0.11620  0.22170  0.79650  Biso   1.000  N
  N29      1.0000 0.39940  0.55610  0.42130  Biso   1.000  N
  N30      1.0000 0.60060  0.05610  0.07870  Biso   1.000  N
  N31      1.0000 0.60060  0.44390  0.57870  Biso   1.000  N
  N32      1.0000 0.39940  0.94390  0.92130  Biso   1.000  N
  N33      1.0000 0.38980  0.57310  0.50860  Biso   1.000  N
  N34      1.0000 0.61020  0.07310  0.99140  Biso   1.000  N
  N35      1.0000 0.61020  0.42690  0.49140  Biso   1.000  N
  N36      1.0000 0.38980  0.92690  0.00860  Biso   1.000  N
  O21      1.0000 0.91860  0.14420  0.23400  Biso   1.000  O
  O22      1.0000 0.08140  0.64420  0.26600  Biso   1.000  O
  O23      1.0000 0.08140  0.85580  0.76600  Biso   1.000  O
  O24      1.0000 0.91860  0.35580  0.73400  Biso   1.000  O
  N37      1.0000 0.35320  0.35140  0.65460  Biso   1.000  N
  N38      1.0000 0.64680  0.85140  0.84540  Biso   1.000  N
  N39      1.0000 0.64680  0.64860  0.34540  Biso   1.000  N
  N40      1.0000 0.35320  0.14860  0.15460  Biso   1.000  N
  C1       1.0000 0.74760  0.55040  0.23700  Biso   1.000  C
  C2       1.0000 0.25240  0.05040  0.26300  Biso   1.000  C
  C3       1.0000 0.25240  0.44960  0.76300  Biso   1.000  C
  C4       1.0000 0.74760  0.94960  0.73700  Biso   1.000  C
  C5       1.0000 0.12850  0.45740  0.43000  Biso   1.000  C
  C6       1.0000 0.87150  0.95740  0.07000  Biso   1.000  C
  C7       1.0000 0.87150  0.54260  0.57000  Biso   1.000  C
  C8       1.0000 0.12850  0.04260  0.93000  Biso   1.000  C
  C9       1.0000 0.33690  0.33600  0.56380  Biso   1.000  C
  C10      1.0000 0.66310  0.83600  0.93620  Biso   1.000  C
  C11      1.0000 0.66310  0.66400  0.43620  Biso   1.000  C
  C12      1.0000 0.33690  0.16400  0.06380  Biso   1.000  C
  H1       1.0000 0.32280  0.29670  0.53480  Biso   1.000  H
  H2       1.0000 0.67720  0.79670  0.96520  Biso   1.000  H
  H3       1.0000 0.67720  0.70330  0.46520  Biso   1.000  H
  H4       1.0000 0.32280  0.20330  0.03480  Biso   1.000  H
  C13      1.0000 0.11700  0.47710  0.51260  Biso   1.000  C
  C14      1.0000 0.88300  0.97710  0.98740  Biso   1.000  C
  C15      1.0000 0.88300  0.52290  0.48740  Biso   1.000  C
  C16      1.0000 0.11700  0.02290  0.01260  Biso   1.000  C
  C17      1.0000 0.82140  0.28590  0.22040  Biso   1.000  C
  C18      1.0000 0.17860  0.78590  0.27960  Biso   1.000  C
  C19      1.0000 0.17860  0.71410  0.77960  Biso   1.000  C
  C20      1.0000 0.82140  0.21410  0.72040  Biso   1.000  C
  C21      1.0000 0.73580  0.23580  0.22030  Biso   1.000  C
  C22      1.0000 0.26420  0.73580  0.27970  Biso   1.000  C
  C23      1.0000 0.26420  0.76420  0.77970  Biso   1.000  C
  C24      1.0000 0.73580  0.26420  0.72030  Biso   1.000  C
  H5       1.0000 0.73470  0.16780  0.22080  Biso   1.000  H
  H6       1.0000 0.26530  0.66780  0.27920  Biso   1.000  H
  H7       1.0000 0.26530  0.83220  0.77920  Biso   1.000  H
  H8       1.0000 0.73470  0.33220  0.72080  Biso   1.000  H
  C25      1.0000 0.74170  0.44170  0.22700  Biso   1.000  C
  C26      1.0000 0.25830  0.94170  0.27300  Biso   1.000  C
  C27      1.0000 0.25830  0.55830  0.77300  Biso   1.000  C
  C28      1.0000 0.74170  0.05830  0.72700  Biso   1.000  C
  C29      1.0000 0.15200  0.60510  0.46530  Biso   1.000  C
  C30      1.0000 0.84800  0.10510  0.03470  Biso   1.000  C
  C31      1.0000 0.84800  0.39490  0.53470  Biso   1.000  C
  C32      1.0000 0.15200  0.89490  0.96530  Biso   1.000  C
  C33      1.0000 0.39490  0.44100  0.33320  Biso   1.000  C
  C34      1.0000 0.60510  0.94100  0.16680  Biso   1.000  C
  C35      1.0000 0.60510  0.55900  0.66680  Biso   1.000  C
  C36      1.0000 0.39490  0.05900  0.83320  Biso   1.000  C
  H9       1.0000 0.40450  0.50800  0.33100  Biso   1.000  H
  H10      1.0000 0.59550  0.00800  0.16900  Biso   1.000  H
  H11      1.0000 0.59550  0.49200  0.66900  Biso   1.000  H
  H12      1.0000 0.40450  0.99200  0.83100  Biso   1.000  H
  C37      1.0000 0.37080  0.47950  0.50890  Biso   1.000  C
  C38      1.0000 0.62920  0.97950  0.99110  Biso   1.000  C
  C39      1.0000 0.62920  0.52050  0.49110  Biso   1.000  C
  C40      1.0000 0.37080  0.02050  0.00890  Biso   1.000  C
  C41      1.0000 0.12310  0.39470  0.38310  Biso   1.000  C
  C42      1.0000 0.87690  0.89470  0.11690  Biso   1.000  C
  C43      1.0000 0.87690  0.60530  0.61690  Biso   1.000  C
  C44      1.0000 0.12310  0.10530  0.88310  Biso   1.000  C
  C45      1.0000 0.36900  0.24360  0.33620  Biso   1.000  C
  C46      1.0000 0.63100  0.74360  0.16380  Biso   1.000  C
  C47      1.0000 0.63100  0.75640  0.66380  Biso   1.000  C
  C48      1.0000 0.36900  0.25640  0.83620  Biso   1.000  C
  H13      1.0000 0.36060  0.17620  0.33760  Biso   1.000  H
  H14      1.0000 0.63940  0.67620  0.16240  Biso   1.000  H
  H15      1.0000 0.63940  0.82380  0.66240  Biso   1.000  H
  H16      1.0000 0.36060  0.32380  0.83760  Biso   1.000  H
  C49      1.0000 0.55740  0.23700  0.21900  Biso   1.000  C
  C50      1.0000 0.44260  0.73700  0.28100  Biso   1.000  C
  C51      1.0000 0.44260  0.76300  0.78100  Biso   1.000  C
  C52      1.0000 0.55740  0.26300  0.71900  Biso   1.000  C
  C53      1.0000 0.82400  0.38880  0.22500  Biso   1.000  C
  C54      1.0000 0.17600  0.88880  0.27500  Biso   1.000  C
  C55      1.0000 0.17600  0.61120  0.77500  Biso   1.000  C
  C56      1.0000 0.82400  0.11120  0.72500  Biso   1.000  C
  H17      1.0000 0.88210  0.42140  0.22680  Biso   1.000  H
  H18      1.0000 0.11790  0.92140  0.27320  Biso   1.000  H
  H19      1.0000 0.11790  0.57860  0.77320  Biso   1.000  H
  H20      1.0000 0.88210  0.07860  0.72680  Biso   1.000  H
  C57      1.0000 0.35760  0.43470  0.55960  Biso   1.000  C
  C58      1.0000 0.64240  0.93470  0.94040  Biso   1.000  C
  C59      1.0000 0.64240  0.56530  0.44040  Biso   1.000  C
  C60      1.0000 0.35760  0.06530  0.05960  Biso   1.000  C
  C61      1.0000 0.40400  0.60890  0.46380  Biso   1.000  C
  C62      1.0000 0.59600  0.10890  0.03620  Biso   1.000  C
  C63      1.0000 0.59600  0.39110  0.53620  Biso   1.000  C
  C64      1.0000 0.40400  0.89110  0.96380  Biso   1.000  C
  C65      1.0000 0.11860  0.23850  0.34090  Biso   1.000  C
  C66      1.0000 0.88140  0.73850  0.15910  Biso   1.000  C
  C67      1.0000 0.88140  0.76150  0.65910  Biso   1.000  C
  C68      1.0000 0.11860  0.26150  0.84090  Biso   1.000  C
  H21      1.0000 0.11770  0.17050  0.34260  Biso   1.000  H
  H22      1.0000 0.88230  0.67050  0.15740  Biso   1.000  H
  H23      1.0000 0.88230  0.82950  0.65740  Biso   1.000  H
  H24      1.0000 0.11770  0.32950  0.84260  Biso   1.000  H
  C69      1.0000 0.45970  0.87080  0.49580  Biso   1.000  C
  C70      1.0000 0.54030  0.37080  0.00420  Biso   1.000  C
  C71      1.0000 0.54030  0.12920  0.50420  Biso   1.000  C
  C72      1.0000 0.45970  0.62920  0.99580  Biso   1.000  C
  H25      1.0000 0.46180  0.91140  0.52410  Biso   1.000  H
  H26      1.0000 0.53820  0.41140  0.97590  Biso   1.000  H
  H27      1.0000 0.53820  0.08860  0.47590  Biso   1.000  H
  H28      1.0000 0.46180  0.58860  0.02410  Biso   1.000  H
  C73      1.0000 0.20560  0.84800  0.41480  Biso   1.000  C
  C74      1.0000 0.79440  0.34800  0.08520  Biso   1.000  C
  C75      1.0000 0.79440  0.15200  0.58520  Biso   1.000  C
  C76      1.0000 0.20560  0.65200  0.91480  Biso   1.000  C
  H29      1.0000 0.21850  0.87240  0.38390  Biso   1.000  H
  H30      1.0000 0.78150  0.37240  0.11610  Biso   1.000  H
  H31      1.0000 0.78150  0.12760  0.61610  Biso   1.000  H
  H32      1.0000 0.21850  0.62760  0.88390  Biso   1.000  H
  C77      1.0000 0.20910  0.86250  0.50050  Biso   1.000  C
  C78      1.0000 0.79090  0.36250  0.99950  Biso   1.000  C
  C79      1.0000 0.79090  0.13750  0.49950  Biso   1.000  C
  C80      1.0000 0.20910  0.63750  0.00050  Biso   1.000  C
  H33      1.0000 0.22770  0.89820  0.53040  Biso   1.000  H
  H34      1.0000 0.77230  0.39820  0.96960  Biso   1.000  H
  H35      1.0000 0.77230  0.10180  0.46960  Biso   1.000  H
  H36      1.0000 0.22770  0.60180  0.03040  Biso   1.000  H
  C81      1.0000 0.10160  0.45820  0.65180  Biso   1.000  C
  C82      1.0000 0.89840  0.95820  0.84820  Biso   1.000  C
  C83      1.0000 0.89840  0.54180  0.34820  Biso   1.000  C
  C84      1.0000 0.10160  0.04180  0.15180  Biso   1.000  C
  H37      1.0000 0.10760  0.49930  0.68010  Biso   1.000  H
  H38      1.0000 0.89240  0.99930  0.81990  Biso   1.000  H
  H39      1.0000 0.89240  0.50070  0.31990  Biso   1.000  H
  H40      1.0000 0.10760  0.00070  0.18010  Biso   1.000  H
  C85      1.0000 0.18090  0.77340  0.50570  Biso   1.000  C
  C86      1.0000 0.81910  0.27340  0.99430  Biso   1.000  C
  C87      1.0000 0.81910  0.22660  0.49430  Biso   1.000  C
  C88      1.0000 0.18090  0.72660  0.00570  Biso   1.000  C
  H41      1.0000 0.16740  0.75060  0.53670  Biso   1.000  H
  H42      1.0000 0.83260  0.25060  0.96330  Biso   1.000  H
  H43      1.0000 0.83260  0.24940  0.46330  Biso   1.000  H
  H44      1.0000 0.16740  0.74940  0.03670  Biso   1.000  H
  C89      1.0000 0.11610  0.37670  0.29440  Biso   1.000  C
  C90      1.0000 0.88390  0.87670  0.20560  Biso   1.000  C
  C91      1.0000 0.88390  0.62330  0.70560  Biso   1.000  C
  C92      1.0000 0.11610  0.12330  0.79440  Biso   1.000  C
  H45      1.0000 0.11250  0.40600  0.26250  Biso   1.000  H
  H46      1.0000 0.88750  0.90600  0.23750  Biso   1.000  H
  H47      1.0000 0.88750  0.59400  0.73750  Biso   1.000  H
  H48      1.0000 0.11250  0.09400  0.76250  Biso   1.000  H
  C93      1.0000 0.44290  0.77240  0.50160  Biso   1.000  C
  C94      1.0000 0.55710  0.27240  0.99840  Biso   1.000  C
  C95      1.0000 0.55710  0.22760  0.49840  Biso   1.000  C
  C96      1.0000 0.44290  0.72760  0.00160  Biso   1.000  C
  H49      1.0000 0.44300  0.74620  0.53400  Biso   1.000  H
  H50      1.0000 0.55700  0.24620  0.96600  Biso   1.000  H
  H51      1.0000 0.55700  0.25380  0.46600  Biso   1.000  H
  H52      1.0000 0.44300  0.75380  0.03400  Biso   1.000  H
  C97      1.0000 0.17190  0.71270  0.46200  Biso   1.000  C
  C98      1.0000 0.82810  0.21270  0.03800  Biso   1.000  C
  C99      1.0000 0.82810  0.28730  0.53800  Biso   1.000  C
  C100     1.0000 0.17190  0.78730  0.96200  Biso   1.000  C
  C101     1.0000 0.18010  0.75540  0.41620  Biso   1.000  C
  C102     1.0000 0.81990  0.25540  0.08380  Biso   1.000  C
  C103     1.0000 0.81990  0.24460  0.58380  Biso   1.000  C
  C104     1.0000 0.18010  0.74460  0.91620  Biso   1.000  C
  H53      1.0000 0.16770  0.71910  0.38610  Biso   1.000  H
  H54      1.0000 0.83230  0.21910  0.11390  Biso   1.000  H
  H55      1.0000 0.83230  0.28090  0.61390  Biso   1.000  H
  H56      1.0000 0.16770  0.78090  0.88610  Biso   1.000  H
  C105     1.0000 0.37930  0.46270  0.42510  Biso   1.000  C
  C106     1.0000 0.62070  0.96270  0.07490  Biso   1.000  C
  C107     1.0000 0.62070  0.53730  0.57490  Biso   1.000  C
  C108     1.0000 0.37930  0.03730  0.92510  Biso   1.000  C
  C109     1.0000 0.39570  0.38380  0.29240  Biso   1.000  C
  C110     1.0000 0.60430  0.88380  0.20760  Biso   1.000  C
  C111     1.0000 0.60430  0.61620  0.70760  Biso   1.000  C
  C112     1.0000 0.39570  0.11620  0.79240  Biso   1.000  C
  H57      1.0000 0.40630  0.41290  0.26220  Biso   1.000  H
  H58      1.0000 0.59370  0.91290  0.23780  Biso   1.000  H
  H59      1.0000 0.59370  0.58710  0.73780  Biso   1.000  H
  H60      1.0000 0.40630  0.08710  0.76220  Biso   1.000  H
  N41      1.0000 0.21430  0.90990  0.45510  Biso   1.000  N
  N42      1.0000 0.78570  0.40990  0.04490  Biso   1.000  N
  N43      1.0000 0.78570  0.09010  0.54490  Biso   1.000  N
  N44      1.0000 0.21430  0.59010  0.95510  Biso   1.000  N
  C113     1.0000 0.36980  0.49040  0.60270  Biso   1.000  C
  C114     1.0000 0.63020  0.99040  0.89730  Biso   1.000  C
  C115     1.0000 0.63020  0.50960  0.39730  Biso   1.000  C
  C116     1.0000 0.36980  0.00960  0.10270  Biso   1.000  C
  H61      1.0000 0.37890  0.55760  0.60100  Biso   1.000  H
  H62      1.0000 0.62110  0.05760  0.89900  Biso   1.000  H
  H63      1.0000 0.62110  0.44240  0.39900  Biso   1.000  H
  H64      1.0000 0.37890  0.94240  0.10100  Biso   1.000  H
  C117     1.0000 0.46450  0.85340  0.41190  Biso   1.000  C
  C118     1.0000 0.53550  0.35340  0.08810  Biso   1.000  C
  C119     1.0000 0.53550  0.14660  0.58810  Biso   1.000  C
  C120     1.0000 0.46450  0.64660  0.91190  Biso   1.000  C
  H65      1.0000 0.47510  0.87920  0.38090  Biso   1.000  H
  H66      1.0000 0.52490  0.37920  0.11910  Biso   1.000  H
  H67      1.0000 0.52490  0.12080  0.61910  Biso   1.000  H
  H68      1.0000 0.47510  0.62080  0.88090  Biso   1.000  H
  C121     1.0000 0.12240  0.29180  0.38700  Biso   1.000  C
  C122     1.0000 0.87760  0.79180  0.11300  Biso   1.000  C
  C123     1.0000 0.87760  0.70820  0.61300  Biso   1.000  C
  C124     1.0000 0.12240  0.20820  0.88700  Biso   1.000  C
  H69      1.0000 0.12440  0.26050  0.41840  Biso   1.000  H
  H70      1.0000 0.87560  0.76050  0.08160  Biso   1.000  H
  H71      1.0000 0.87560  0.73950  0.58160  Biso   1.000  H
  H72      1.0000 0.12440  0.23950  0.91840  Biso   1.000  H
  C125     1.0000 0.11130  0.49760  0.60560  Biso   1.000  C
  C126     1.0000 0.88870  0.99760  0.89440  Biso   1.000  C
  C127     1.0000 0.88870  0.50240  0.39440  Biso   1.000  C
  C128     1.0000 0.11130  0.00240  0.10560  Biso   1.000  C
  H73      1.0000 0.12410  0.56390  0.60290  Biso   1.000  H
  H74      1.0000 0.87590  0.06390  0.89710  Biso   1.000  H
  H75      1.0000 0.87590  0.43610  0.39710  Biso   1.000  H
  H76      1.0000 0.12410  0.93610  0.10290  Biso   1.000  H
  C129     1.0000 0.44020  0.75550  0.41410  Biso   1.000  C
  C130     1.0000 0.55980  0.25550  0.08590  Biso   1.000  C
  C131     1.0000 0.55980  0.24450  0.58590  Biso   1.000  C
  C132     1.0000 0.44020  0.74450  0.91410  Biso   1.000  C
  H77      1.0000 0.43320  0.71700  0.38470  Biso   1.000  H
  H78      1.0000 0.56680  0.21700  0.11530  Biso   1.000  H
  H79      1.0000 0.56680  0.28300  0.61530  Biso   1.000  H
  H80      1.0000 0.43320  0.78300  0.88470  Biso   1.000  H
  C133     1.0000 0.65450  0.39340  0.22510  Biso   1.000  C
  C134     1.0000 0.34550  0.89340  0.27490  Biso   1.000  C
  C135     1.0000 0.34550  0.60660  0.77490  Biso   1.000  C
  C136     1.0000 0.65450  0.10660  0.72510  Biso   1.000  C
  H81      1.0000 0.59900  0.42830  0.22740  Biso   1.000  H
  H82      1.0000 0.40100  0.92830  0.27260  Biso   1.000  H
  H83      1.0000 0.40100  0.57170  0.77260  Biso   1.000  H
  H84      1.0000 0.59900  0.07170  0.72740  Biso   1.000  H
  C137     1.0000 0.36850  0.44510  0.64900  Biso   1.000  C
  C138     1.0000 0.63150  0.94510  0.85100  Biso   1.000  C
  C139     1.0000 0.63150  0.55490  0.35100  Biso   1.000  C
  C140     1.0000 0.36850  0.05490  0.14900  Biso   1.000  C
  H85      1.0000 0.37930  0.48360  0.67830  Biso   1.000  H
  H86      1.0000 0.62070  0.98360  0.82170  Biso   1.000  H
  H87      1.0000 0.62070  0.51640  0.32170  Biso   1.000  H
  H88      1.0000 0.37930  0.01640  0.17830  Biso   1.000  H
  N45      1.0000 0.47310  0.91040  0.45180  Biso   1.000  N
  N46      1.0000 0.52690  0.41040  0.04820  Biso   1.000  N
  N47      1.0000 0.52690  0.08960  0.54820  Biso   1.000  N
  N48      1.0000 0.47310  0.58960  0.95180  Biso   1.000  N
  C141     1.0000 0.65150  0.28930  0.21950  Biso   1.000  C
  C142     1.0000 0.34850  0.78930  0.28050  Biso   1.000  C
  C143     1.0000 0.34850  0.71070  0.78050  Biso   1.000  C
  C144     1.0000 0.65150  0.21070  0.71950  Biso   1.000  C
  C145     1.0000 0.10210  0.43800  0.56290  Biso   1.000  C
  C146     1.0000 0.89790  0.93800  0.93710  Biso   1.000  C
  C147     1.0000 0.89790  0.56200  0.43710  Biso   1.000  C
  C148     1.0000 0.10210  0.06200  0.06290  Biso   1.000  C
  C149     1.0000 0.36780  0.29990  0.38060  Biso   1.000  C
  C150     1.0000 0.63220  0.79990  0.11940  Biso   1.000  C
  C151     1.0000 0.63220  0.70010  0.61940  Biso   1.000  C
  C152     1.0000 0.36780  0.20010  0.88060  Biso   1.000  C
  H89      1.0000 0.35910  0.26950  0.41090  Biso   1.000  H
  H90      1.0000 0.64090  0.76950  0.08910  Biso   1.000  H
  H91      1.0000 0.64090  0.73050  0.58910  Biso   1.000  H
  H92      1.0000 0.35910  0.23050  0.91090  Biso   1.000  H
  C153     1.0000 0.07070  0.30610  0.61770  Biso   1.000  C
  C154     1.0000 0.92930  0.80610  0.88230  Biso   1.000  C
  C155     1.0000 0.92930  0.69390  0.38230  Biso   1.000  C
  C156     1.0000 0.07070  0.19390  0.11770  Biso   1.000  C
  H93      1.0000 0.05490  0.24080  0.62180  Biso   1.000  H
  H94      1.0000 0.94510  0.74080  0.87820  Biso   1.000  H
  H95      1.0000 0.94510  0.75920  0.37820  Biso   1.000  H
  H96      1.0000 0.05490  0.25920  0.12180  Biso   1.000  H
  C157     1.0000 0.07920  0.33880  0.56920  Biso   1.000  C
  C158     1.0000 0.92080  0.83880  0.93080  Biso   1.000  C
  C159     1.0000 0.92080  0.66120  0.43080  Biso   1.000  C
  C160     1.0000 0.07920  0.16120  0.06920  Biso   1.000  C
  H97      1.0000 0.07010  0.29630  0.54140  Biso   1.000  H
  H98      1.0000 0.92990  0.79630  0.95860  Biso   1.000  H
  H99      1.0000 0.92990  0.70370  0.45860  Biso   1.000  H
  H100     1.0000 0.07010  0.20370  0.04140  Biso   1.000  H
  C161     1.0000 0.42660  0.71540  0.46030  Biso   1.000  C
  C162     1.0000 0.57340  0.21540  0.03970  Biso   1.000  C
  C163     1.0000 0.57340  0.28460  0.53970  Biso   1.000  C
  C164     1.0000 0.42660  0.78460  0.96030  Biso   1.000  C
  C165     1.0000 0.12100  0.43570  0.33580  Biso   1.000  C
  C166     1.0000 0.87900  0.93570  0.16420  Biso   1.000  C
  C167     1.0000 0.87900  0.56430  0.66420  Biso   1.000  C
  C168     1.0000 0.12100  0.06430  0.83580  Biso   1.000  C
  H101     1.0000 0.12300  0.50320  0.33210  Biso   1.000  H
  H102     1.0000 0.87700  0.00320  0.16790  Biso   1.000  H
  H103     1.0000 0.87700  0.49680  0.66790  Biso   1.000  H
  H104     1.0000 0.12300  0.99680  0.83210  Biso   1.000  H
  C169     1.0000 0.91300  0.23160  0.22070  Biso   1.000  C
  C170     1.0000 0.08700  0.73160  0.27930  Biso   1.000  C
  C171     1.0000 0.08700  0.76840  0.77930  Biso   1.000  C
  C172     1.0000 0.91300  0.26840  0.72070  Biso   1.000  C
  C173     1.0000 0.33790  0.29800  0.61140  Biso   1.000  C
  C174     1.0000 0.66210  0.79800  0.88860  Biso   1.000  C
  C175     1.0000 0.66210  0.70200  0.38860  Biso   1.000  C
  C176     1.0000 0.33790  0.20200  0.11140  Biso   1.000  C
  H105     1.0000 0.32750  0.23130  0.61420  Biso   1.000  H
  H106     1.0000 0.67250  0.73130  0.88580  Biso   1.000  H
  H107     1.0000 0.67250  0.76870  0.38580  Biso   1.000  H
  H108     1.0000 0.32750  0.26870  0.11420  Biso   1.000  H
  C177     1.0000 0.37930  0.39890  0.37940  Biso   1.000  C
  C178     1.0000 0.62070  0.89890  0.12060  Biso   1.000  C
  C179     1.0000 0.62070  0.60110  0.62060  Biso   1.000  C
  C180     1.0000 0.37930  0.10110  0.87940  Biso   1.000  C
  Cl1      1.0000 0.22280  0.31960  0.19550  Biso   1.000  Cl
  Cl2      1.0000 0.77720  0.81960  0.30450  Biso   1.000  Cl
  Cl3      1.0000 0.77720  0.68040  0.80450  Biso   1.000  Cl
  Cl4      1.0000 0.22280  0.18040  0.69550  Biso   1.000  Cl
