data_image0
_cell_length_a       18.4775
_cell_length_b       8.3433
_cell_length_c       16.5648
_cell_angle_alpha    90
_cell_angle_beta     110.044
_cell_angle_gamma    90

_symmetry_space_group_name_H-M    "P 1"
_symmetry_int_tables_number       1

loop_
  _symmetry_equiv_pos_as_xyz
  'x, y, z'

loop_
  _atom_site_label
  _atom_site_occupancy
  _atom_site_fract_x
  _atom_site_fract_y
  _atom_site_fract_z
  _atom_site_thermal_displace_type
  _atom_site_B_iso_or_equiv
  _atom_site_type_symbol
  Cu1      1.0000 0.67149  0.65609  0.22250  Biso   1.000  Cu
  Cu2      1.0000 0.32851  0.15609  0.27750  Biso   1.000  Cu
  Cu3      1.0000 0.32851  0.34391  0.77750  Biso   1.000  Cu
  Cu4      1.0000 0.67149  0.84391  0.72250  Biso   1.000  Cu
  Cu5      1.0000 0.80471  0.57609  0.53935  Biso   1.000  Cu
  Cu6      1.0000 0.19529  0.07609  0.96065  Biso   1.000  Cu
  Cu7      1.0000 0.19529  0.42391  0.46065  Biso   1.000  Cu
  Cu8      1.0000 0.80471  0.92391  0.03935  Biso   1.000  Cu
  N1       1.0000 0.55387  0.72340  0.18432  Biso   1.000  N
  N2       1.0000 0.44613  0.22340  0.31568  Biso   1.000  N
  N3       1.0000 0.44613  0.27660  0.81568  Biso   1.000  N
  N4       1.0000 0.55387  0.77660  0.68432  Biso   1.000  N
  N5       1.0000 0.92455  0.62000  0.56730  Biso   1.000  N
  N6       1.0000 0.07545  0.12000  0.93270  Biso   1.000  N
  N7       1.0000 0.07545  0.38000  0.43270  Biso   1.000  N
  N8       1.0000 0.92455  0.88000  0.06730  Biso   1.000  N
  N9       1.0000 0.61703  0.44360  0.16334  Biso   1.000  N
  N10      1.0000 0.38297  0.94360  0.33666  Biso   1.000  N
  N11      1.0000 0.38297  0.55640  0.83666  Biso   1.000  N
  N12      1.0000 0.61703  0.05640  0.66334  Biso   1.000  N
  N13      1.0000 0.85151  0.35050  0.58594  Biso   1.000  N
  N14      1.0000 0.14849  0.85050  0.91406  Biso   1.000  N
  N15      1.0000 0.14849  0.64950  0.41406  Biso   1.000  N
  N16      1.0000 0.85151  0.14950  0.08594  Biso   1.000  N
  C1       1.0000 0.96882  0.49060  0.60370  Biso   1.000  C
  C2       1.0000 0.03118  0.99060  0.89630  Biso   1.000  C
  C3       1.0000 0.03118  0.50940  0.39630  Biso   1.000  C
  C4       1.0000 0.96882  0.00940  0.10370  Biso   1.000  C
  C5       1.0000 0.75907  0.82780  0.11885  Biso   1.000  C
  C6       1.0000 0.24093  0.32780  0.38115  Biso   1.000  C
  C7       1.0000 0.24093  0.17220  0.88115  Biso   1.000  C
  C8       1.0000 0.75907  0.67220  0.61885  Biso   1.000  C
  C9       1.0000 0.50546  0.60800  0.13743  Biso   1.000  C
  C10      1.0000 0.49454  0.10800  0.36257  Biso   1.000  C
  C11      1.0000 0.49454  0.39200  0.86257  Biso   1.000  C
  C12      1.0000 0.50546  0.89200  0.63743  Biso   1.000  C
  C13      1.0000 0.93019  0.34750  0.61597  Biso   1.000  C
  C14      1.0000 0.06981  0.84750  0.88403  Biso   1.000  C
  C15      1.0000 0.06981  0.65250  0.38403  Biso   1.000  C
  C16      1.0000 0.93019  0.15250  0.11597  Biso   1.000  C
  N17      1.0000 0.72615  0.76640  0.15806  Biso   1.000  N
  N18      1.0000 0.27385  0.26640  0.34194  Biso   1.000  N
  N19      1.0000 0.27385  0.23360  0.84194  Biso   1.000  N
  N20      1.0000 0.72615  0.73360  0.65806  Biso   1.000  N
  C17      1.0000 0.53937  0.45820  0.12614  Biso   1.000  C
  C18      1.0000 0.46063  0.95820  0.37386  Biso   1.000  C
  C19      1.0000 0.46063  0.54180  0.87386  Biso   1.000  C
  C20      1.0000 0.53937  0.04180  0.62614  Biso   1.000  C
  C21      1.0000 0.05012  0.49070  0.62909  Biso   1.000  C
  C22      1.0000 0.94988  0.99070  0.87091  Biso   1.000  C
  C23      1.0000 0.94988  0.50930  0.37091  Biso   1.000  C
  C24      1.0000 0.05012  0.00930  0.12909  Biso   1.000  C
  C25      1.0000 0.97333  0.21270  0.65537  Biso   1.000  C
  C26      1.0000 0.02667  0.71270  0.84463  Biso   1.000  C
  C27      1.0000 0.02667  0.78730  0.34463  Biso   1.000  C
  C28      1.0000 0.97333  0.28730  0.15537  Biso   1.000  C
  C29      1.0000 0.42485  0.62860  0.10216  Biso   1.000  C
  C30      1.0000 0.57515  0.12860  0.39784  Biso   1.000  C
  C31      1.0000 0.57515  0.37140  0.89784  Biso   1.000  C
  C32      1.0000 0.42485  0.87140  0.60216  Biso   1.000  C
  C33      1.0000 0.96022  0.74930  0.55330  Biso   1.000  C
  C34      1.0000 0.03978  0.24930  0.94670  Biso   1.000  C
  C35      1.0000 0.03978  0.25070  0.44670  Biso   1.000  C
  C36      1.0000 0.96022  0.75070  0.05330  Biso   1.000  C
  H1       1.0000 0.93056  0.83770  0.52765  Biso   1.000  H
  H2       1.0000 0.06944  0.33770  0.97235  Biso   1.000  H
  H3       1.0000 0.06944  0.16230  0.47235  Biso   1.000  H
  H4       1.0000 0.93056  0.66230  0.02765  Biso   1.000  H
  C37      1.0000 0.52276  0.86060  0.19663  Biso   1.000  C
  C38      1.0000 0.47724  0.36060  0.30337  Biso   1.000  C
  C39      1.0000 0.47724  0.13940  0.80337  Biso   1.000  C
  C40      1.0000 0.52276  0.63940  0.69663  Biso   1.000  C
  H5       1.0000 0.55532  0.93973  0.22907  Biso   1.000  H
  H6       1.0000 0.44468  0.43973  0.27093  Biso   1.000  H
  H7       1.0000 0.44468  0.06027  0.77093  Biso   1.000  H
  H8       1.0000 0.55532  0.56027  0.72907  Biso   1.000  H
  C41      1.0000 0.49115  0.33280  0.08026  Biso   1.000  C
  C42      1.0000 0.50885  0.83280  0.41974  Biso   1.000  C
  C43      1.0000 0.50885  0.66720  0.91974  Biso   1.000  C
  C44      1.0000 0.49115  0.16720  0.58026  Biso   1.000  C
  C45      1.0000 0.04045  0.75960  0.57520  Biso   1.000  C
  C46      1.0000 0.95955  0.25960  0.92480  Biso   1.000  C
  C47      1.0000 0.95955  0.24040  0.42480  Biso   1.000  C
  C48      1.0000 0.04045  0.74040  0.07520  Biso   1.000  C
  H9       1.0000 0.06304  0.85288  0.56426  Biso   1.000  H
  H10      1.0000 0.93696  0.35288  0.93574  Biso   1.000  H
  H11      1.0000 0.93696  0.14712  0.43574  Biso   1.000  H
  H12      1.0000 0.06304  0.64712  0.06426  Biso   1.000  H
  C49      1.0000 0.05590  0.21940  0.68327  Biso   1.000  C
  C50      1.0000 0.94410  0.71940  0.81673  Biso   1.000  C
  C51      1.0000 0.94410  0.78060  0.31673  Biso   1.000  C
  C52      1.0000 0.05590  0.28060  0.18327  Biso   1.000  C
  H13      1.0000 0.08477  0.13182  0.71131  Biso   1.000  H
  H14      1.0000 0.91523  0.63182  0.78869  Biso   1.000  H
  H15      1.0000 0.91523  0.86818  0.28869  Biso   1.000  H
  H16      1.0000 0.08477  0.36818  0.21131  Biso   1.000  H
  C53      1.0000 0.08499  0.63100  0.61280  Biso   1.000  C
  C54      1.0000 0.91501  0.13100  0.88720  Biso   1.000  C
  C55      1.0000 0.91501  0.36900  0.38720  Biso   1.000  C
  C56      1.0000 0.08499  0.86900  0.11280  Biso   1.000  C
  H17      1.0000 0.13825  0.63621  0.62764  Biso   1.000  H
  H18      1.0000 0.86175  0.13621  0.87236  Biso   1.000  H
  H19      1.0000 0.86175  0.36379  0.37236  Biso   1.000  H
  H20      1.0000 0.13825  0.86379  0.12764  Biso   1.000  H
  C57      1.0000 0.44356  0.89270  0.16340  Biso   1.000  C
  C58      1.0000 0.55644  0.39270  0.33660  Biso   1.000  C
  C59      1.0000 0.55644  0.10730  0.83660  Biso   1.000  C
  C60      1.0000 0.44356  0.60730  0.66340  Biso   1.000  C
  H21      1.0000 0.42430  0.99086  0.17343  Biso   1.000  H
  H22      1.0000 0.57570  0.49086  0.32657  Biso   1.000  H
  H23      1.0000 0.57570  0.00914  0.82657  Biso   1.000  H
  H24      1.0000 0.42430  0.50914  0.67343  Biso   1.000  H
  C61      1.0000 0.39531  0.77720  0.11612  Biso   1.000  C
  C62      1.0000 0.60469  0.27720  0.38388  Biso   1.000  C
  C63      1.0000 0.60469  0.22280  0.88388  Biso   1.000  C
  C64      1.0000 0.39531  0.72280  0.61612  Biso   1.000  C
  H25      1.0000 0.34265  0.79679  0.09302  Biso   1.000  H
  H26      1.0000 0.65735  0.29679  0.40698  Biso   1.000  H
  H27      1.0000 0.65735  0.20321  0.90698  Biso   1.000  H
  H28      1.0000 0.34265  0.70321  0.59302  Biso   1.000  H
  C65      1.0000 0.09199  0.35110  0.66931  Biso   1.000  C
  C66      1.0000 0.90801  0.85110  0.83069  Biso   1.000  C
  C67      1.0000 0.90801  0.64890  0.33069  Biso   1.000  C
  C68      1.0000 0.09199  0.14890  0.16931  Biso   1.000  C
  H29      1.0000 0.14546  0.35131  0.68622  Biso   1.000  H
  H30      1.0000 0.85454  0.85131  0.81378  Biso   1.000  H
  H31      1.0000 0.85454  0.64869  0.31378  Biso   1.000  H
  H32      1.0000 0.14546  0.14869  0.18622  Biso   1.000  H
  C69      1.0000 0.37827  0.49860  0.05542  Biso   1.000  C
  C70      1.0000 0.62173  0.99860  0.44458  Biso   1.000  C
  C71      1.0000 0.62173  0.50140  0.94458  Biso   1.000  C
  C72      1.0000 0.37827  0.00140  0.55542  Biso   1.000  C
  H33      1.0000 0.32517  0.51170  0.03159  Biso   1.000  H
  H34      1.0000 0.67483  0.01170  0.46841  Biso   1.000  H
  H35      1.0000 0.67483  0.48830  0.96841  Biso   1.000  H
  H36      1.0000 0.32517  0.98830  0.53159  Biso   1.000  H
  C73      1.0000 0.64821  0.30270  0.15610  Biso   1.000  C
  C74      1.0000 0.35179  0.80270  0.34390  Biso   1.000  C
  C75      1.0000 0.35179  0.69730  0.84390  Biso   1.000  C
  C76      1.0000 0.64821  0.19730  0.65610  Biso   1.000  C
  H37      1.0000 0.70118  0.29033  0.18203  Biso   1.000  H
  H38      1.0000 0.29882  0.79033  0.31797  Biso   1.000  H
  H39      1.0000 0.29882  0.70967  0.81797  Biso   1.000  H
  H40      1.0000 0.70118  0.20967  0.68203  Biso   1.000  H
  C77      1.0000 0.93228  0.07470  0.66420  Biso   1.000  C
  C78      1.0000 0.06772  0.57470  0.83580  Biso   1.000  C
  C79      1.0000 0.06772  0.92530  0.33580  Biso   1.000  C
  C80      1.0000 0.93228  0.42530  0.16420  Biso   1.000  C
  H41      1.0000 0.95855  0.98335  0.69087  Biso   1.000  H
  H42      1.0000 0.04145  0.48335  0.80913  Biso   1.000  H
  H43      1.0000 0.04145  0.01665  0.30913  Biso   1.000  H
  H44      1.0000 0.95855  0.51665  0.19087  Biso   1.000  H
  C81      1.0000 0.40992  0.35840  0.04550  Biso   1.000  C
  C82      1.0000 0.59008  0.85840  0.45450  Biso   1.000  C
  C83      1.0000 0.59008  0.64160  0.95450  Biso   1.000  C
  C84      1.0000 0.40992  0.14160  0.54550  Biso   1.000  C
  H45      1.0000 0.37819  0.27608  0.01520  Biso   1.000  H
  H46      1.0000 0.62181  0.77608  0.48480  Biso   1.000  H
  H47      1.0000 0.62181  0.72392  0.98480  Biso   1.000  H
  H48      1.0000 0.37819  0.22392  0.51520  Biso   1.000  H
  C85      1.0000 0.81581  0.21630  0.59450  Biso   1.000  C
  C86      1.0000 0.18419  0.71630  0.90550  Biso   1.000  C
  C87      1.0000 0.18419  0.78370  0.40550  Biso   1.000  C
  C88      1.0000 0.81581  0.28370  0.09450  Biso   1.000  C
  H49      1.0000 0.76224  0.21532  0.57334  Biso   1.000  H
  H50      1.0000 0.23776  0.71532  0.92666  Biso   1.000  H
  H51      1.0000 0.23776  0.78468  0.42666  Biso   1.000  H
  H52      1.0000 0.76224  0.28468  0.07334  Biso   1.000  H
  C89      1.0000 0.85380  0.07720  0.63330  Biso   1.000  C
  C90      1.0000 0.14620  0.57720  0.86670  Biso   1.000  C
  C91      1.0000 0.14620  0.92280  0.36670  Biso   1.000  C
  C92      1.0000 0.85380  0.42280  0.13330  Biso   1.000  C
  H53      1.0000 0.82583  0.98710  0.63803  Biso   1.000  H
  H54      1.0000 0.17417  0.48710  0.86197  Biso   1.000  H
  H55      1.0000 0.17417  0.01290  0.36197  Biso   1.000  H
  H56      1.0000 0.82583  0.51290  0.13803  Biso   1.000  H
  C93      1.0000 0.60500  0.17200  0.11130  Biso   1.000  C
  C94      1.0000 0.39500  0.67200  0.38870  Biso   1.000  C
  C95      1.0000 0.39500  0.82800  0.88870  Biso   1.000  C
  C96      1.0000 0.60500  0.32800  0.61130  Biso   1.000  C
  H57      1.0000 0.62904  0.07576  0.10759  Biso   1.000  H
  H58      1.0000 0.37096  0.57576  0.39241  Biso   1.000  H
  H59      1.0000 0.37096  0.92424  0.89241  Biso   1.000  H
  H60      1.0000 0.62904  0.42424  0.60759  Biso   1.000  H
  C97      1.0000 0.52730  0.18830  0.07340  Biso   1.000  C
  C98      1.0000 0.47270  0.68830  0.42660  Biso   1.000  C
  C99      1.0000 0.47270  0.81170  0.92660  Biso   1.000  C
  C100     1.0000 0.52730  0.31170  0.57340  Biso   1.000  C
  H61      1.0000 0.49807  0.10322  0.04279  Biso   1.000  H
  H62      1.0000 0.50193  0.60322  0.45721  Biso   1.000  H
  H63      1.0000 0.50193  0.89678  0.95721  Biso   1.000  H
  H64      1.0000 0.49807  0.39678  0.54279  Biso   1.000  H
  C101     1.0000 0.74917  0.59530  0.41738  Biso   1.000  C
  C102     1.0000 0.25083  0.09530  0.08262  Biso   1.000  C
  C103     1.0000 0.25083  0.40470  0.58262  Biso   1.000  C
  C104     1.0000 0.74917  0.90470  0.91738  Biso   1.000  C
  N21      1.0000 0.71741  0.61830  0.34513  Biso   1.000  N
  N22      1.0000 0.28259  0.11830  0.15487  Biso   1.000  N
  N23      1.0000 0.28259  0.38170  0.65487  Biso   1.000  N
  N24      1.0000 0.71741  0.88170  0.84513  Biso   1.000  N
