data_image0
_cell_length_a       6.017
_cell_length_b       7.68
_cell_length_c       25.244
_cell_angle_alpha    90
_cell_angle_beta     90
_cell_angle_gamma    90

_symmetry_space_group_name_H-M    "P 1"
_symmetry_int_tables_number       1

loop_
  _symmetry_equiv_pos_as_xyz
  'x, y, z'

loop_
  _atom_site_label
  _atom_site_occupancy
  _atom_site_fract_x
  _atom_site_fract_y
  _atom_site_fract_z
  _atom_site_thermal_displace_type
  _atom_site_B_iso_or_equiv
  _atom_site_type_symbol
  Cu1      1.0000 0.49560  0.94660  0.53240  Biso   1.000  Cu
  Cu2      1.0000 0.00440  0.05340  0.03240  Biso   1.000  Cu
  Cu3      1.0000 0.99560  0.55340  0.46760  Biso   1.000  Cu
  Cu4      1.0000 0.50440  0.44660  0.96760  Biso   1.000  Cu
  O1       1.0000 0.28600  0.16870  0.52870  Biso   1.000  O
  O2       1.0000 0.21400  0.83130  0.02870  Biso   1.000  O
  O3       1.0000 0.78600  0.33130  0.47130  Biso   1.000  O
  O4       1.0000 0.71400  0.66870  0.97130  Biso   1.000  O
  C1       1.0000 0.74800  0.84520  0.45280  Biso   1.000  C
  C2       1.0000 0.75200  0.15480  0.95280  Biso   1.000  C
  C3       1.0000 0.24800  0.65480  0.54720  Biso   1.000  C
  C4       1.0000 0.25200  0.34520  0.04720  Biso   1.000  C
  C5       1.0000 0.92200  0.85380  0.40800  Biso   1.000  C
  C6       1.0000 0.57800  0.14620  0.90800  Biso   1.000  C
  C7       1.0000 0.42200  0.64620  0.59200  Biso   1.000  C
  C8       1.0000 0.07800  0.35380  0.09200  Biso   1.000  C
  C9       1.0000 0.83400  0.95300  0.35980  Biso   1.000  C
  C10      1.0000 0.66600  0.04700  0.85980  Biso   1.000  C
  C11      1.0000 0.33400  0.54700  0.64020  Biso   1.000  C
  C12      1.0000 0.16600  0.45300  0.14020  Biso   1.000  C
  O5       1.0000 0.61540  0.96630  0.45770  Biso   1.000  O
  O6       1.0000 0.88460  0.03370  0.95770  Biso   1.000  O
  O7       1.0000 0.11540  0.53370  0.54230  Biso   1.000  O
  O8       1.0000 0.38460  0.46630  0.04230  Biso   1.000  O
  O9       1.0000 0.26120  0.78230  0.51540  Biso   1.000  O
  O10      1.0000 0.23880  0.21770  0.01540  Biso   1.000  O
  O11      1.0000 0.76120  0.71770  0.48460  Biso   1.000  O
  O12      1.0000 0.73880  0.28230  0.98460  Biso   1.000  O
  N1       1.0000 0.49300  0.82460  0.60270  Biso   1.000  N
  N2       1.0000 0.00700  0.17540  0.10270  Biso   1.000  N
  N3       1.0000 0.99300  0.67540  0.39730  Biso   1.000  N
  N4       1.0000 0.50700  0.32460  0.89730  Biso   1.000  N
  C13      1.0000 0.72200  0.84400  0.62400  Biso   1.000  C
  C14      1.0000 0.77800  0.15600  0.12400  Biso   1.000  C
  C15      1.0000 0.22200  0.65600  0.37600  Biso   1.000  C
  C16      1.0000 0.27800  0.34400  0.87600  Biso   1.000  C
  C17      1.0000 0.85500  0.98600  0.59680  Biso   1.000  C
  C18      1.0000 0.64500  0.01400  0.09680  Biso   1.000  C
  C19      1.0000 0.35500  0.51400  0.40320  Biso   1.000  C
  C20      1.0000 0.14500  0.48600  0.90320  Biso   1.000  C
  O13      1.0000 0.04140  0.01870  0.61440  Biso   1.000  O
  O14      1.0000 0.45860  0.98130  0.11440  Biso   1.000  O
  O15      1.0000 0.54140  0.48130  0.38560  Biso   1.000  O
  O16      1.0000 0.95860  0.51870  0.88560  Biso   1.000  O
  O17      1.0000 0.76110  0.06370  0.55830  Biso   1.000  O
  O18      1.0000 0.73890  0.93630  0.05830  Biso   1.000  O
  O19      1.0000 0.26110  0.43630  0.44170  Biso   1.000  O
  O20      1.0000 0.23890  0.56370  0.94170  Biso   1.000  O
  C21      1.0000 0.02200  0.99850  0.32150  Biso   1.000  C
  C22      1.0000 0.47800  0.00150  0.82150  Biso   1.000  C
  C23      1.0000 0.52200  0.50150  0.67850  Biso   1.000  C
  C24      1.0000 0.97800  0.49850  0.17850  Biso   1.000  C
  C25      1.0000 0.02000  0.92490  0.27110  Biso   1.000  C
  C26      1.0000 0.48000  0.07510  0.77110  Biso   1.000  C
  C27      1.0000 0.52000  0.57510  0.72890  Biso   1.000  C
  C28      1.0000 0.98000  0.42490  0.22890  Biso   1.000  C
  C29      1.0000 0.20300  0.96100  0.23740  Biso   1.000  C
  C30      1.0000 0.29700  0.03900  0.73740  Biso   1.000  C
  C31      1.0000 0.70300  0.53900  0.76260  Biso   1.000  C
  C32      1.0000 0.79700  0.46100  0.26260  Biso   1.000  C
  C33      1.0000 0.36900  0.06700  0.25310  Biso   1.000  C
  C34      1.0000 0.13100  0.93300  0.75310  Biso   1.000  C
  C35      1.0000 0.86900  0.43300  0.74690  Biso   1.000  C
  C36      1.0000 0.63100  0.56700  0.24690  Biso   1.000  C
  C37      1.0000 0.36300  0.14500  0.30280  Biso   1.000  C
  C38      1.0000 0.13700  0.85500  0.80280  Biso   1.000  C
  C39      1.0000 0.86300  0.35500  0.69720  Biso   1.000  C
  C40      1.0000 0.63700  0.64500  0.19720  Biso   1.000  C
  C41      1.0000 0.18900  0.11000  0.33640  Biso   1.000  C
  C42      1.0000 0.31100  0.89000  0.83640  Biso   1.000  C
  C43      1.0000 0.68900  0.39000  0.66360  Biso   1.000  C
  C44      1.0000 0.81100  0.61000  0.16360  Biso   1.000  C
  H1       1.0000 0.02000  0.91000  0.42300  Biso   1.000  H
  H2       1.0000 0.48000  0.09000  0.92300  Biso   1.000  H
  H3       1.0000 0.52000  0.59000  0.57700  Biso   1.000  H
  H4       1.0000 0.98000  0.41000  0.07700  Biso   1.000  H
  H5       1.0000 0.79000  0.07000  0.37300  Biso   1.000  H
  H6       1.0000 0.71000  0.93000  0.87300  Biso   1.000  H
  H7       1.0000 0.29000  0.43000  0.62700  Biso   1.000  H
  H8       1.0000 0.21000  0.57000  0.12700  Biso   1.000  H
  H9       1.0000 0.72000  0.88000  0.34200  Biso   1.000  H
  H10      1.0000 0.78000  0.12000  0.84200  Biso   1.000  H
  H11      1.0000 0.22000  0.62000  0.65800  Biso   1.000  H
  H12      1.0000 0.28000  0.38000  0.15800  Biso   1.000  H
  H13      1.0000 0.39400  0.89400  0.63100  Biso   1.000  H
  H14      1.0000 0.10600  0.10600  0.13100  Biso   1.000  H
  H15      1.0000 0.89400  0.60600  0.36900  Biso   1.000  H
  H16      1.0000 0.60600  0.39400  0.86900  Biso   1.000  H
  H17      1.0000 0.81000  0.76000  0.61100  Biso   1.000  H
  H18      1.0000 0.69000  0.24000  0.11100  Biso   1.000  H
  H19      1.0000 0.31000  0.74000  0.38900  Biso   1.000  H
  H20      1.0000 0.19000  0.26000  0.88900  Biso   1.000  H
  H21      1.0000 0.71000  0.86000  0.65600  Biso   1.000  H
  H22      1.0000 0.79000  0.14000  0.15600  Biso   1.000  H
  H23      1.0000 0.21000  0.64000  0.34400  Biso   1.000  H
  H24      1.0000 0.29000  0.36000  0.84400  Biso   1.000  H
  H25      1.0000 0.95000  0.84000  0.25900  Biso   1.000  H
  H26      1.0000 0.55000  0.16000  0.75900  Biso   1.000  H
  H27      1.0000 0.45000  0.66000  0.74100  Biso   1.000  H
  H28      1.0000 0.05000  0.34000  0.24100  Biso   1.000  H
  H29      1.0000 0.21000  0.90000  0.20500  Biso   1.000  H
  H30      1.0000 0.29000  0.10000  0.70500  Biso   1.000  H
  H31      1.0000 0.71000  0.60000  0.79500  Biso   1.000  H
  H32      1.0000 0.79000  0.40000  0.29500  Biso   1.000  H
  H33      1.0000 0.48000  0.10000  0.23300  Biso   1.000  H
  H34      1.0000 0.02000  0.90000  0.73300  Biso   1.000  H
  H35      1.0000 0.98000  0.40000  0.76700  Biso   1.000  H
  H36      1.0000 0.52000  0.60000  0.26700  Biso   1.000  H
  H37      1.0000 0.47000  0.23000  0.31700  Biso   1.000  H
  H38      1.0000 0.03000  0.77000  0.81700  Biso   1.000  H
  H39      1.0000 0.97000  0.27000  0.68300  Biso   1.000  H
  H40      1.0000 0.53000  0.73000  0.18300  Biso   1.000  H
  H41      1.0000 0.21000  0.16000  0.37200  Biso   1.000  H
  H42      1.0000 0.29000  0.84000  0.87200  Biso   1.000  H
  H43      1.0000 0.71000  0.34000  0.62800  Biso   1.000  H
  H44      1.0000 0.79000  0.66000  0.12800  Biso   1.000  H
  H45      1.0000 0.15600  0.14100  0.54700  Biso   1.000  H
  H46      1.0000 0.34400  0.85900  0.04700  Biso   1.000  H
  H47      1.0000 0.65600  0.35900  0.45300  Biso   1.000  H
  H48      1.0000 0.84400  0.64100  0.95300  Biso   1.000  H
  H49      1.0000 0.26600  0.28100  0.51600  Biso   1.000  H
  H50      1.0000 0.23400  0.71900  0.01600  Biso   1.000  H
  H51      1.0000 0.76600  0.21900  0.48400  Biso   1.000  H
  H52      1.0000 0.73400  0.78100  0.98400  Biso   1.000  H
