data_image0
_cell_length_a       13.91
_cell_length_b       15.111
_cell_length_c       8.107
_cell_angle_alpha    90
_cell_angle_beta     99.455
_cell_angle_gamma    90

_symmetry_space_group_name_H-M    "P 1"
_symmetry_int_tables_number       1

loop_
  _symmetry_equiv_pos_as_xyz
  'x, y, z'

loop_
  _atom_site_label
  _atom_site_occupancy
  _atom_site_fract_x
  _atom_site_fract_y
  _atom_site_fract_z
  _atom_site_thermal_displace_type
  _atom_site_B_iso_or_equiv
  _atom_site_type_symbol
  Br1      1.0000 0.12569  0.45660  0.92107  Biso   1.000  Br
  Br2      1.0000 0.87431  0.45660  0.57893  Biso   1.000  Br
  Br3      1.0000 0.62569  0.95660  0.92107  Biso   1.000  Br
  Br4      1.0000 0.37431  0.95660  0.57893  Biso   1.000  Br
  Br5      1.0000 0.87431  0.54340  0.07893  Biso   1.000  Br
  Br6      1.0000 0.12569  0.54340  0.42107  Biso   1.000  Br
  Br7      1.0000 0.37431  0.04340  0.07893  Biso   1.000  Br
  Br8      1.0000 0.62569  0.04340  0.42107  Biso   1.000  Br
  Cu1      1.0000 0.05525  0.43372  0.61254  Biso   1.000  Cu
  Cu2      1.0000 0.94475  0.43372  0.88746  Biso   1.000  Cu
  Cu3      1.0000 0.55525  0.93372  0.61254  Biso   1.000  Cu
  Cu4      1.0000 0.44475  0.93372  0.88746  Biso   1.000  Cu
  Cu5      1.0000 0.94475  0.56628  0.38746  Biso   1.000  Cu
  Cu6      1.0000 0.05525  0.56628  0.11254  Biso   1.000  Cu
  Cu7      1.0000 0.44475  0.06628  0.38746  Biso   1.000  Cu
  Cu8      1.0000 0.55525  0.06628  0.11254  Biso   1.000  Cu
  N1       1.0000 0.09660  0.31330  0.54080  Biso   1.000  N
  N2       1.0000 0.90340  0.31330  0.95920  Biso   1.000  N
  N3       1.0000 0.59660  0.81330  0.54080  Biso   1.000  N
  N4       1.0000 0.40340  0.81330  0.95920  Biso   1.000  N
  N5       1.0000 0.90340  0.68670  0.45920  Biso   1.000  N
  N6       1.0000 0.09660  0.68670  0.04080  Biso   1.000  N
  N7       1.0000 0.40340  0.18670  0.45920  Biso   1.000  N
  N8       1.0000 0.59660  0.18670  0.04080  Biso   1.000  N
  C1       1.0000 0.11050  0.29910  0.38210  Biso   1.000  C
  C2       1.0000 0.88950  0.29910  0.11790  Biso   1.000  C
  C3       1.0000 0.61050  0.79910  0.38210  Biso   1.000  C
  C4       1.0000 0.38950  0.79910  0.11790  Biso   1.000  C
  C5       1.0000 0.88950  0.70090  0.61790  Biso   1.000  C
  C6       1.0000 0.11050  0.70090  0.88210  Biso   1.000  C
  C7       1.0000 0.38950  0.20090  0.61790  Biso   1.000  C
  C8       1.0000 0.61050  0.20090  0.88210  Biso   1.000  C
  H1       1.0000 0.10330  0.34680  0.30860  Biso   1.000  H
  H2       1.0000 0.89670  0.34680  0.19140  Biso   1.000  H
  H3       1.0000 0.60330  0.84680  0.30860  Biso   1.000  H
  H4       1.0000 0.39670  0.84680  0.19140  Biso   1.000  H
  H5       1.0000 0.89670  0.65320  0.69140  Biso   1.000  H
  H6       1.0000 0.10330  0.65320  0.80860  Biso   1.000  H
  H7       1.0000 0.39670  0.15320  0.69140  Biso   1.000  H
  H8       1.0000 0.60330  0.15320  0.80860  Biso   1.000  H
  C9       1.0000 0.13240  0.15910  0.59870  Biso   1.000  C
  C10      1.0000 0.86760  0.15910  0.90130  Biso   1.000  C
  C11      1.0000 0.63240  0.65910  0.59870  Biso   1.000  C
  C12      1.0000 0.36760  0.65910  0.90130  Biso   1.000  C
  C13      1.0000 0.86760  0.84090  0.40130  Biso   1.000  C
  C14      1.0000 0.13240  0.84090  0.09870  Biso   1.000  C
  C15      1.0000 0.36760  0.34090  0.40130  Biso   1.000  C
  C16      1.0000 0.63240  0.34090  0.09870  Biso   1.000  C
  C17      1.0000 0.14670  0.14870  0.43390  Biso   1.000  C
  C18      1.0000 0.85330  0.14870  0.06610  Biso   1.000  C
  C19      1.0000 0.64670  0.64870  0.43390  Biso   1.000  C
  C20      1.0000 0.35330  0.64870  0.06610  Biso   1.000  C
  C21      1.0000 0.85330  0.85130  0.56610  Biso   1.000  C
  C22      1.0000 0.14670  0.85130  0.93390  Biso   1.000  C
  C23      1.0000 0.35330  0.35130  0.56610  Biso   1.000  C
  C24      1.0000 0.64670  0.35130  0.93390  Biso   1.000  C
  H9       1.0000 0.16470  0.09360  0.39800  Biso   1.000  H
  H10      1.0000 0.83530  0.09360  0.10200  Biso   1.000  H
  H11      1.0000 0.66470  0.59360  0.39800  Biso   1.000  H
  H12      1.0000 0.33530  0.59360  0.10200  Biso   1.000  H
  H13      1.0000 0.83530  0.90640  0.60200  Biso   1.000  H
  H14      1.0000 0.16470  0.90640  0.89800  Biso   1.000  H
  H15      1.0000 0.33530  0.40640  0.60200  Biso   1.000  H
  H16      1.0000 0.66470  0.40640  0.89800  Biso   1.000  H
  C25      1.0000 0.10770  0.24300  0.64480  Biso   1.000  C
  C26      1.0000 0.89230  0.24300  0.85520  Biso   1.000  C
  C27      1.0000 0.60770  0.74300  0.64480  Biso   1.000  C
  C28      1.0000 0.39230  0.74300  0.85520  Biso   1.000  C
  C29      1.0000 0.89230  0.75700  0.35520  Biso   1.000  C
  C30      1.0000 0.10770  0.75700  0.14480  Biso   1.000  C
  C31      1.0000 0.39230  0.25700  0.35520  Biso   1.000  C
  C32      1.0000 0.60770  0.25700  0.14480  Biso   1.000  C
  H17      1.0000 0.09800  0.25160  0.75450  Biso   1.000  H
  H18      1.0000 0.90200  0.25160  0.74550  Biso   1.000  H
  H19      1.0000 0.59800  0.75160  0.75450  Biso   1.000  H
  H20      1.0000 0.40200  0.75160  0.74550  Biso   1.000  H
  H21      1.0000 0.90200  0.74840  0.24550  Biso   1.000  H
  H22      1.0000 0.09800  0.74840  0.25450  Biso   1.000  H
  H23      1.0000 0.40200  0.24840  0.24550  Biso   1.000  H
  H24      1.0000 0.59800  0.24840  0.25450  Biso   1.000  H
  C33      1.0000 0.13470  0.21850  0.32240  Biso   1.000  C
  C34      1.0000 0.86530  0.21850  0.17760  Biso   1.000  C
  C35      1.0000 0.63470  0.71850  0.32240  Biso   1.000  C
  C36      1.0000 0.36530  0.71850  0.17760  Biso   1.000  C
  C37      1.0000 0.86530  0.78150  0.67760  Biso   1.000  C
  C38      1.0000 0.13470  0.78150  0.82240  Biso   1.000  C
  C39      1.0000 0.36530  0.28150  0.67760  Biso   1.000  C
  C40      1.0000 0.63470  0.28150  0.82240  Biso   1.000  C
  C41      1.0000 0.14770  0.20830  0.14120  Biso   1.000  C
  C42      1.0000 0.85230  0.20830  0.35880  Biso   1.000  C
  C43      1.0000 0.64770  0.70830  0.14120  Biso   1.000  C
  C44      1.0000 0.35230  0.70830  0.35880  Biso   1.000  C
  C45      1.0000 0.85230  0.79170  0.85880  Biso   1.000  C
  C46      1.0000 0.14770  0.79170  0.64120  Biso   1.000  C
  C47      1.0000 0.35230  0.29170  0.85880  Biso   1.000  C
  C48      1.0000 0.64770  0.29170  0.64120  Biso   1.000  C
  H25      1.0000 0.16400  0.14800  0.12070  Biso   1.000  H
  H26      1.0000 0.83600  0.14800  0.37930  Biso   1.000  H
  H27      1.0000 0.66400  0.64800  0.12070  Biso   1.000  H
  H28      1.0000 0.33600  0.64800  0.37930  Biso   1.000  H
  H29      1.0000 0.83600  0.85200  0.87930  Biso   1.000  H
  H30      1.0000 0.16400  0.85200  0.62070  Biso   1.000  H
  H31      1.0000 0.33600  0.35200  0.87930  Biso   1.000  H
  H32      1.0000 0.66400  0.35200  0.62070  Biso   1.000  H
  H33      1.0000 0.19910  0.24660  0.11880  Biso   1.000  H
  H34      1.0000 0.80090  0.24660  0.38120  Biso   1.000  H
  H35      1.0000 0.69910  0.74660  0.11880  Biso   1.000  H
  H36      1.0000 0.30090  0.74660  0.38120  Biso   1.000  H
  H37      1.0000 0.80090  0.75340  0.88120  Biso   1.000  H
  H38      1.0000 0.19910  0.75340  0.61880  Biso   1.000  H
  H39      1.0000 0.30090  0.25340  0.88120  Biso   1.000  H
  H40      1.0000 0.69910  0.25340  0.61880  Biso   1.000  H
  H41      1.0000 0.08810  0.22390  0.06950  Biso   1.000  H
  H42      1.0000 0.91190  0.22390  0.43050  Biso   1.000  H
  H43      1.0000 0.58810  0.72390  0.06950  Biso   1.000  H
  H44      1.0000 0.41190  0.72390  0.43050  Biso   1.000  H
  H45      1.0000 0.91190  0.77610  0.93050  Biso   1.000  H
  H46      1.0000 0.08810  0.77610  0.56950  Biso   1.000  H
  H47      1.0000 0.41190  0.27610  0.93050  Biso   1.000  H
  H48      1.0000 0.58810  0.27610  0.56950  Biso   1.000  H
  C49      1.0000 0.14490  0.08380  0.72150  Biso   1.000  C
  C50      1.0000 0.85510  0.08380  0.77850  Biso   1.000  C
  C51      1.0000 0.64490  0.58380  0.72150  Biso   1.000  C
  C52      1.0000 0.35510  0.58380  0.77850  Biso   1.000  C
  C53      1.0000 0.85510  0.91620  0.27850  Biso   1.000  C
  C54      1.0000 0.14490  0.91620  0.22150  Biso   1.000  C
  C55      1.0000 0.35510  0.41620  0.27850  Biso   1.000  C
  C56      1.0000 0.64490  0.41620  0.22150  Biso   1.000  C
  H49      1.0000 0.16190  0.03110  0.66700  Biso   1.000  H
  H50      1.0000 0.83810  0.03110  0.83300  Biso   1.000  H
  H51      1.0000 0.66190  0.53110  0.66700  Biso   1.000  H
  H52      1.0000 0.33810  0.53110  0.83300  Biso   1.000  H
  H53      1.0000 0.83810  0.96890  0.33300  Biso   1.000  H
  H54      1.0000 0.16190  0.96890  0.16700  Biso   1.000  H
  H55      1.0000 0.33810  0.46890  0.33300  Biso   1.000  H
  H56      1.0000 0.66190  0.46890  0.16700  Biso   1.000  H
  H57      1.0000 0.08500  0.07440  0.76320  Biso   1.000  H
  H58      1.0000 0.91500  0.07440  0.73680  Biso   1.000  H
  H59      1.0000 0.58500  0.57440  0.76320  Biso   1.000  H
  H60      1.0000 0.41500  0.57440  0.73680  Biso   1.000  H
  H61      1.0000 0.91500  0.92560  0.23680  Biso   1.000  H
  H62      1.0000 0.08500  0.92560  0.26320  Biso   1.000  H
  H63      1.0000 0.41500  0.42560  0.23680  Biso   1.000  H
  H64      1.0000 0.58500  0.42560  0.26320  Biso   1.000  H
  H65      1.0000 0.19570  0.09790  0.81280  Biso   1.000  H
  H66      1.0000 0.80430  0.09790  0.68720  Biso   1.000  H
  H67      1.0000 0.69570  0.59790  0.81280  Biso   1.000  H
  H68      1.0000 0.30430  0.59790  0.68720  Biso   1.000  H
  H69      1.0000 0.80430  0.90210  0.18720  Biso   1.000  H
  H70      1.0000 0.19570  0.90210  0.31280  Biso   1.000  H
  H71      1.0000 0.30430  0.40210  0.18720  Biso   1.000  H
  H72      1.0000 0.69570  0.40210  0.31280  Biso   1.000  H
