data_image0
_cell_length_a       13.082
_cell_length_b       11.151
_cell_length_c       19.505
_cell_angle_alpha    90
_cell_angle_beta     93.725
_cell_angle_gamma    90

_symmetry_space_group_name_H-M    "P 1"
_symmetry_int_tables_number       1

loop_
  _symmetry_equiv_pos_as_xyz
  'x, y, z'

loop_
  _atom_site_label
  _atom_site_occupancy
  _atom_site_fract_x
  _atom_site_fract_y
  _atom_site_fract_z
  _atom_site_thermal_displace_type
  _atom_site_B_iso_or_equiv
  _atom_site_type_symbol
  Cu1      1.0000 0.72491  0.20985  0.49431  Biso   1.000  Cu
  Cu2      1.0000 0.77509  0.70985  0.00569  Biso   1.000  Cu
  Cu3      1.0000 0.27509  0.79015  0.50569  Biso   1.000  Cu
  Cu4      1.0000 0.22491  0.29015  0.99431  Biso   1.000  Cu
  C1       1.0000 0.69874  0.25416  0.70179  Biso   1.000  C
  C2       1.0000 0.80126  0.75416  0.79821  Biso   1.000  C
  C3       1.0000 0.30126  0.74584  0.29821  Biso   1.000  C
  C4       1.0000 0.19874  0.24584  0.20179  Biso   1.000  C
  C5       1.0000 0.63431  0.16870  0.72737  Biso   1.000  C
  C6       1.0000 0.86569  0.66870  0.77263  Biso   1.000  C
  C7       1.0000 0.36569  0.83130  0.27263  Biso   1.000  C
  C8       1.0000 0.13431  0.33130  0.22737  Biso   1.000  C
  H1       1.0000 0.59890  0.11650  0.69710  Biso   1.000  H
  H2       1.0000 0.90110  0.61650  0.80290  Biso   1.000  H
  H3       1.0000 0.40110  0.88350  0.30290  Biso   1.000  H
  H4       1.0000 0.09890  0.38350  0.19710  Biso   1.000  H
  C9       1.0000 0.62168  0.15950  0.79711  Biso   1.000  C
  C10      1.0000 0.87832  0.65950  0.70289  Biso   1.000  C
  C11      1.0000 0.37832  0.84050  0.20289  Biso   1.000  C
  C12      1.0000 0.12168  0.34050  0.29711  Biso   1.000  C
  H5       1.0000 0.57720  0.10240  0.81310  Biso   1.000  H
  H6       1.0000 0.92280  0.60240  0.68690  Biso   1.000  H
  H7       1.0000 0.42280  0.89760  0.18690  Biso   1.000  H
  H8       1.0000 0.07720  0.39760  0.31310  Biso   1.000  H
  C13      1.0000 0.67506  0.23520  0.84349  Biso   1.000  C
  C14      1.0000 0.82494  0.73520  0.65651  Biso   1.000  C
  C15      1.0000 0.32494  0.76480  0.15651  Biso   1.000  C
  C16      1.0000 0.17506  0.26480  0.34349  Biso   1.000  C
  C17      1.0000 0.74098  0.32010  0.81822  Biso   1.000  C
  C18      1.0000 0.75902  0.82010  0.68178  Biso   1.000  C
  C19      1.0000 0.25902  0.67990  0.18178  Biso   1.000  C
  C20      1.0000 0.24098  0.17990  0.31822  Biso   1.000  C
  H9       1.0000 0.77780  0.37080  0.84850  Biso   1.000  H
  H10      1.0000 0.72220  0.87080  0.65150  Biso   1.000  H
  H11      1.0000 0.22220  0.62920  0.15150  Biso   1.000  H
  H12      1.0000 0.27780  0.12920  0.34850  Biso   1.000  H
  C21      1.0000 0.75202  0.32954  0.74842  Biso   1.000  C
  C22      1.0000 0.74798  0.82954  0.75158  Biso   1.000  C
  C23      1.0000 0.24798  0.67046  0.25158  Biso   1.000  C
  C24      1.0000 0.25202  0.17046  0.24842  Biso   1.000  C
  H13      1.0000 0.79580  0.38730  0.73230  Biso   1.000  H
  H14      1.0000 0.70420  0.88730  0.76770  Biso   1.000  H
  H15      1.0000 0.20420  0.61270  0.26770  Biso   1.000  H
  H16      1.0000 0.29580  0.11270  0.23230  Biso   1.000  H
  C25      1.0000 0.71394  0.26575  0.62690  Biso   1.000  C
  C26      1.0000 0.78606  0.76575  0.87310  Biso   1.000  C
  C27      1.0000 0.28606  0.73425  0.37310  Biso   1.000  C
  C28      1.0000 0.21394  0.23425  0.12690  Biso   1.000  C
  C29      1.0000 0.72368  0.13276  0.28845  Biso   1.000  C
  C30      1.0000 0.77632  0.63276  0.21155  Biso   1.000  C
  C31      1.0000 0.27632  0.86724  0.71155  Biso   1.000  C
  C32      1.0000 0.22368  0.36724  0.78845  Biso   1.000  C
  C33      1.0000 0.66706  0.05414  0.24653  Biso   1.000  C
  C34      1.0000 0.83294  0.55414  0.25347  Biso   1.000  C
  C35      1.0000 0.33294  0.94586  0.75347  Biso   1.000  C
  C36      1.0000 0.16706  0.44586  0.74653  Biso   1.000  C
  H17      1.0000 0.62300  0.00020  0.26590  Biso   1.000  H
  H18      1.0000 0.87700  0.50020  0.23410  Biso   1.000  H
  H19      1.0000 0.37700  0.99980  0.73410  Biso   1.000  H
  H20      1.0000 0.12300  0.49980  0.76590  Biso   1.000  H
  C37      1.0000 0.67490  0.05430  0.17607  Biso   1.000  C
  C38      1.0000 0.82510  0.55430  0.32393  Biso   1.000  C
  C39      1.0000 0.32510  0.94570  0.82393  Biso   1.000  C
  C40      1.0000 0.17490  0.44570  0.67607  Biso   1.000  C
  H21      1.0000 0.63640  0.00020  0.14880  Biso   1.000  H
  H22      1.0000 0.86360  0.50020  0.35120  Biso   1.000  H
  H23      1.0000 0.36360  0.99980  0.85120  Biso   1.000  H
  H24      1.0000 0.13640  0.49980  0.64880  Biso   1.000  H
  C41      1.0000 0.73957  0.13430  0.14575  Biso   1.000  C
  C42      1.0000 0.76043  0.63430  0.35425  Biso   1.000  C
  C43      1.0000 0.26043  0.86570  0.85425  Biso   1.000  C
  C44      1.0000 0.23957  0.36570  0.64575  Biso   1.000  C
  C45      1.0000 0.79721  0.21209  0.18774  Biso   1.000  C
  C46      1.0000 0.70279  0.71209  0.31226  Biso   1.000  C
  C47      1.0000 0.20279  0.78791  0.81226  Biso   1.000  C
  C48      1.0000 0.29721  0.28791  0.68774  Biso   1.000  C
  H25      1.0000 0.84180  0.26530  0.16840  Biso   1.000  H
  H26      1.0000 0.65820  0.76530  0.33160  Biso   1.000  H
  H27      1.0000 0.15820  0.73470  0.83160  Biso   1.000  H
  H28      1.0000 0.34180  0.23470  0.66840  Biso   1.000  H
  C49      1.0000 0.78948  0.21189  0.25818  Biso   1.000  C
  C50      1.0000 0.71052  0.71189  0.24182  Biso   1.000  C
  C51      1.0000 0.21052  0.78811  0.74182  Biso   1.000  C
  C52      1.0000 0.28948  0.28811  0.75818  Biso   1.000  C
  H29      1.0000 0.82870  0.26520  0.28550  Biso   1.000  H
  H30      1.0000 0.67130  0.76520  0.21450  Biso   1.000  H
  H31      1.0000 0.17130  0.73480  0.71450  Biso   1.000  H
  H32      1.0000 0.32870  0.23480  0.78550  Biso   1.000  H
  C53      1.0000 0.71565  0.13210  0.36461  Biso   1.000  C
  C54      1.0000 0.78435  0.63210  0.13539  Biso   1.000  C
  C55      1.0000 0.28435  0.86790  0.63539  Biso   1.000  C
  C56      1.0000 0.21565  0.36790  0.86461  Biso   1.000  C
  C57      1.0000 0.88170  0.07802  0.58180  Biso   1.000  C
  C58      1.0000 0.61830  0.57802  0.91820  Biso   1.000  C
  C59      1.0000 0.11830  0.92198  0.41820  Biso   1.000  C
  C60      1.0000 0.38170  0.42198  0.08180  Biso   1.000  C
  H33      1.0000 0.83330  0.04380  0.60870  Biso   1.000  H
  H34      1.0000 0.66670  0.54380  0.89130  Biso   1.000  H
  H35      1.0000 0.16670  0.95620  0.39130  Biso   1.000  H
  H36      1.0000 0.33330  0.45620  0.10870  Biso   1.000  H
  C61      1.0000 0.95172  0.17479  0.50186  Biso   1.000  C
  C62      1.0000 0.54828  0.67479  0.99814  Biso   1.000  C
  C63      1.0000 0.04828  0.82521  0.49814  Biso   1.000  C
  C64      1.0000 0.45172  0.32521  0.00186  Biso   1.000  C
  H37      1.0000 0.96020  0.22020  0.46260  Biso   1.000  H
  H38      1.0000 0.53980  0.72020  0.03740  Biso   1.000  H
  H39      1.0000 0.03980  0.77980  0.53740  Biso   1.000  H
  H40      1.0000 0.46020  0.27980  0.96260  Biso   1.000  H
  C65      1.0000 0.02826  0.12990  0.54402  Biso   1.000  C
  C66      1.0000 0.47174  0.62990  0.95598  Biso   1.000  C
  C67      1.0000 0.97174  0.87010  0.45598  Biso   1.000  C
  C68      1.0000 0.52826  0.37010  0.04402  Biso   1.000  C
  H41      1.0000 0.09820  0.13920  0.53960  Biso   1.000  H
  H42      1.0000 0.40180  0.63920  0.96040  Biso   1.000  H
  H43      1.0000 0.90180  0.86080  0.46040  Biso   1.000  H
  H44      1.0000 0.59820  0.36080  0.03960  Biso   1.000  H
  C69      1.0000 0.03590  0.00440  0.65268  Biso   1.000  C
  C70      1.0000 0.46410  0.50440  0.84732  Biso   1.000  C
  C71      1.0000 0.96410  0.99560  0.34732  Biso   1.000  C
  C72      1.0000 0.53590  0.49560  0.15268  Biso   1.000  C
  H45      1.0000 0.09450  0.96190  0.63670  Biso   1.000  H
  H46      1.0000 0.40550  0.46190  0.86330  Biso   1.000  H
  H47      1.0000 0.90550  0.03810  0.36330  Biso   1.000  H
  H48      1.0000 0.59450  0.53810  0.13670  Biso   1.000  H
  H49      1.0000 0.98980  0.94560  0.67040  Biso   1.000  H
  H50      1.0000 0.51020  0.44560  0.82960  Biso   1.000  H
  H51      1.0000 0.01020  0.05440  0.32960  Biso   1.000  H
  H52      1.0000 0.48980  0.55440  0.17040  Biso   1.000  H
  C73      1.0000 0.07186  0.08990  0.71027  Biso   1.000  C
  C74      1.0000 0.42814  0.58990  0.78973  Biso   1.000  C
  C75      1.0000 0.92814  0.91010  0.28973  Biso   1.000  C
  C76      1.0000 0.57186  0.41010  0.21027  Biso   1.000  C
  H53      1.0000 0.11390  0.04540  0.74430  Biso   1.000  H
  H54      1.0000 0.38610  0.54540  0.75570  Biso   1.000  H
  H55      1.0000 0.88610  0.95460  0.25570  Biso   1.000  H
  H56      1.0000 0.61390  0.45460  0.24430  Biso   1.000  H
  H57      1.0000 0.11480  0.15090  0.69140  Biso   1.000  H
  H58      1.0000 0.38520  0.65090  0.80860  Biso   1.000  H
  H59      1.0000 0.88520  0.84910  0.30860  Biso   1.000  H
  H60      1.0000 0.61480  0.34910  0.19140  Biso   1.000  H
  C77      1.0000 0.98658  0.15138  0.74596  Biso   1.000  C
  C78      1.0000 0.51342  0.65138  0.75404  Biso   1.000  C
  C79      1.0000 0.01342  0.84862  0.25404  Biso   1.000  C
  C80      1.0000 0.48658  0.34862  0.24596  Biso   1.000  C
  H61      1.0000 0.01700  0.20830  0.77890  Biso   1.000  H
  H62      1.0000 0.48300  0.70830  0.72110  Biso   1.000  H
  H63      1.0000 0.98300  0.79170  0.22110  Biso   1.000  H
  H64      1.0000 0.51700  0.29170  0.27890  Biso   1.000  H
  H65      1.0000 0.94490  0.19640  0.71200  Biso   1.000  H
  H66      1.0000 0.55510  0.69640  0.78800  Biso   1.000  H
  H67      1.0000 0.05510  0.80360  0.28800  Biso   1.000  H
  H68      1.0000 0.44490  0.30360  0.21200  Biso   1.000  H
  C81      1.0000 0.91748  0.06770  0.78300  Biso   1.000  C
  C82      1.0000 0.58252  0.56770  0.71700  Biso   1.000  C
  C83      1.0000 0.08252  0.93230  0.21700  Biso   1.000  C
  C84      1.0000 0.41748  0.43230  0.28300  Biso   1.000  C
  H69      1.0000 0.88710  0.01100  0.74990  Biso   1.000  H
  H70      1.0000 0.61290  0.51100  0.75010  Biso   1.000  H
  H71      1.0000 0.11290  0.98900  0.25010  Biso   1.000  H
  H72      1.0000 0.38710  0.48900  0.24990  Biso   1.000  H
  H73      1.0000 0.86220  0.11460  0.80030  Biso   1.000  H
  H74      1.0000 0.63780  0.61460  0.69970  Biso   1.000  H
  H75      1.0000 0.13780  0.88540  0.19970  Biso   1.000  H
  H76      1.0000 0.36220  0.38540  0.30030  Biso   1.000  H
  C85      1.0000 0.96906  0.99784  0.84230  Biso   1.000  C
  C86      1.0000 0.53094  0.49784  0.65770  Biso   1.000  C
  C87      1.0000 0.03094  0.00216  0.15770  Biso   1.000  C
  C88      1.0000 0.46906  0.50216  0.34230  Biso   1.000  C
  H77      1.0000 0.92110  0.93970  0.85850  Biso   1.000  H
  H78      1.0000 0.57890  0.43970  0.64150  Biso   1.000  H
  H79      1.0000 0.07890  0.06030  0.14150  Biso   1.000  H
  H80      1.0000 0.42110  0.56030  0.35850  Biso   1.000  H
  H81      1.0000 0.02690  0.95420  0.82610  Biso   1.000  H
  H82      1.0000 0.47310  0.45420  0.67390  Biso   1.000  H
  H83      1.0000 0.97310  0.04580  0.17390  Biso   1.000  H
  H84      1.0000 0.52690  0.54580  0.32610  Biso   1.000  H
  C89      1.0000 0.09798  0.12327  0.90985  Biso   1.000  C
  C90      1.0000 0.40202  0.62327  0.59015  Biso   1.000  C
  C91      1.0000 0.90202  0.87673  0.09015  Biso   1.000  C
  C92      1.0000 0.59798  0.37673  0.40985  Biso   1.000  C
  H85      1.0000 0.15180  0.10890  0.88200  Biso   1.000  H
  H86      1.0000 0.34820  0.60890  0.61800  Biso   1.000  H
  H87      1.0000 0.84820  0.89110  0.11800  Biso   1.000  H
  H88      1.0000 0.65180  0.39110  0.38200  Biso   1.000  H
  C93      1.0000 0.00978  0.18889  0.99050  Biso   1.000  C
  C94      1.0000 0.49022  0.68889  0.50950  Biso   1.000  C
  C95      1.0000 0.99022  0.81111  0.00950  Biso   1.000  C
  C96      1.0000 0.50978  0.31111  0.49050  Biso   1.000  C
  H89      1.0000 0.99120  0.22890  0.02960  Biso   1.000  H
  H90      1.0000 0.50880  0.72890  0.47040  Biso   1.000  H
  H91      1.0000 0.00880  0.77110  0.97040  Biso   1.000  H
  H92      1.0000 0.49120  0.27110  0.52960  Biso   1.000  H
  C97      1.0000 0.94779  0.11730  0.95058  Biso   1.000  C
  C98      1.0000 0.55221  0.61730  0.54942  Biso   1.000  C
  C99      1.0000 0.05221  0.88270  0.04942  Biso   1.000  C
  C100     1.0000 0.44779  0.38270  0.45058  Biso   1.000  C
  H93      1.0000 0.87940  0.09990  0.95660  Biso   1.000  H
  H94      1.0000 0.62060  0.59990  0.54340  Biso   1.000  H
  H95      1.0000 0.12060  0.90010  0.04340  Biso   1.000  H
  H96      1.0000 0.37940  0.40010  0.45660  Biso   1.000  H
  N1       1.0000 0.85934  0.14264  0.52616  Biso   1.000  N
  N2       1.0000 0.64066  0.64264  0.97384  Biso   1.000  N
  N3       1.0000 0.14066  0.85736  0.47384  Biso   1.000  N
  N4       1.0000 0.35934  0.35736  0.02616  Biso   1.000  N
  N5       1.0000 0.98308  0.06823  0.59449  Biso   1.000  N
  N6       1.0000 0.51692  0.56823  0.90551  Biso   1.000  N
  N7       1.0000 0.01692  0.93177  0.40551  Biso   1.000  N
  N8       1.0000 0.48308  0.43177  0.09449  Biso   1.000  N
  N9       1.0000 0.00482  0.07559  0.89960  Biso   1.000  N
  N10      1.0000 0.49518  0.57559  0.60040  Biso   1.000  N
  N11      1.0000 0.99518  0.92441  0.10040  Biso   1.000  N
  N12      1.0000 0.50482  0.42441  0.39960  Biso   1.000  N
  N13      1.0000 0.10431  0.19343  0.96448  Biso   1.000  N
  N14      1.0000 0.39569  0.69343  0.53552  Biso   1.000  N
  N15      1.0000 0.89569  0.80657  0.03552  Biso   1.000  N
  N16      1.0000 0.60431  0.30657  0.46448  Biso   1.000  N
  N17      1.0000 0.66170  0.22740  0.91329  Biso   1.000  N
  N18      1.0000 0.83830  0.72740  0.58671  Biso   1.000  N
  N19      1.0000 0.33830  0.77260  0.08671  Biso   1.000  N
  N20      1.0000 0.16170  0.27260  0.41329  Biso   1.000  N
  N21      1.0000 0.74840  0.13420  0.07524  Biso   1.000  N
  N22      1.0000 0.75160  0.63420  0.42476  Biso   1.000  N
  N23      1.0000 0.25160  0.86580  0.92476  Biso   1.000  N
  N24      1.0000 0.24840  0.36580  0.57524  Biso   1.000  N
  O1       1.0000 0.67388  0.18549  0.58642  Biso   1.000  O
  O2       1.0000 0.82612  0.68549  0.91358  Biso   1.000  O
  O3       1.0000 0.32612  0.81451  0.41358  Biso   1.000  O
  O4       1.0000 0.17388  0.31451  0.08642  Biso   1.000  O
  O5       1.0000 0.76375  0.35143  0.60610  Biso   1.000  O
  O6       1.0000 0.73625  0.85143  0.89390  Biso   1.000  O
  O7       1.0000 0.23625  0.64857  0.39390  Biso   1.000  O
  O8       1.0000 0.26375  0.14857  0.10610  Biso   1.000  O
  O9       1.0000 0.69005  0.87155  0.48742  Biso   1.000  O
  O10      1.0000 0.80995  0.37155  0.01258  Biso   1.000  O
  O11      1.0000 0.30995  0.12845  0.51258  Biso   1.000  O
  O12      1.0000 0.19005  0.62845  0.98742  Biso   1.000  O
  O13      1.0000 0.76716  0.21141  0.39921  Biso   1.000  O
  O14      1.0000 0.73284  0.71141  0.10079  Biso   1.000  O
  O15      1.0000 0.23284  0.78859  0.60079  Biso   1.000  O
  O16      1.0000 0.26716  0.28859  0.89921  Biso   1.000  O
  O17      1.0000 0.55952  0.96375  0.58310  Biso   1.000  O
  O18      1.0000 0.94048  0.46375  0.91690  Biso   1.000  O
  O19      1.0000 0.44048  0.03625  0.41690  Biso   1.000  O
  O20      1.0000 0.05952  0.53625  0.08310  Biso   1.000  O
  O21      1.0000 0.65989  0.05708  0.39138  Biso   1.000  O
  O22      1.0000 0.84011  0.55708  0.10862  Biso   1.000  O
  O23      1.0000 0.34011  0.94292  0.60862  Biso   1.000  O
  O24      1.0000 0.15989  0.44292  0.89138  Biso   1.000  O
  O25      1.0000 0.89440  0.47840  0.52971  Biso   1.000  O
  O26      1.0000 0.60560  0.97840  0.97029  Biso   1.000  O
  O27      1.0000 0.10560  0.52160  0.47029  Biso   1.000  O
  O28      1.0000 0.39440  0.02160  0.02971  Biso   1.000  O
  H97      1.0000 0.70400  0.26100  0.93700  Biso   1.000  H
  H98      1.0000 0.79600  0.76100  0.56300  Biso   1.000  H
  H99      1.0000 0.29600  0.73900  0.06300  Biso   1.000  H
  H100     1.0000 0.20400  0.23900  0.43700  Biso   1.000  H
  H101     1.0000 0.63800  0.16100  0.92700  Biso   1.000  H
  H102     1.0000 0.86200  0.66100  0.57300  Biso   1.000  H
  H103     1.0000 0.36200  0.83900  0.07300  Biso   1.000  H
  H104     1.0000 0.13800  0.33900  0.42700  Biso   1.000  H
  H105     1.0000 0.69800  0.09100  0.05100  Biso   1.000  H
  H106     1.0000 0.80200  0.59100  0.44900  Biso   1.000  H
  H107     1.0000 0.30200  0.90900  0.94900  Biso   1.000  H
  H108     1.0000 0.19800  0.40900  0.55100  Biso   1.000  H
  H109     1.0000 0.77400  0.19900  0.05800  Biso   1.000  H
  H110     1.0000 0.72600  0.69900  0.44200  Biso   1.000  H
  H111     1.0000 0.22600  0.80100  0.94200  Biso   1.000  H
  H112     1.0000 0.27400  0.30100  0.55800  Biso   1.000  H
  H113     1.0000 0.64500  0.89600  0.51450  Biso   1.000  H
  H114     1.0000 0.85500  0.39600  0.98550  Biso   1.000  H
  H115     1.0000 0.35500  0.10400  0.48550  Biso   1.000  H
  H116     1.0000 0.14500  0.60400  0.01450  Biso   1.000  H
  H117     1.0000 0.69100  0.92200  0.45300  Biso   1.000  H
  H118     1.0000 0.80900  0.42200  0.04700  Biso   1.000  H
  H119     1.0000 0.30900  0.07800  0.54700  Biso   1.000  H
  H120     1.0000 0.19100  0.57800  0.95300  Biso   1.000  H
  H121     1.0000 0.49600  0.96200  0.59300  Biso   1.000  H
  H122     1.0000 0.00400  0.46200  0.90700  Biso   1.000  H
  H123     1.0000 0.50400  0.03800  0.40700  Biso   1.000  H
  H124     1.0000 0.99600  0.53800  0.09300  Biso   1.000  H
  H125     1.0000 0.57700  0.04500  0.58400  Biso   1.000  H
  H126     1.0000 0.92300  0.54500  0.91600  Biso   1.000  H
  H127     1.0000 0.42300  0.95500  0.41600  Biso   1.000  H
  H128     1.0000 0.07700  0.45500  0.08400  Biso   1.000  H
  H129     1.0000 0.84500  0.43600  0.54700  Biso   1.000  H
  H130     1.0000 0.65500  0.93600  0.95300  Biso   1.000  H
  H131     1.0000 0.15500  0.56400  0.45300  Biso   1.000  H
  H132     1.0000 0.34500  0.06400  0.04700  Biso   1.000  H
  H133     1.0000 0.95200  0.44900  0.55800  Biso   1.000  H
  H134     1.0000 0.54800  0.94900  0.94200  Biso   1.000  H
  H135     1.0000 0.04800  0.55100  0.44200  Biso   1.000  H
  H136     1.0000 0.45200  0.05100  0.05800  Biso   1.000  H
