data_image0
_cell_length_a       18.75
_cell_length_b       10.3283
_cell_length_c       22.386
_cell_angle_alpha    90
_cell_angle_beta     97.388
_cell_angle_gamma    90

_symmetry_space_group_name_H-M    "P 1"
_symmetry_int_tables_number       1

loop_
  _symmetry_equiv_pos_as_xyz
  'x, y, z'

loop_
  _atom_site_label
  _atom_site_occupancy
  _atom_site_fract_x
  _atom_site_fract_y
  _atom_site_fract_z
  _atom_site_thermal_displace_type
  _atom_site_B_iso_or_equiv
  _atom_site_type_symbol
  Cu1      1.0000 0.89629  0.53392  0.32168  Biso   1.000  Cu
  Cu2      1.0000 0.60371  0.03392  0.17832  Biso   1.000  Cu
  Cu3      1.0000 0.10371  0.46608  0.67832  Biso   1.000  Cu
  Cu4      1.0000 0.39629  0.96608  0.82168  Biso   1.000  Cu
  Cu5      1.0000 0.23105  0.54180  0.38590  Biso   1.000  Cu
  Cu6      1.0000 0.26895  0.04180  0.11410  Biso   1.000  Cu
  Cu7      1.0000 0.76895  0.45820  0.61410  Biso   1.000  Cu
  Cu8      1.0000 0.73105  0.95820  0.88590  Biso   1.000  Cu
  O1       1.0000 0.22880  0.56670  0.26210  Biso   1.000  O
  O2       1.0000 0.27120  0.06670  0.23790  Biso   1.000  O
  O3       1.0000 0.77120  0.43330  0.73790  Biso   1.000  O
  O4       1.0000 0.72880  0.93330  0.76210  Biso   1.000  O
  O5       1.0000 0.15410  0.60960  0.32839  Biso   1.000  O
  O6       1.0000 0.34590  0.10960  0.17161  Biso   1.000  O
  O7       1.0000 0.84590  0.39040  0.67161  Biso   1.000  O
  O8       1.0000 0.65410  0.89040  0.82839  Biso   1.000  O
  O9       1.0000 0.01980  0.47590  0.24821  Biso   1.000  O
  O10      1.0000 0.48020  0.97590  0.25179  Biso   1.000  O
  O11      1.0000 0.98020  0.52410  0.75179  Biso   1.000  O
  O12      1.0000 0.51980  0.02410  0.74821  Biso   1.000  O
  O13      1.0000 0.96931  0.63980  0.29165  Biso   1.000  O
  O14      1.0000 0.53069  0.13980  0.20835  Biso   1.000  O
  O15      1.0000 0.03069  0.36020  0.70835  Biso   1.000  O
  O16      1.0000 0.46931  0.86020  0.79165  Biso   1.000  O
  O17      1.0000 0.01040  0.94220  0.10895  Biso   1.000  O
  O18      1.0000 0.48960  0.44220  0.39105  Biso   1.000  O
  O19      1.0000 0.98960  0.05780  0.89105  Biso   1.000  O
  O20      1.0000 0.51040  0.55780  0.60895  Biso   1.000  O
  O21      1.0000 0.68762  0.96420  0.14578  Biso   1.000  O
  O22      1.0000 0.81238  0.46420  0.35422  Biso   1.000  O
  O23      1.0000 0.31238  0.03580  0.85422  Biso   1.000  O
  O24      1.0000 0.18762  0.53580  0.64578  Biso   1.000  O
  O25      1.0000 0.69090  0.16330  0.11050  Biso   1.000  O
  O26      1.0000 0.80910  0.66330  0.38950  Biso   1.000  O
  O27      1.0000 0.30910  0.83670  0.88950  Biso   1.000  O
  O28      1.0000 0.19090  0.33670  0.61050  Biso   1.000  O
  O29      1.0000 0.70750  0.95000  0.00405  Biso   1.000  O
  O30      1.0000 0.79250  0.45000  0.49595  Biso   1.000  O
  O31      1.0000 0.29250  0.05000  0.99595  Biso   1.000  O
  O32      1.0000 0.20750  0.55000  0.50405  Biso   1.000  O
  O33      1.0000 0.79780  0.00570  0.95616  Biso   1.000  O
  O34      1.0000 0.70220  0.50570  0.54384  Biso   1.000  O
  O35      1.0000 0.20220  0.99430  0.04384  Biso   1.000  O
  O36      1.0000 0.29780  0.49430  0.45616  Biso   1.000  O
  N1       1.0000 0.38970  0.81410  0.37940  Biso   1.000  N
  N2       1.0000 0.11030  0.31410  0.12060  Biso   1.000  N
  N3       1.0000 0.61030  0.18590  0.62060  Biso   1.000  N
  N4       1.0000 0.88970  0.68590  0.87940  Biso   1.000  N
  N5       1.0000 0.29030  0.70040  0.38150  Biso   1.000  N
  N6       1.0000 0.20970  0.20040  0.11850  Biso   1.000  N
  N7       1.0000 0.70970  0.29960  0.61850  Biso   1.000  N
  N8       1.0000 0.79030  0.79960  0.88150  Biso   1.000  N
  N9       1.0000 0.30230  0.86200  0.12580  Biso   1.000  N
  N10      1.0000 0.19770  0.36200  0.37420  Biso   1.000  N
  N11      1.0000 0.69770  0.13800  0.87420  Biso   1.000  N
  N12      1.0000 0.80230  0.63800  0.62580  Biso   1.000  N
  N13      1.0000 0.35250  0.68780  0.16970  Biso   1.000  N
  N14      1.0000 0.14750  0.18780  0.33030  Biso   1.000  N
  N15      1.0000 0.64750  0.31220  0.83030  Biso   1.000  N
  N16      1.0000 0.85250  0.81220  0.66970  Biso   1.000  N
  N17      1.0000 0.73820  0.56150  0.17550  Biso   1.000  N
  N18      1.0000 0.76180  0.06150  0.32450  Biso   1.000  N
  N19      1.0000 0.26180  0.43850  0.82450  Biso   1.000  N
  N20      1.0000 0.23820  0.93850  0.67550  Biso   1.000  N
  N21      1.0000 0.83020  0.57520  0.24770  Biso   1.000  N
  N22      1.0000 0.66980  0.07520  0.25230  Biso   1.000  N
  N23      1.0000 0.16980  0.42480  0.75230  Biso   1.000  N
  N24      1.0000 0.33020  0.92480  0.74770  Biso   1.000  N
  N25      1.0000 0.95930  0.45970  0.38920  Biso   1.000  N
  N26      1.0000 0.54070  0.95970  0.11080  Biso   1.000  N
  N27      1.0000 0.04070  0.54030  0.61080  Biso   1.000  N
  N28      1.0000 0.45930  0.04030  0.88920  Biso   1.000  N
  N29      1.0000 0.99490  0.35440  0.47210  Biso   1.000  N
  N30      1.0000 0.50510  0.85440  0.02790  Biso   1.000  N
  N31      1.0000 0.00510  0.64560  0.52790  Biso   1.000  N
  N32      1.0000 0.49490  0.14560  0.97210  Biso   1.000  N
  C1       1.0000 0.17400  0.61650  0.27580  Biso   1.000  C
  C2       1.0000 0.32600  0.11650  0.22420  Biso   1.000  C
  C3       1.0000 0.82600  0.38350  0.72420  Biso   1.000  C
  C4       1.0000 0.67400  0.88350  0.77580  Biso   1.000  C
  C5       1.0000 0.12590  0.69440  0.23110  Biso   1.000  C
  C6       1.0000 0.37410  0.19440  0.26890  Biso   1.000  C
  C7       1.0000 0.87410  0.30560  0.76890  Biso   1.000  C
  C8       1.0000 0.62590  0.80560  0.73110  Biso   1.000  C
  C9       1.0000 0.15830  0.78170  0.19630  Biso   1.000  C
  C10      1.0000 0.34170  0.28170  0.30370  Biso   1.000  C
  C11      1.0000 0.84170  0.21830  0.80370  Biso   1.000  C
  C12      1.0000 0.65830  0.71830  0.69630  Biso   1.000  C
  H1       1.0000 0.20830  0.78530  0.20030  Biso   1.000  H
  H2       1.0000 0.29170  0.28530  0.29970  Biso   1.000  H
  H3       1.0000 0.79170  0.21470  0.79970  Biso   1.000  H
  H4       1.0000 0.70830  0.71470  0.70030  Biso   1.000  H
  C13      1.0000 0.11940  0.86340  0.15610  Biso   1.000  C
  C14      1.0000 0.38060  0.36340  0.34390  Biso   1.000  C
  C15      1.0000 0.88060  0.13660  0.84390  Biso   1.000  C
  C16      1.0000 0.61940  0.63660  0.65610  Biso   1.000  C
  H5       1.0000 0.14250  0.92090  0.13300  Biso   1.000  H
  H6       1.0000 0.35750  0.42090  0.36700  Biso   1.000  H
  H7       1.0000 0.85750  0.07910  0.86700  Biso   1.000  H
  H8       1.0000 0.64250  0.57910  0.63300  Biso   1.000  H
  C17      1.0000 0.04540  0.85850  0.15070  Biso   1.000  C
  C18      1.0000 0.45460  0.35850  0.34930  Biso   1.000  C
  C19      1.0000 0.95460  0.14150  0.84930  Biso   1.000  C
  C20      1.0000 0.54540  0.64150  0.65070  Biso   1.000  C
  C21      1.0000 0.01210  0.77190  0.18390  Biso   1.000  C
  C22      1.0000 0.48790  0.27190  0.31610  Biso   1.000  C
  C23      1.0000 0.98790  0.22810  0.81610  Biso   1.000  C
  C24      1.0000 0.51210  0.72810  0.68390  Biso   1.000  C
  H9       1.0000 0.96220  0.76790  0.17930  Biso   1.000  H
  H10      1.0000 0.53780  0.26790  0.32070  Biso   1.000  H
  H11      1.0000 0.03780  0.23210  0.82070  Biso   1.000  H
  H12      1.0000 0.46220  0.73210  0.67930  Biso   1.000  H
  C25      1.0000 0.05160  0.69000  0.22440  Biso   1.000  C
  C26      1.0000 0.44840  0.19000  0.27560  Biso   1.000  C
  C27      1.0000 0.94840  0.31000  0.77560  Biso   1.000  C
  C28      1.0000 0.55160  0.81000  0.72440  Biso   1.000  C
  C29      1.0000 0.01110  0.59210  0.25750  Biso   1.000  C
  C30      1.0000 0.48890  0.09210  0.24250  Biso   1.000  C
  C31      1.0000 0.98890  0.40790  0.74250  Biso   1.000  C
  C32      1.0000 0.51110  0.90790  0.75750  Biso   1.000  C
  C33      1.0000 0.93950  0.97390  0.11250  Biso   1.000  C
  C34      1.0000 0.56050  0.47390  0.38750  Biso   1.000  C
  C35      1.0000 0.06050  0.02610  0.88750  Biso   1.000  C
  C36      1.0000 0.43950  0.52610  0.61250  Biso   1.000  C
  C37      1.0000 0.89210  0.96760  0.06090  Biso   1.000  C
  C38      1.0000 0.60790  0.46760  0.43910  Biso   1.000  C
  C39      1.0000 0.10790  0.03240  0.93910  Biso   1.000  C
  C40      1.0000 0.39210  0.53240  0.56090  Biso   1.000  C
  H13      1.0000 0.90870  0.94420  0.02500  Biso   1.000  H
  H14      1.0000 0.59130  0.44420  0.47500  Biso   1.000  H
  H15      1.0000 0.09130  0.05580  0.97500  Biso   1.000  H
  H16      1.0000 0.40870  0.55580  0.52500  Biso   1.000  H
  C41      1.0000 0.81980  0.99530  0.06100  Biso   1.000  C
  C42      1.0000 0.68020  0.49530  0.43900  Biso   1.000  C
  C43      1.0000 0.18020  0.00470  0.93900  Biso   1.000  C
  C44      1.0000 0.31980  0.50470  0.56100  Biso   1.000  C
  C45      1.0000 0.79600  0.03120  0.11500  Biso   1.000  C
  C46      1.0000 0.70400  0.53120  0.38500  Biso   1.000  C
  C47      1.0000 0.20400  0.96880  0.88500  Biso   1.000  C
  C48      1.0000 0.29600  0.46880  0.61500  Biso   1.000  C
  C49      1.0000 0.84520  0.04280  0.16540  Biso   1.000  C
  C50      1.0000 0.65480  0.54280  0.33460  Biso   1.000  C
  C51      1.0000 0.15480  0.95720  0.83460  Biso   1.000  C
  C52      1.0000 0.34520  0.45720  0.66540  Biso   1.000  C
  H17      1.0000 0.82960  0.07070  0.20100  Biso   1.000  H
  H18      1.0000 0.67040  0.57070  0.29900  Biso   1.000  H
  H19      1.0000 0.17040  0.92930  0.79900  Biso   1.000  H
  H20      1.0000 0.32960  0.42930  0.70100  Biso   1.000  H
  C53      1.0000 0.91700  0.01450  0.16520  Biso   1.000  C
  C54      1.0000 0.58300  0.51450  0.33480  Biso   1.000  C
  C55      1.0000 0.08300  0.98550  0.83480  Biso   1.000  C
  C56      1.0000 0.41700  0.48550  0.66520  Biso   1.000  C
  H21      1.0000 0.94950  0.02290  0.20010  Biso   1.000  H
  H22      1.0000 0.55050  0.52290  0.29990  Biso   1.000  H
  H23      1.0000 0.05050  0.97710  0.79990  Biso   1.000  H
  H24      1.0000 0.44950  0.47710  0.70010  Biso   1.000  H
  C57      1.0000 0.71790  0.05900  0.12110  Biso   1.000  C
  C58      1.0000 0.78210  0.55900  0.37890  Biso   1.000  C
  C59      1.0000 0.28210  0.94100  0.87890  Biso   1.000  C
  C60      1.0000 0.21790  0.44100  0.62110  Biso   1.000  C
  C61      1.0000 0.93870  0.39420  0.43480  Biso   1.000  C
  C62      1.0000 0.56130  0.89420  0.06520  Biso   1.000  C
  C63      1.0000 0.06130  0.60580  0.56520  Biso   1.000  C
  C64      1.0000 0.43870  0.10580  0.93480  Biso   1.000  C
  H25      1.0000 0.89110  0.37840  0.44000  Biso   1.000  H
  H26      1.0000 0.60890  0.87840  0.06000  Biso   1.000  H
  H27      1.0000 0.10890  0.62160  0.56000  Biso   1.000  H
  H28      1.0000 0.39110  0.12160  0.94000  Biso   1.000  H
  C65      1.0000 0.03380  0.46080  0.39900  Biso   1.000  C
  C66      1.0000 0.46620  0.96080  0.10100  Biso   1.000  C
  C67      1.0000 0.96620  0.53920  0.60100  Biso   1.000  C
  C68      1.0000 0.53380  0.03920  0.89900  Biso   1.000  C
  H29      1.0000 0.06370  0.50010  0.37430  Biso   1.000  H
  H30      1.0000 0.43630  0.00010  0.12570  Biso   1.000  H
  H31      1.0000 0.93630  0.49990  0.62570  Biso   1.000  H
  H32      1.0000 0.56370  0.99990  0.87430  Biso   1.000  H
  C69      1.0000 0.05540  0.39680  0.44930  Biso   1.000  C
  C70      1.0000 0.44460  0.89680  0.05070  Biso   1.000  C
  C71      1.0000 0.94460  0.60320  0.55070  Biso   1.000  C
  C72      1.0000 0.55540  0.10320  0.94930  Biso   1.000  C
  H33      1.0000 0.10280  0.38300  0.46610  Biso   1.000  H
  H34      1.0000 0.39720  0.88300  0.03390  Biso   1.000  H
  H35      1.0000 0.89720  0.61700  0.53390  Biso   1.000  H
  H36      1.0000 0.60280  0.11700  0.96610  Biso   1.000  H
  C73      1.0000 0.99270  0.27400  0.52620  Biso   1.000  C
  C74      1.0000 0.50730  0.77400  0.97380  Biso   1.000  C
  C75      1.0000 0.00730  0.72600  0.47380  Biso   1.000  C
  C76      1.0000 0.49270  0.22600  0.02620  Biso   1.000  C
  H37      1.0000 0.94860  0.29170  0.54310  Biso   1.000  H
  H38      1.0000 0.55140  0.79170  0.95690  Biso   1.000  H
  H39      1.0000 0.05140  0.70830  0.45690  Biso   1.000  H
  H40      1.0000 0.44860  0.20830  0.04310  Biso   1.000  H
  H41      1.0000 0.03280  0.29700  0.55620  Biso   1.000  H
  H42      1.0000 0.46720  0.79700  0.94380  Biso   1.000  H
  H43      1.0000 0.96720  0.70300  0.44380  Biso   1.000  H
  H44      1.0000 0.53280  0.20300  0.05620  Biso   1.000  H
  C77      1.0000 0.99650  0.13210  0.51240  Biso   1.000  C
  C78      1.0000 0.50350  0.63210  0.98760  Biso   1.000  C
  C79      1.0000 0.00350  0.86790  0.48760  Biso   1.000  C
  C80      1.0000 0.49650  0.36790  0.01240  Biso   1.000  C
  C81      1.0000 0.05910  0.07600  0.49870  Biso   1.000  C
  C82      1.0000 0.44090  0.57600  0.00130  Biso   1.000  C
  C83      1.0000 0.94090  0.92400  0.50130  Biso   1.000  C
  C84      1.0000 0.55910  0.42400  0.99870  Biso   1.000  C
  H45      1.0000 0.09970  0.12700  0.49730  Biso   1.000  H
  H46      1.0000 0.40030  0.62700  0.00270  Biso   1.000  H
  H47      1.0000 0.90030  0.87300  0.50270  Biso   1.000  H
  H48      1.0000 0.59970  0.37300  0.99730  Biso   1.000  H
  C85      1.0000 0.93780  0.05470  0.51300  Biso   1.000  C
  C86      1.0000 0.56220  0.55470  0.98700  Biso   1.000  C
  C87      1.0000 0.06220  0.94530  0.48700  Biso   1.000  C
  C88      1.0000 0.43780  0.44530  0.01300  Biso   1.000  C
  H49      1.0000 0.89480  0.09070  0.52150  Biso   1.000  H
  H50      1.0000 0.60520  0.59070  0.97850  Biso   1.000  H
  H51      1.0000 0.10520  0.90930  0.47850  Biso   1.000  H
  H52      1.0000 0.39480  0.40930  0.02150  Biso   1.000  H
  C89      1.0000 0.77010  0.98180  0.00390  Biso   1.000  C
  C90      1.0000 0.72990  0.48180  0.49610  Biso   1.000  C
  C91      1.0000 0.22990  0.01820  0.99610  Biso   1.000  C
  C92      1.0000 0.27010  0.51820  0.50390  Biso   1.000  C
  C93      1.0000 0.51420  0.87030  0.49990  Biso   1.000  C
  C94      1.0000 0.98580  0.37030  0.00010  Biso   1.000  C
  C95      1.0000 0.48580  0.12970  0.50010  Biso   1.000  C
  C96      1.0000 0.01420  0.62970  0.99990  Biso   1.000  C
  H53      1.0000 0.52340  0.78180  0.50080  Biso   1.000  H
  H54      1.0000 0.97660  0.28180  0.99920  Biso   1.000  H
  H55      1.0000 0.47660  0.21820  0.49920  Biso   1.000  H
  H56      1.0000 0.02340  0.71820  0.00080  Biso   1.000  H
  C97      1.0000 0.48170  0.92940  0.44740  Biso   1.000  C
  C98      1.0000 0.01830  0.42940  0.05260  Biso   1.000  C
  C99      1.0000 0.51830  0.07060  0.55260  Biso   1.000  C
  C100     1.0000 0.98170  0.57060  0.94740  Biso   1.000  C
  C101     1.0000 0.46770  0.05520  0.44950  Biso   1.000  C
  C102     1.0000 0.03230  0.55520  0.05050  Biso   1.000  C
  C103     1.0000 0.53230  0.94480  0.55050  Biso   1.000  C
  C104     1.0000 0.96770  0.44480  0.94950  Biso   1.000  C
  H57      1.0000 0.44440  0.09480  0.41510  Biso   1.000  H
  H58      1.0000 0.05560  0.59480  0.08490  Biso   1.000  H
  H59      1.0000 0.55560  0.90520  0.58490  Biso   1.000  H
  H60      1.0000 0.94440  0.40520  0.91510  Biso   1.000  H
  C105     1.0000 0.46510  0.84810  0.38900  Biso   1.000  C
  C106     1.0000 0.03490  0.34810  0.11100  Biso   1.000  C
  C107     1.0000 0.53490  0.15190  0.61100  Biso   1.000  C
  C108     1.0000 0.96510  0.65190  0.88900  Biso   1.000  C
  H61      1.0000 0.49400  0.76990  0.39230  Biso   1.000  H
  H62      1.0000 0.00600  0.26990  0.10770  Biso   1.000  H
  H63      1.0000 0.50600  0.23010  0.60770  Biso   1.000  H
  H64      1.0000 0.99400  0.73010  0.89230  Biso   1.000  H
  H65      1.0000 0.47730  0.89750  0.35490  Biso   1.000  H
  H66      1.0000 0.02270  0.39750  0.14510  Biso   1.000  H
  H67      1.0000 0.52270  0.10250  0.64510  Biso   1.000  H
  H68      1.0000 0.97730  0.60250  0.85490  Biso   1.000  H
  C109     1.0000 0.36160  0.70290  0.39530  Biso   1.000  C
  C110     1.0000 0.13840  0.20290  0.10470  Biso   1.000  C
  C111     1.0000 0.63840  0.29710  0.60470  Biso   1.000  C
  C112     1.0000 0.86160  0.79710  0.89530  Biso   1.000  C
  H69      1.0000 0.38850  0.63510  0.41390  Biso   1.000  H
  H70      1.0000 0.11150  0.13510  0.08610  Biso   1.000  H
  H71      1.0000 0.61150  0.36490  0.58610  Biso   1.000  H
  H72      1.0000 0.88850  0.86490  0.91390  Biso   1.000  H
  C113     1.0000 0.33430  0.88280  0.35130  Biso   1.000  C
  C114     1.0000 0.16570  0.38280  0.14870  Biso   1.000  C
  C115     1.0000 0.66570  0.11720  0.64870  Biso   1.000  C
  C116     1.0000 0.83430  0.61720  0.85130  Biso   1.000  C
  H73      1.0000 0.33680  0.96390  0.33360  Biso   1.000  H
  H74      1.0000 0.16320  0.46390  0.16640  Biso   1.000  H
  H75      1.0000 0.66320  0.03610  0.66640  Biso   1.000  H
  H76      1.0000 0.83680  0.53610  0.83360  Biso   1.000  H
  C117     1.0000 0.27580  0.81310  0.35370  Biso   1.000  C
  C118     1.0000 0.22420  0.31310  0.14630  Biso   1.000  C
  C119     1.0000 0.72420  0.18690  0.64630  Biso   1.000  C
  C120     1.0000 0.77580  0.68690  0.85370  Biso   1.000  C
  H77      1.0000 0.22980  0.83950  0.33790  Biso   1.000  H
  H78      1.0000 0.27020  0.33950  0.16210  Biso   1.000  H
  H79      1.0000 0.77020  0.16050  0.66210  Biso   1.000  H
  H80      1.0000 0.72980  0.66050  0.83790  Biso   1.000  H
  C121     1.0000 0.34420  0.81530  0.17300  Biso   1.000  C
  C122     1.0000 0.15580  0.31530  0.32700  Biso   1.000  C
  C123     1.0000 0.65580  0.18470  0.82700  Biso   1.000  C
  C124     1.0000 0.84420  0.68470  0.67300  Biso   1.000  C
  H81      1.0000 0.36540  0.86580  0.20480  Biso   1.000  H
  H82      1.0000 0.13460  0.36580  0.29520  Biso   1.000  H
  H83      1.0000 0.63460  0.13420  0.79520  Biso   1.000  H
  H84      1.0000 0.86540  0.63420  0.70480  Biso   1.000  H
  C125     1.0000 0.28380  0.75620  0.09050  Biso   1.000  C
  C126     1.0000 0.21620  0.25620  0.40950  Biso   1.000  C
  C127     1.0000 0.71620  0.24380  0.90950  Biso   1.000  C
  C128     1.0000 0.78380  0.74380  0.59050  Biso   1.000  C
  H85      1.0000 0.25410  0.75770  0.05380  Biso   1.000  H
  H86      1.0000 0.24590  0.25770  0.44620  Biso   1.000  H
  H87      1.0000 0.74590  0.24230  0.94620  Biso   1.000  H
  H88      1.0000 0.75410  0.74230  0.55380  Biso   1.000  H
  C129     1.0000 0.31460  0.65040  0.11640  Biso   1.000  C
  C130     1.0000 0.18540  0.15040  0.38360  Biso   1.000  C
  C131     1.0000 0.68540  0.34960  0.88360  Biso   1.000  C
  C132     1.0000 0.81460  0.84960  0.61640  Biso   1.000  C
  H89      1.0000 0.31090  0.56660  0.10110  Biso   1.000  H
  H90      1.0000 0.18910  0.06660  0.39890  Biso   1.000  H
  H91      1.0000 0.68910  0.43340  0.89890  Biso   1.000  H
  H92      1.0000 0.81090  0.93340  0.60110  Biso   1.000  H
  C133     1.0000 0.39750  0.60630  0.21290  Biso   1.000  C
  C134     1.0000 0.10250  0.10630  0.28710  Biso   1.000  C
  C135     1.0000 0.60250  0.39370  0.78710  Biso   1.000  C
  C136     1.0000 0.89750  0.89370  0.71290  Biso   1.000  C
  H93      1.0000 0.40390  0.64900  0.25180  Biso   1.000  H
  H94      1.0000 0.09610  0.14900  0.24820  Biso   1.000  H
  H95      1.0000 0.59610  0.35100  0.74820  Biso   1.000  H
  H96      1.0000 0.90390  0.85100  0.75180  Biso   1.000  H
  H97      1.0000 0.37290  0.52490  0.21740  Biso   1.000  H
  H98      1.0000 0.12710  0.02490  0.28260  Biso   1.000  H
  H99      1.0000 0.62710  0.47510  0.78260  Biso   1.000  H
  H100     1.0000 0.87290  0.97510  0.71740  Biso   1.000  H
  C137     1.0000 0.46980  0.57910  0.19400  Biso   1.000  C
  C138     1.0000 0.03020  0.07910  0.30600  Biso   1.000  C
  C139     1.0000 0.53020  0.42090  0.80600  Biso   1.000  C
  C140     1.0000 0.96980  0.92090  0.69400  Biso   1.000  C
  C141     1.0000 0.51800  0.67870  0.19280  Biso   1.000  C
  C142     1.0000 0.98200  0.17870  0.30720  Biso   1.000  C
  C143     1.0000 0.48200  0.32130  0.80720  Biso   1.000  C
  C144     1.0000 0.01800  0.82130  0.69280  Biso   1.000  C
  H101     1.0000 0.50550  0.76150  0.20410  Biso   1.000  H
  H102     1.0000 0.99450  0.26150  0.29590  Biso   1.000  H
  H103     1.0000 0.49450  0.23850  0.79590  Biso   1.000  H
  H104     1.0000 0.00550  0.73850  0.70410  Biso   1.000  H
  C145     1.0000 0.58460  0.65740  0.17490  Biso   1.000  C
  C146     1.0000 0.91540  0.15740  0.32510  Biso   1.000  C
  C147     1.0000 0.41540  0.34260  0.82510  Biso   1.000  C
  C148     1.0000 0.08460  0.84260  0.67490  Biso   1.000  C
  H105     1.0000 0.61610  0.72630  0.17290  Biso   1.000  H
  H106     1.0000 0.88390  0.22630  0.32710  Biso   1.000  H
  H107     1.0000 0.38390  0.27370  0.82710  Biso   1.000  H
  H108     1.0000 0.11610  0.77370  0.67290  Biso   1.000  H
  C149     1.0000 0.60490  0.53260  0.15990  Biso   1.000  C
  C150     1.0000 0.89510  0.03260  0.34010  Biso   1.000  C
  C151     1.0000 0.39510  0.46740  0.84010  Biso   1.000  C
  C152     1.0000 0.10490  0.96740  0.65990  Biso   1.000  C
  C153     1.0000 0.55630  0.43450  0.16280  Biso   1.000  C
  C154     1.0000 0.94370  0.93450  0.33720  Biso   1.000  C
  C155     1.0000 0.44370  0.56550  0.83720  Biso   1.000  C
  C156     1.0000 0.05630  0.06550  0.66280  Biso   1.000  C
  H109     1.0000 0.56880  0.35040  0.15330  Biso   1.000  H
  H110     1.0000 0.93120  0.85040  0.34670  Biso   1.000  H
  H111     1.0000 0.43120  0.64960  0.84670  Biso   1.000  H
  H112     1.0000 0.06880  0.14960  0.65330  Biso   1.000  H
  C157     1.0000 0.48960  0.45820  0.17930  Biso   1.000  C
  C158     1.0000 0.01040  0.95820  0.32070  Biso   1.000  C
  C159     1.0000 0.51040  0.54180  0.82070  Biso   1.000  C
  C160     1.0000 0.98960  0.04180  0.67930  Biso   1.000  C
  H113     1.0000 0.45740  0.39010  0.18050  Biso   1.000  H
  H114     1.0000 0.04260  0.89010  0.31950  Biso   1.000  H
  H115     1.0000 0.54260  0.60990  0.81950  Biso   1.000  H
  H116     1.0000 0.95740  0.10990  0.68050  Biso   1.000  H
  C161     1.0000 0.67630  0.50740  0.13790  Biso   1.000  C
  C162     1.0000 0.82370  0.00740  0.36210  Biso   1.000  C
  C163     1.0000 0.32370  0.49260  0.86210  Biso   1.000  C
  C164     1.0000 0.17630  0.99260  0.63790  Biso   1.000  C
  H117     1.0000 0.67480  0.54290  0.09760  Biso   1.000  H
  H118     1.0000 0.82520  0.04290  0.40240  Biso   1.000  H
  H119     1.0000 0.32520  0.45710  0.90240  Biso   1.000  H
  H120     1.0000 0.17480  0.95710  0.59760  Biso   1.000  H
  H121     1.0000 0.68300  0.41460  0.13510  Biso   1.000  H
  H122     1.0000 0.81700  0.91460  0.36490  Biso   1.000  H
  H123     1.0000 0.31700  0.58540  0.86490  Biso   1.000  H
  H124     1.0000 0.18300  0.08540  0.63510  Biso   1.000  H
  C165     1.0000 0.77780  0.50040  0.22120  Biso   1.000  C
  C166     1.0000 0.72220  0.00040  0.27880  Biso   1.000  C
  C167     1.0000 0.22220  0.49960  0.77880  Biso   1.000  C
  C168     1.0000 0.27780  0.99960  0.72120  Biso   1.000  C
  H125     1.0000 0.76950  0.41590  0.23290  Biso   1.000  H
  H126     1.0000 0.73050  0.91590  0.26710  Biso   1.000  H
  H127     1.0000 0.23050  0.58410  0.76710  Biso   1.000  H
  H128     1.0000 0.26950  0.08410  0.73290  Biso   1.000  H
  C169     1.0000 0.76650  0.68220  0.17340  Biso   1.000  C
  C170     1.0000 0.73350  0.18220  0.32660  Biso   1.000  C
  C171     1.0000 0.23350  0.31780  0.82660  Biso   1.000  C
  C172     1.0000 0.26650  0.81780  0.67340  Biso   1.000  C
  H129     1.0000 0.75000  0.74730  0.14640  Biso   1.000  H
  H130     1.0000 0.75000  0.24730  0.35360  Biso   1.000  H
  H131     1.0000 0.25000  0.25270  0.85360  Biso   1.000  H
  H132     1.0000 0.25000  0.75270  0.64640  Biso   1.000  H
  C173     1.0000 0.82310  0.69120  0.21770  Biso   1.000  C
  C174     1.0000 0.67690  0.19120  0.28230  Biso   1.000  C
  C175     1.0000 0.17690  0.30880  0.78230  Biso   1.000  C
  C176     1.0000 0.32310  0.80880  0.71770  Biso   1.000  C
  H133     1.0000 0.85210  0.76370  0.22630  Biso   1.000  H
  H134     1.0000 0.64790  0.26370  0.27370  Biso   1.000  H
  H135     1.0000 0.14790  0.23630  0.77370  Biso   1.000  H
  H136     1.0000 0.35210  0.73630  0.72630  Biso   1.000  H
  O37      1.0000 0.70290  0.85020  0.43490  Biso   1.000  O
  O38      1.0000 0.79710  0.35020  0.06510  Biso   1.000  O
  O39      1.0000 0.29710  0.14980  0.56510  Biso   1.000  O
  O40      1.0000 0.20290  0.64980  0.93490  Biso   1.000  O
  H137     1.0000 0.66790  0.84010  0.40720  Biso   1.000  H
  H138     1.0000 0.83210  0.34010  0.09280  Biso   1.000  H
  H139     1.0000 0.33210  0.15990  0.59280  Biso   1.000  H
  H140     1.0000 0.16790  0.65990  0.90720  Biso   1.000  H
  H141     1.0000 0.69810  0.92390  0.45080  Biso   1.000  H
  H142     1.0000 0.80190  0.42390  0.04920  Biso   1.000  H
  H143     1.0000 0.30190  0.07610  0.54920  Biso   1.000  H
  H144     1.0000 0.19810  0.57610  0.95080  Biso   1.000  H
  O41      1.0000 0.27530  0.95800  0.51360  Biso   1.000  O
  O42      1.0000 0.22470  0.45800  0.98640  Biso   1.000  O
  O43      1.0000 0.72470  0.04200  0.48640  Biso   1.000  O
  O44      1.0000 0.77530  0.54200  0.01360  Biso   1.000  O
  H145     1.0000 0.25090  0.88980  0.50570  Biso   1.000  H
  H146     1.0000 0.24910  0.38980  0.99430  Biso   1.000  H
  H147     1.0000 0.74910  0.11020  0.49430  Biso   1.000  H
  H148     1.0000 0.75090  0.61020  0.00570  Biso   1.000  H
  H149     1.0000 0.31300  0.93780  0.53700  Biso   1.000  H
  H150     1.0000 0.18700  0.43780  0.96300  Biso   1.000  H
  H151     1.0000 0.68700  0.06220  0.46300  Biso   1.000  H
  H152     1.0000 0.81300  0.56220  0.03700  Biso   1.000  H
