data_image0
_cell_length_a       20.572
_cell_length_b       20.572
_cell_length_c       13.725
_cell_angle_alpha    90
_cell_angle_beta     90
_cell_angle_gamma    90

_symmetry_space_group_name_H-M    "P 1"
_symmetry_int_tables_number       1

loop_
  _symmetry_equiv_pos_as_xyz
  'x, y, z'

loop_
  _atom_site_label
  _atom_site_occupancy
  _atom_site_fract_x
  _atom_site_fract_y
  _atom_site_fract_z
  _atom_site_thermal_displace_type
  _atom_site_B_iso_or_equiv
  _atom_site_type_symbol
  C1       1.0000 0.41980  0.16530  0.98730  Biso   1.000  C
  C2       1.0000 0.58020  0.83470  0.98730  Biso   1.000  C
  C3       1.0000 0.83470  0.91980  0.23730  Biso   1.000  C
  C4       1.0000 0.16530  0.08020  0.23730  Biso   1.000  C
  C5       1.0000 0.91980  0.66530  0.48730  Biso   1.000  C
  C6       1.0000 0.08020  0.33470  0.48730  Biso   1.000  C
  C7       1.0000 0.33470  0.41980  0.73730  Biso   1.000  C
  C8       1.0000 0.66530  0.58020  0.73730  Biso   1.000  C
  C9       1.0000 0.46800  0.14460  0.06420  Biso   1.000  C
  C10      1.0000 0.53200  0.85540  0.06420  Biso   1.000  C
  C11      1.0000 0.85540  0.96800  0.31420  Biso   1.000  C
  C12      1.0000 0.14460  0.03200  0.31420  Biso   1.000  C
  C13      1.0000 0.96800  0.64460  0.56420  Biso   1.000  C
  C14      1.0000 0.03200  0.35540  0.56420  Biso   1.000  C
  C15      1.0000 0.35540  0.46800  0.81420  Biso   1.000  C
  C16      1.0000 0.64460  0.53200  0.81420  Biso   1.000  C
  C17      1.0000 0.53280  0.16690  0.05230  Biso   1.000  C
  C18      1.0000 0.46720  0.83310  0.05230  Biso   1.000  C
  C19      1.0000 0.83310  0.03280  0.30230  Biso   1.000  C
  C20      1.0000 0.16690  0.96720  0.30230  Biso   1.000  C
  C21      1.0000 0.03280  0.66690  0.55230  Biso   1.000  C
  C22      1.0000 0.96720  0.33310  0.55230  Biso   1.000  C
  C23      1.0000 0.33310  0.53280  0.80230  Biso   1.000  C
  C24      1.0000 0.66690  0.46720  0.80230  Biso   1.000  C
  C25      1.0000 0.57710  0.14440  0.12760  Biso   1.000  C
  C26      1.0000 0.42290  0.85560  0.12760  Biso   1.000  C
  C27      1.0000 0.85560  0.07710  0.37760  Biso   1.000  C
  C28      1.0000 0.14440  0.92290  0.37760  Biso   1.000  C
  C29      1.0000 0.07710  0.64440  0.62760  Biso   1.000  C
  C30      1.0000 0.92290  0.35560  0.62760  Biso   1.000  C
  C31      1.0000 0.35560  0.57710  0.87760  Biso   1.000  C
  C32      1.0000 0.64440  0.42290  0.87760  Biso   1.000  C
  H1       1.0000 0.61300  0.15500  0.12500  Biso   1.000  H
  H2       1.0000 0.38700  0.84500  0.12500  Biso   1.000  H
  H3       1.0000 0.84500  0.11300  0.37500  Biso   1.000  H
  H4       1.0000 0.15500  0.88700  0.37500  Biso   1.000  H
  H5       1.0000 0.11300  0.65500  0.62500  Biso   1.000  H
  H6       1.0000 0.88700  0.34500  0.62500  Biso   1.000  H
  H7       1.0000 0.34500  0.61300  0.87500  Biso   1.000  H
  H8       1.0000 0.65500  0.38700  0.87500  Biso   1.000  H
  C33      1.0000 0.55830  0.10550  0.20170  Biso   1.000  C
  C34      1.0000 0.44170  0.89450  0.20170  Biso   1.000  C
  C35      1.0000 0.89450  0.05830  0.45170  Biso   1.000  C
  C36      1.0000 0.10550  0.94170  0.45170  Biso   1.000  C
  C37      1.0000 0.05830  0.60550  0.70170  Biso   1.000  C
  C38      1.0000 0.94170  0.39450  0.70170  Biso   1.000  C
  C39      1.0000 0.39450  0.55830  0.95170  Biso   1.000  C
  C40      1.0000 0.60550  0.44170  0.95170  Biso   1.000  C
  C41      1.0000 0.49590  0.08750  0.21160  Biso   1.000  C
  C42      1.0000 0.50410  0.91250  0.21160  Biso   1.000  C
  C43      1.0000 0.91250  0.99590  0.46160  Biso   1.000  C
  C44      1.0000 0.08750  0.00410  0.46160  Biso   1.000  C
  C45      1.0000 0.99590  0.58750  0.71160  Biso   1.000  C
  C46      1.0000 0.00410  0.41250  0.71160  Biso   1.000  C
  C47      1.0000 0.41250  0.49590  0.96160  Biso   1.000  C
  C48      1.0000 0.58750  0.50410  0.96160  Biso   1.000  C
  H9       1.0000 0.48300  0.06300  0.26520  Biso   1.000  H
  H10      1.0000 0.51700  0.93700  0.26520  Biso   1.000  H
  H11      1.0000 0.93700  0.98300  0.51520  Biso   1.000  H
  H12      1.0000 0.06300  0.01700  0.51520  Biso   1.000  H
  H13      1.0000 0.98300  0.56300  0.76520  Biso   1.000  H
  H14      1.0000 0.01700  0.43700  0.76520  Biso   1.000  H
  H15      1.0000 0.43700  0.48300  0.01520  Biso   1.000  H
  H16      1.0000 0.56300  0.51700  0.01520  Biso   1.000  H
  C49      1.0000 0.44960  0.10600  0.13960  Biso   1.000  C
  C50      1.0000 0.55040  0.89400  0.13960  Biso   1.000  C
  C51      1.0000 0.89400  0.94960  0.38960  Biso   1.000  C
  C52      1.0000 0.10600  0.05040  0.38960  Biso   1.000  C
  C53      1.0000 0.94960  0.60600  0.63960  Biso   1.000  C
  C54      1.0000 0.05040  0.39400  0.63960  Biso   1.000  C
  C55      1.0000 0.39400  0.44960  0.88960  Biso   1.000  C
  C56      1.0000 0.60600  0.55040  0.88960  Biso   1.000  C
  C57      1.0000 0.55300  0.20760  0.96970  Biso   1.000  C
  C58      1.0000 0.44700  0.79240  0.96970  Biso   1.000  C
  C59      1.0000 0.79240  0.05300  0.21970  Biso   1.000  C
  C60      1.0000 0.20760  0.94700  0.21970  Biso   1.000  C
  C61      1.0000 0.05300  0.70760  0.46970  Biso   1.000  C
  C62      1.0000 0.94700  0.29240  0.46970  Biso   1.000  C
  C63      1.0000 0.29240  0.55300  0.71970  Biso   1.000  C
  C64      1.0000 0.70760  0.44700  0.71970  Biso   1.000  C
  H17      1.0000 0.59860  0.21680  0.97480  Biso   1.000  H
  H18      1.0000 0.40140  0.78320  0.97480  Biso   1.000  H
  H19      1.0000 0.78320  0.09860  0.22480  Biso   1.000  H
  H20      1.0000 0.21680  0.90140  0.22480  Biso   1.000  H
  H21      1.0000 0.09860  0.71680  0.47480  Biso   1.000  H
  H22      1.0000 0.90140  0.28320  0.47480  Biso   1.000  H
  H23      1.0000 0.28320  0.59860  0.72480  Biso   1.000  H
  H24      1.0000 0.71680  0.40140  0.72480  Biso   1.000  H
  H25      1.0000 0.52890  0.24750  0.97040  Biso   1.000  H
  H26      1.0000 0.47110  0.75250  0.97040  Biso   1.000  H
  H27      1.0000 0.75250  0.02890  0.22040  Biso   1.000  H
  H28      1.0000 0.24750  0.97110  0.22040  Biso   1.000  H
  H29      1.0000 0.02890  0.74750  0.47040  Biso   1.000  H
  H30      1.0000 0.97110  0.25250  0.47040  Biso   1.000  H
  H31      1.0000 0.25250  0.52890  0.72040  Biso   1.000  H
  H32      1.0000 0.74750  0.47110  0.72040  Biso   1.000  H
  H33      1.0000 0.54460  0.18490  0.90980  Biso   1.000  H
  H34      1.0000 0.45540  0.81510  0.90980  Biso   1.000  H
  H35      1.0000 0.81510  0.04460  0.15980  Biso   1.000  H
  H36      1.0000 0.18490  0.95540  0.15980  Biso   1.000  H
  H37      1.0000 0.04460  0.68490  0.40980  Biso   1.000  H
  H38      1.0000 0.95540  0.31510  0.40980  Biso   1.000  H
  H39      1.0000 0.31510  0.54460  0.65980  Biso   1.000  H
  H40      1.0000 0.68490  0.45540  0.65980  Biso   1.000  H
  C65      1.0000 0.61110  0.08240  0.27700  Biso   1.000  C
  C66      1.0000 0.38890  0.91760  0.27700  Biso   1.000  C
  C67      1.0000 0.91760  0.11110  0.52700  Biso   1.000  C
  C68      1.0000 0.08240  0.88890  0.52700  Biso   1.000  C
  C69      1.0000 0.11110  0.58240  0.77700  Biso   1.000  C
  C70      1.0000 0.88890  0.41760  0.77700  Biso   1.000  C
  C71      1.0000 0.41760  0.61110  0.02700  Biso   1.000  C
  C72      1.0000 0.58240  0.38890  0.02700  Biso   1.000  C
  H41      1.0000 0.59100  0.05570  0.32580  Biso   1.000  H
  H42      1.0000 0.40900  0.94430  0.32580  Biso   1.000  H
  H43      1.0000 0.94430  0.09100  0.57580  Biso   1.000  H
  H44      1.0000 0.05570  0.90900  0.57580  Biso   1.000  H
  H45      1.0000 0.09100  0.55570  0.82580  Biso   1.000  H
  H46      1.0000 0.90900  0.44430  0.82580  Biso   1.000  H
  H47      1.0000 0.44430  0.59100  0.07580  Biso   1.000  H
  H48      1.0000 0.55570  0.40900  0.07580  Biso   1.000  H
  H49      1.0000 0.63060  0.11960  0.30740  Biso   1.000  H
  H50      1.0000 0.36940  0.88040  0.30740  Biso   1.000  H
  H51      1.0000 0.88040  0.13060  0.55740  Biso   1.000  H
  H52      1.0000 0.11960  0.86940  0.55740  Biso   1.000  H
  H53      1.0000 0.13060  0.61960  0.80740  Biso   1.000  H
  H54      1.0000 0.86940  0.38040  0.80740  Biso   1.000  H
  H55      1.0000 0.38040  0.63060  0.05740  Biso   1.000  H
  H56      1.0000 0.61960  0.36940  0.05740  Biso   1.000  H
  H57      1.0000 0.64390  0.05770  0.24370  Biso   1.000  H
  H58      1.0000 0.35610  0.94230  0.24370  Biso   1.000  H
  H59      1.0000 0.94230  0.14390  0.49370  Biso   1.000  H
  H60      1.0000 0.05770  0.85610  0.49370  Biso   1.000  H
  H61      1.0000 0.14390  0.55770  0.74370  Biso   1.000  H
  H62      1.0000 0.85610  0.44230  0.74370  Biso   1.000  H
  H63      1.0000 0.44230  0.64390  0.99370  Biso   1.000  H
  H64      1.0000 0.55770  0.35610  0.99370  Biso   1.000  H
  C73      1.0000 0.38130  0.08430  0.15220  Biso   1.000  C
  C74      1.0000 0.61870  0.91570  0.15220  Biso   1.000  C
  C75      1.0000 0.91570  0.88130  0.40220  Biso   1.000  C
  C76      1.0000 0.08430  0.11870  0.40220  Biso   1.000  C
  C77      1.0000 0.88130  0.58430  0.65220  Biso   1.000  C
  C78      1.0000 0.11870  0.41570  0.65220  Biso   1.000  C
  C79      1.0000 0.41570  0.38130  0.90220  Biso   1.000  C
  C80      1.0000 0.58430  0.61870  0.90220  Biso   1.000  C
  H65      1.0000 0.37820  0.05730  0.20910  Biso   1.000  H
  H66      1.0000 0.62180  0.94270  0.20910  Biso   1.000  H
  H67      1.0000 0.94270  0.87820  0.45910  Biso   1.000  H
  H68      1.0000 0.05730  0.12180  0.45910  Biso   1.000  H
  H69      1.0000 0.87820  0.55730  0.70910  Biso   1.000  H
  H70      1.0000 0.12180  0.44270  0.70910  Biso   1.000  H
  H71      1.0000 0.44270  0.37820  0.95910  Biso   1.000  H
  H72      1.0000 0.55730  0.62180  0.95910  Biso   1.000  H
  H73      1.0000 0.36800  0.05990  0.09600  Biso   1.000  H
  H74      1.0000 0.63200  0.94010  0.09600  Biso   1.000  H
  H75      1.0000 0.94010  0.86800  0.34600  Biso   1.000  H
  H76      1.0000 0.05990  0.13200  0.34600  Biso   1.000  H
  H77      1.0000 0.86800  0.55990  0.59600  Biso   1.000  H
  H78      1.0000 0.13200  0.44010  0.59600  Biso   1.000  H
  H79      1.0000 0.44010  0.36800  0.84600  Biso   1.000  H
  H80      1.0000 0.55990  0.63200  0.84600  Biso   1.000  H
  H81      1.0000 0.35360  0.12150  0.15970  Biso   1.000  H
  H82      1.0000 0.64640  0.87850  0.15970  Biso   1.000  H
  H83      1.0000 0.87850  0.85360  0.40970  Biso   1.000  H
  H84      1.0000 0.12150  0.14640  0.40970  Biso   1.000  H
  H85      1.0000 0.85360  0.62150  0.65970  Biso   1.000  H
  H86      1.0000 0.14640  0.37850  0.65970  Biso   1.000  H
  H87      1.0000 0.37850  0.35360  0.90970  Biso   1.000  H
  H88      1.0000 0.62150  0.64640  0.90970  Biso   1.000  H
  C81      1.0000 0.44370  0.21710  0.66690  Biso   1.000  C
  C82      1.0000 0.55630  0.78290  0.66690  Biso   1.000  C
  C83      1.0000 0.78290  0.94370  0.91690  Biso   1.000  C
  C84      1.0000 0.21710  0.05630  0.91690  Biso   1.000  C
  C85      1.0000 0.94370  0.71710  0.16690  Biso   1.000  C
  C86      1.0000 0.05630  0.28290  0.16690  Biso   1.000  C
  C87      1.0000 0.28290  0.44370  0.41690  Biso   1.000  C
  C88      1.0000 0.71710  0.55630  0.41690  Biso   1.000  C
  C89      1.0000 0.50080  0.22640  0.59750  Biso   1.000  C
  C90      1.0000 0.49920  0.77360  0.59750  Biso   1.000  C
  C91      1.0000 0.77360  0.00080  0.84750  Biso   1.000  C
  C92      1.0000 0.22640  0.99920  0.84750  Biso   1.000  C
  C93      1.0000 0.00080  0.72640  0.09750  Biso   1.000  C
  C94      1.0000 0.99920  0.27360  0.09750  Biso   1.000  C
  C95      1.0000 0.27360  0.50080  0.34750  Biso   1.000  C
  C96      1.0000 0.72640  0.49920  0.34750  Biso   1.000  C
  C97      1.0000 0.50140  0.19520  0.50800  Biso   1.000  C
  C98      1.0000 0.49860  0.80480  0.50800  Biso   1.000  C
  C99      1.0000 0.80480  0.00140  0.75800  Biso   1.000  C
  C100     1.0000 0.19520  0.99860  0.75800  Biso   1.000  C
  C101     1.0000 0.00140  0.69520  0.00800  Biso   1.000  C
  C102     1.0000 0.99860  0.30480  0.00800  Biso   1.000  C
  C103     1.0000 0.30480  0.50140  0.25800  Biso   1.000  C
  C104     1.0000 0.69520  0.49860  0.25800  Biso   1.000  C
  C105     1.0000 0.55360  0.20460  0.44730  Biso   1.000  C
  C106     1.0000 0.44640  0.79540  0.44730  Biso   1.000  C
  C107     1.0000 0.79540  0.05360  0.69730  Biso   1.000  C
  C108     1.0000 0.20460  0.94640  0.69730  Biso   1.000  C
  C109     1.0000 0.05360  0.70460  0.94730  Biso   1.000  C
  C110     1.0000 0.94640  0.29540  0.94730  Biso   1.000  C
  C111     1.0000 0.29540  0.55360  0.19730  Biso   1.000  C
  C112     1.0000 0.70460  0.44640  0.19730  Biso   1.000  C
  H89      1.0000 0.55310  0.18680  0.38900  Biso   1.000  H
  H90      1.0000 0.44690  0.81320  0.38900  Biso   1.000  H
  H91      1.0000 0.81320  0.05310  0.63900  Biso   1.000  H
  H92      1.0000 0.18680  0.94690  0.63900  Biso   1.000  H
  H93      1.0000 0.05310  0.68680  0.88900  Biso   1.000  H
  H94      1.0000 0.94690  0.31320  0.88900  Biso   1.000  H
  H95      1.0000 0.31320  0.55310  0.13900  Biso   1.000  H
  H96      1.0000 0.68680  0.44690  0.13900  Biso   1.000  H
  C113     1.0000 0.60680  0.24100  0.47480  Biso   1.000  C
  C114     1.0000 0.39320  0.75900  0.47480  Biso   1.000  C
  C115     1.0000 0.75900  0.10680  0.72480  Biso   1.000  C
  C116     1.0000 0.24100  0.89320  0.72480  Biso   1.000  C
  C117     1.0000 0.10680  0.74100  0.97480  Biso   1.000  C
  C118     1.0000 0.89320  0.25900  0.97480  Biso   1.000  C
  C119     1.0000 0.25900  0.60680  0.22480  Biso   1.000  C
  C120     1.0000 0.74100  0.39320  0.22480  Biso   1.000  C
  C121     1.0000 0.60630  0.27010  0.56400  Biso   1.000  C
  C122     1.0000 0.39370  0.72990  0.56400  Biso   1.000  C
  C123     1.0000 0.72990  0.10630  0.81400  Biso   1.000  C
  C124     1.0000 0.27010  0.89370  0.81400  Biso   1.000  C
  C125     1.0000 0.10630  0.77010  0.06400  Biso   1.000  C
  C126     1.0000 0.89370  0.22990  0.06400  Biso   1.000  C
  C127     1.0000 0.22990  0.60630  0.31400  Biso   1.000  C
  C128     1.0000 0.77010  0.39370  0.31400  Biso   1.000  C
  H97      1.0000 0.63900  0.29200  0.58100  Biso   1.000  H
  H98      1.0000 0.36100  0.70800  0.58100  Biso   1.000  H
  H99      1.0000 0.70800  0.13900  0.83100  Biso   1.000  H
  H100     1.0000 0.29200  0.86100  0.83100  Biso   1.000  H
  H101     1.0000 0.13900  0.79200  0.08100  Biso   1.000  H
  H102     1.0000 0.86100  0.20800  0.08100  Biso   1.000  H
  H103     1.0000 0.20800  0.63900  0.33100  Biso   1.000  H
  H104     1.0000 0.79200  0.36100  0.33100  Biso   1.000  H
  C129     1.0000 0.55400  0.26440  0.62720  Biso   1.000  C
  C130     1.0000 0.44600  0.73560  0.62720  Biso   1.000  C
  C131     1.0000 0.73560  0.05400  0.87720  Biso   1.000  C
  C132     1.0000 0.26440  0.94600  0.87720  Biso   1.000  C
  C133     1.0000 0.05400  0.76440  0.12720  Biso   1.000  C
  C134     1.0000 0.94600  0.23560  0.12720  Biso   1.000  C
  C135     1.0000 0.23560  0.55400  0.37720  Biso   1.000  C
  C136     1.0000 0.76440  0.44600  0.37720  Biso   1.000  C
  C137     1.0000 0.44670  0.15070  0.47840  Biso   1.000  C
  C138     1.0000 0.55330  0.84930  0.47840  Biso   1.000  C
  C139     1.0000 0.84930  0.94670  0.72840  Biso   1.000  C
  C140     1.0000 0.15070  0.05330  0.72840  Biso   1.000  C
  C141     1.0000 0.94670  0.65070  0.97840  Biso   1.000  C
  C142     1.0000 0.05330  0.34930  0.97840  Biso   1.000  C
  C143     1.0000 0.34930  0.44670  0.22840  Biso   1.000  C
  C144     1.0000 0.65070  0.55330  0.22840  Biso   1.000  C
  H105     1.0000 0.41440  0.14990  0.52880  Biso   1.000  H
  H106     1.0000 0.58560  0.85010  0.52880  Biso   1.000  H
  H107     1.0000 0.85010  0.91440  0.77880  Biso   1.000  H
  H108     1.0000 0.14990  0.08560  0.77880  Biso   1.000  H
  H109     1.0000 0.91440  0.64990  0.02880  Biso   1.000  H
  H110     1.0000 0.08560  0.35010  0.02880  Biso   1.000  H
  H111     1.0000 0.35010  0.41440  0.27880  Biso   1.000  H
  H112     1.0000 0.64990  0.58560  0.27880  Biso   1.000  H
  H113     1.0000 0.46340  0.10760  0.46840  Biso   1.000  H
  H114     1.0000 0.53660  0.89240  0.46840  Biso   1.000  H
  H115     1.0000 0.89240  0.96340  0.71840  Biso   1.000  H
  H116     1.0000 0.10760  0.03660  0.71840  Biso   1.000  H
  H117     1.0000 0.96340  0.60760  0.96840  Biso   1.000  H
  H118     1.0000 0.03660  0.39240  0.96840  Biso   1.000  H
  H119     1.0000 0.39240  0.46340  0.21840  Biso   1.000  H
  H120     1.0000 0.60760  0.53660  0.21840  Biso   1.000  H
  H121     1.0000 0.42760  0.16630  0.41900  Biso   1.000  H
  H122     1.0000 0.57240  0.83370  0.41900  Biso   1.000  H
  H123     1.0000 0.83370  0.92760  0.66900  Biso   1.000  H
  H124     1.0000 0.16630  0.07240  0.66900  Biso   1.000  H
  H125     1.0000 0.92760  0.66630  0.91900  Biso   1.000  H
  H126     1.0000 0.07240  0.33370  0.91900  Biso   1.000  H
  H127     1.0000 0.33370  0.42760  0.16900  Biso   1.000  H
  H128     1.0000 0.66630  0.57240  0.16900  Biso   1.000  H
  C145     1.0000 0.66530  0.25070  0.40540  Biso   1.000  C
  C146     1.0000 0.33470  0.74930  0.40540  Biso   1.000  C
  C147     1.0000 0.74930  0.16530  0.65540  Biso   1.000  C
  C148     1.0000 0.25070  0.83470  0.65540  Biso   1.000  C
  C149     1.0000 0.16530  0.75070  0.90540  Biso   1.000  C
  C150     1.0000 0.83470  0.24930  0.90540  Biso   1.000  C
  C151     1.0000 0.24930  0.66530  0.15540  Biso   1.000  C
  C152     1.0000 0.75070  0.33470  0.15540  Biso   1.000  C
  H129     1.0000 0.65800  0.22710  0.34610  Biso   1.000  H
  H130     1.0000 0.34200  0.77290  0.34610  Biso   1.000  H
  H131     1.0000 0.77290  0.15800  0.59610  Biso   1.000  H
  H132     1.0000 0.22710  0.84200  0.59610  Biso   1.000  H
  H133     1.0000 0.15800  0.72710  0.84610  Biso   1.000  H
  H134     1.0000 0.84200  0.27290  0.84610  Biso   1.000  H
  H135     1.0000 0.27290  0.65800  0.09610  Biso   1.000  H
  H136     1.0000 0.72710  0.34200  0.09610  Biso   1.000  H
  H137     1.0000 0.70420  0.23500  0.43620  Biso   1.000  H
  H138     1.0000 0.29580  0.76500  0.43620  Biso   1.000  H
  H139     1.0000 0.76500  0.20420  0.68620  Biso   1.000  H
  H140     1.0000 0.23500  0.79580  0.68620  Biso   1.000  H
  H141     1.0000 0.20420  0.73500  0.93620  Biso   1.000  H
  H142     1.0000 0.79580  0.26500  0.93620  Biso   1.000  H
  H143     1.0000 0.26500  0.70420  0.18620  Biso   1.000  H
  H144     1.0000 0.73500  0.29580  0.18620  Biso   1.000  H
  H145     1.0000 0.67020  0.29610  0.39100  Biso   1.000  H
  H146     1.0000 0.32980  0.70390  0.39100  Biso   1.000  H
  H147     1.0000 0.70390  0.17020  0.64100  Biso   1.000  H
  H148     1.0000 0.29610  0.82980  0.64100  Biso   1.000  H
  H149     1.0000 0.17020  0.79610  0.89100  Biso   1.000  H
  H150     1.0000 0.82980  0.20390  0.89100  Biso   1.000  H
  H151     1.0000 0.20390  0.67020  0.14100  Biso   1.000  H
  H152     1.0000 0.79610  0.32980  0.14100  Biso   1.000  H
  C153     1.0000 0.55390  0.29660  0.72430  Biso   1.000  C
  C154     1.0000 0.44610  0.70340  0.72430  Biso   1.000  C
  C155     1.0000 0.70340  0.05390  0.97430  Biso   1.000  C
  C156     1.0000 0.29660  0.94610  0.97430  Biso   1.000  C
  C157     1.0000 0.05390  0.79660  0.22430  Biso   1.000  C
  C158     1.0000 0.94610  0.20340  0.22430  Biso   1.000  C
  C159     1.0000 0.20340  0.55390  0.47430  Biso   1.000  C
  C160     1.0000 0.79660  0.44610  0.47430  Biso   1.000  C
  H153     1.0000 0.51380  0.28730  0.75720  Biso   1.000  H
  H154     1.0000 0.48620  0.71270  0.75720  Biso   1.000  H
  H155     1.0000 0.71270  0.01380  0.00720  Biso   1.000  H
  H156     1.0000 0.28730  0.98620  0.00720  Biso   1.000  H
  H157     1.0000 0.01380  0.78730  0.25720  Biso   1.000  H
  H158     1.0000 0.98620  0.21270  0.25720  Biso   1.000  H
  H159     1.0000 0.21270  0.51380  0.50720  Biso   1.000  H
  H160     1.0000 0.78730  0.48620  0.50720  Biso   1.000  H
  H161     1.0000 0.55820  0.34280  0.71580  Biso   1.000  H
  H162     1.0000 0.44180  0.65720  0.71580  Biso   1.000  H
  H163     1.0000 0.65720  0.05820  0.96580  Biso   1.000  H
  H164     1.0000 0.34280  0.94180  0.96580  Biso   1.000  H
  H165     1.0000 0.05820  0.84280  0.21580  Biso   1.000  H
  H166     1.0000 0.94180  0.15720  0.21580  Biso   1.000  H
  H167     1.0000 0.15720  0.55820  0.46580  Biso   1.000  H
  H168     1.0000 0.84280  0.44180  0.46580  Biso   1.000  H
  H169     1.0000 0.58970  0.28070  0.76230  Biso   1.000  H
  H170     1.0000 0.41030  0.71930  0.76230  Biso   1.000  H
  H171     1.0000 0.71930  0.08970  0.01230  Biso   1.000  H
  H172     1.0000 0.28070  0.91030  0.01230  Biso   1.000  H
  H173     1.0000 0.08970  0.78070  0.26230  Biso   1.000  H
  H174     1.0000 0.91030  0.21930  0.26230  Biso   1.000  H
  H175     1.0000 0.21930  0.58970  0.51230  Biso   1.000  H
  H176     1.0000 0.78070  0.41030  0.51230  Biso   1.000  H
  C161     1.0000 0.26850  0.16860  0.63950  Biso   1.000  C
  C162     1.0000 0.73150  0.83140  0.63950  Biso   1.000  C
  C163     1.0000 0.83140  0.76850  0.88950  Biso   1.000  C
  C164     1.0000 0.16860  0.23150  0.88950  Biso   1.000  C
  C165     1.0000 0.76850  0.66860  0.13950  Biso   1.000  C
  C166     1.0000 0.23150  0.33140  0.13950  Biso   1.000  C
  C167     1.0000 0.33140  0.26850  0.38950  Biso   1.000  C
  C168     1.0000 0.66860  0.73150  0.38950  Biso   1.000  C
  H177     1.0000 0.25960  0.21000  0.67500  Biso   1.000  H
  H178     1.0000 0.74040  0.79000  0.67500  Biso   1.000  H
  H179     1.0000 0.79000  0.75960  0.92500  Biso   1.000  H
  H180     1.0000 0.21000  0.24040  0.92500  Biso   1.000  H
  H181     1.0000 0.75960  0.71000  0.17500  Biso   1.000  H
  H182     1.0000 0.24040  0.29000  0.17500  Biso   1.000  H
  H183     1.0000 0.29000  0.25960  0.42500  Biso   1.000  H
  H184     1.0000 0.71000  0.74040  0.42500  Biso   1.000  H
  C169     1.0000 0.24180  0.16020  0.54550  Biso   1.000  C
  C170     1.0000 0.75820  0.83980  0.54550  Biso   1.000  C
  C171     1.0000 0.83980  0.74180  0.79550  Biso   1.000  C
  C172     1.0000 0.16020  0.25820  0.79550  Biso   1.000  C
  C173     1.0000 0.74180  0.66020  0.04550  Biso   1.000  C
  C174     1.0000 0.25820  0.33980  0.04550  Biso   1.000  C
  C175     1.0000 0.33980  0.24180  0.29550  Biso   1.000  C
  C176     1.0000 0.66020  0.75820  0.29550  Biso   1.000  C
  H185     1.0000 0.22000  0.18600  0.52300  Biso   1.000  H
  H186     1.0000 0.78000  0.81400  0.52300  Biso   1.000  H
  H187     1.0000 0.81400  0.72000  0.77300  Biso   1.000  H
  H188     1.0000 0.18600  0.28000  0.77300  Biso   1.000  H
  H189     1.0000 0.72000  0.68600  0.02300  Biso   1.000  H
  H190     1.0000 0.28000  0.31400  0.02300  Biso   1.000  H
  H191     1.0000 0.31400  0.22000  0.27300  Biso   1.000  H
  H192     1.0000 0.68600  0.78000  0.27300  Biso   1.000  H
  C177     1.0000 0.25630  0.10450  0.49520  Biso   1.000  C
  C178     1.0000 0.74370  0.89550  0.49520  Biso   1.000  C
  C179     1.0000 0.89550  0.75630  0.74520  Biso   1.000  C
  C180     1.0000 0.10450  0.24370  0.74520  Biso   1.000  C
  C181     1.0000 0.75630  0.60450  0.99520  Biso   1.000  C
  C182     1.0000 0.24370  0.39550  0.99520  Biso   1.000  C
  C183     1.0000 0.39550  0.25630  0.24520  Biso   1.000  C
  C184     1.0000 0.60450  0.74370  0.24520  Biso   1.000  C
  H193     1.0000 0.24280  0.09960  0.44300  Biso   1.000  H
  H194     1.0000 0.75720  0.90040  0.44300  Biso   1.000  H
  H195     1.0000 0.90040  0.74280  0.69300  Biso   1.000  H
  H196     1.0000 0.09960  0.25720  0.69300  Biso   1.000  H
  H197     1.0000 0.74280  0.59960  0.94300  Biso   1.000  H
  H198     1.0000 0.25720  0.40040  0.94300  Biso   1.000  H
  H199     1.0000 0.40040  0.24280  0.19300  Biso   1.000  H
  H200     1.0000 0.59960  0.75720  0.19300  Biso   1.000  H
  C185     1.0000 0.29500  0.05710  0.53660  Biso   1.000  C
  C186     1.0000 0.70500  0.94290  0.53660  Biso   1.000  C
  C187     1.0000 0.94290  0.79500  0.78660  Biso   1.000  C
  C188     1.0000 0.05710  0.20500  0.78660  Biso   1.000  C
  C189     1.0000 0.79500  0.55710  0.03660  Biso   1.000  C
  C190     1.0000 0.20500  0.44290  0.03660  Biso   1.000  C
  C191     1.0000 0.44290  0.29500  0.28660  Biso   1.000  C
  C192     1.0000 0.55710  0.70500  0.28660  Biso   1.000  C
  C193     1.0000 0.31830  0.06860  0.63120  Biso   1.000  C
  C194     1.0000 0.68170  0.93140  0.63120  Biso   1.000  C
  C195     1.0000 0.93140  0.81830  0.88120  Biso   1.000  C
  C196     1.0000 0.06860  0.18170  0.88120  Biso   1.000  C
  C197     1.0000 0.81830  0.56860  0.13120  Biso   1.000  C
  C198     1.0000 0.18170  0.43140  0.13120  Biso   1.000  C
  C199     1.0000 0.43140  0.31830  0.38120  Biso   1.000  C
  C200     1.0000 0.56860  0.68170  0.38120  Biso   1.000  C
  C201     1.0000 0.31440  0.99710  0.49120  Biso   1.000  C
  C202     1.0000 0.68560  0.00290  0.49120  Biso   1.000  C
  C203     1.0000 0.00290  0.81440  0.74120  Biso   1.000  C
  C204     1.0000 0.99710  0.18560  0.74120  Biso   1.000  C
  C205     1.0000 0.81440  0.49710  0.99120  Biso   1.000  C
  C206     1.0000 0.18560  0.50290  0.99120  Biso   1.000  C
  C207     1.0000 0.50290  0.31440  0.24120  Biso   1.000  C
  C208     1.0000 0.49710  0.68560  0.24120  Biso   1.000  C
  H201     1.0000 0.30130  0.98930  0.43500  Biso   1.000  H
  H202     1.0000 0.69870  0.01070  0.43500  Biso   1.000  H
  H203     1.0000 0.01070  0.80130  0.68500  Biso   1.000  H
  H204     1.0000 0.98930  0.19870  0.68500  Biso   1.000  H
  H205     1.0000 0.80130  0.48930  0.93500  Biso   1.000  H
  H206     1.0000 0.19870  0.51070  0.93500  Biso   1.000  H
  H207     1.0000 0.51070  0.30130  0.18500  Biso   1.000  H
  H208     1.0000 0.48930  0.69870  0.18500  Biso   1.000  H
  C209     1.0000 0.35250  0.95320  0.53540  Biso   1.000  C
  C210     1.0000 0.64750  0.04680  0.53540  Biso   1.000  C
  C211     1.0000 0.04680  0.85250  0.78540  Biso   1.000  C
  C212     1.0000 0.95320  0.14750  0.78540  Biso   1.000  C
  C213     1.0000 0.85250  0.45320  0.03540  Biso   1.000  C
  C214     1.0000 0.14750  0.54680  0.03540  Biso   1.000  C
  C215     1.0000 0.54680  0.35250  0.28540  Biso   1.000  C
  C216     1.0000 0.45320  0.64750  0.28540  Biso   1.000  C
  H209     1.0000 0.36370  0.90900  0.49900  Biso   1.000  H
  H210     1.0000 0.63630  0.09100  0.49900  Biso   1.000  H
  H211     1.0000 0.09100  0.86370  0.74900  Biso   1.000  H
  H212     1.0000 0.90900  0.13630  0.74900  Biso   1.000  H
  H213     1.0000 0.86370  0.40900  0.99900  Biso   1.000  H
  H214     1.0000 0.13630  0.59100  0.99900  Biso   1.000  H
  H215     1.0000 0.59100  0.36370  0.24900  Biso   1.000  H
  H216     1.0000 0.40900  0.63630  0.24900  Biso   1.000  H
  C217     1.0000 0.37810  0.96500  0.63030  Biso   1.000  C
  C218     1.0000 0.62190  0.03500  0.63030  Biso   1.000  C
  C219     1.0000 0.03500  0.87810  0.88030  Biso   1.000  C
  C220     1.0000 0.96500  0.12190  0.88030  Biso   1.000  C
  C221     1.0000 0.87810  0.46500  0.13030  Biso   1.000  C
  C222     1.0000 0.12190  0.53500  0.13030  Biso   1.000  C
  C223     1.0000 0.53500  0.37810  0.38030  Biso   1.000  C
  C224     1.0000 0.46500  0.62190  0.38030  Biso   1.000  C
  C225     1.0000 0.35950  0.02250  0.67840  Biso   1.000  C
  C226     1.0000 0.64050  0.97750  0.67840  Biso   1.000  C
  C227     1.0000 0.97750  0.85950  0.92840  Biso   1.000  C
  C228     1.0000 0.02250  0.14050  0.92840  Biso   1.000  C
  C229     1.0000 0.85950  0.52250  0.17840  Biso   1.000  C
  C230     1.0000 0.14050  0.47750  0.17840  Biso   1.000  C
  C231     1.0000 0.47750  0.35950  0.42840  Biso   1.000  C
  C232     1.0000 0.52250  0.64050  0.42840  Biso   1.000  C
  C233     1.0000 0.41910  0.92380  0.68080  Biso   1.000  C
  C234     1.0000 0.58090  0.07620  0.68080  Biso   1.000  C
  C235     1.0000 0.07620  0.91910  0.93080  Biso   1.000  C
  C236     1.0000 0.92380  0.08090  0.93080  Biso   1.000  C
  C237     1.0000 0.91910  0.42380  0.18080  Biso   1.000  C
  C238     1.0000 0.08090  0.57620  0.18080  Biso   1.000  C
  C239     1.0000 0.57620  0.41910  0.43080  Biso   1.000  C
  C240     1.0000 0.42380  0.58090  0.43080  Biso   1.000  C
  H217     1.0000 0.43410  0.88300  0.64900  Biso   1.000  H
  H218     1.0000 0.56590  0.11700  0.64900  Biso   1.000  H
  H219     1.0000 0.11700  0.93410  0.89900  Biso   1.000  H
  H220     1.0000 0.88300  0.06590  0.89900  Biso   1.000  H
  H221     1.0000 0.93410  0.38300  0.14900  Biso   1.000  H
  H222     1.0000 0.06590  0.61700  0.14900  Biso   1.000  H
  H223     1.0000 0.61700  0.43410  0.39900  Biso   1.000  H
  H224     1.0000 0.38300  0.56590  0.39900  Biso   1.000  H
  C241     1.0000 0.43950  0.93770  0.77330  Biso   1.000  C
  C242     1.0000 0.56050  0.06230  0.77330  Biso   1.000  C
  C243     1.0000 0.06230  0.93950  0.02330  Biso   1.000  C
  C244     1.0000 0.93770  0.06050  0.02330  Biso   1.000  C
  C245     1.0000 0.93950  0.43770  0.27330  Biso   1.000  C
  C246     1.0000 0.06050  0.56230  0.27330  Biso   1.000  C
  C247     1.0000 0.56230  0.43950  0.52330  Biso   1.000  C
  C248     1.0000 0.43770  0.56050  0.52330  Biso   1.000  C
  H225     1.0000 0.46700  0.90800  0.80800  Biso   1.000  H
  H226     1.0000 0.53300  0.09200  0.80800  Biso   1.000  H
  H227     1.0000 0.09200  0.96700  0.05800  Biso   1.000  H
  H228     1.0000 0.90800  0.03300  0.05800  Biso   1.000  H
  H229     1.0000 0.96700  0.40800  0.30800  Biso   1.000  H
  H230     1.0000 0.03300  0.59200  0.30800  Biso   1.000  H
  H231     1.0000 0.59200  0.46700  0.55800  Biso   1.000  H
  H232     1.0000 0.40800  0.53300  0.55800  Biso   1.000  H
  C249     1.0000 0.41840  0.99610  0.81570  Biso   1.000  C
  C250     1.0000 0.58160  0.00390  0.81570  Biso   1.000  C
  C251     1.0000 0.00390  0.91840  0.06570  Biso   1.000  C
  C252     1.0000 0.99610  0.08160  0.06570  Biso   1.000  C
  C253     1.0000 0.91840  0.49610  0.31570  Biso   1.000  C
  C254     1.0000 0.08160  0.50390  0.31570  Biso   1.000  C
  C255     1.0000 0.50390  0.41840  0.56570  Biso   1.000  C
  C256     1.0000 0.49610  0.58160  0.56570  Biso   1.000  C
  H233     1.0000 0.43260  0.00660  0.88100  Biso   1.000  H
  H234     1.0000 0.56740  0.99340  0.88100  Biso   1.000  H
  H235     1.0000 0.99340  0.93260  0.13100  Biso   1.000  H
  H236     1.0000 0.00660  0.06740  0.13100  Biso   1.000  H
  H237     1.0000 0.93260  0.50660  0.38100  Biso   1.000  H
  H238     1.0000 0.06740  0.49340  0.38100  Biso   1.000  H
  H239     1.0000 0.49340  0.43260  0.63100  Biso   1.000  H
  H240     1.0000 0.50660  0.56740  0.63100  Biso   1.000  H
  N1       1.0000 0.30450  0.12400  0.68180  Biso   1.000  N
  N2       1.0000 0.69550  0.87600  0.68180  Biso   1.000  N
  N3       1.0000 0.87600  0.80450  0.93180  Biso   1.000  N
  N4       1.0000 0.12400  0.19550  0.93180  Biso   1.000  N
  N5       1.0000 0.80450  0.62400  0.18180  Biso   1.000  N
  N6       1.0000 0.19550  0.37600  0.18180  Biso   1.000  N
  N7       1.0000 0.37600  0.30450  0.43180  Biso   1.000  N
  N8       1.0000 0.62400  0.69550  0.43180  Biso   1.000  N
  N9       1.0000 0.37960  0.03780  0.76910  Biso   1.000  N
  N10      1.0000 0.62040  0.96220  0.76910  Biso   1.000  N
  N11      1.0000 0.96220  0.87960  0.01910  Biso   1.000  N
  N12      1.0000 0.03780  0.12040  0.01910  Biso   1.000  N
  N13      1.0000 0.87960  0.53780  0.26910  Biso   1.000  N
  N14      1.0000 0.12040  0.46220  0.26910  Biso   1.000  N
  N15      1.0000 0.46220  0.37960  0.51910  Biso   1.000  N
  N16      1.0000 0.53780  0.62040  0.51910  Biso   1.000  N
  O1       1.0000 0.40780  0.12220  0.92400  Biso   1.000  O
  O2       1.0000 0.59220  0.87780  0.92400  Biso   1.000  O
  O3       1.0000 0.87780  0.90780  0.17400  Biso   1.000  O
  O4       1.0000 0.12220  0.09220  0.17400  Biso   1.000  O
  O5       1.0000 0.90780  0.62220  0.42400  Biso   1.000  O
  O6       1.0000 0.09220  0.37780  0.42400  Biso   1.000  O
  O7       1.0000 0.37780  0.40780  0.67400  Biso   1.000  O
  O8       1.0000 0.62220  0.59220  0.67400  Biso   1.000  O
  O9       1.0000 0.39450  0.21980  0.99160  Biso   1.000  O
  O10      1.0000 0.60550  0.78020  0.99160  Biso   1.000  O
  O11      1.0000 0.78020  0.89450  0.24160  Biso   1.000  O
  O12      1.0000 0.21980  0.10550  0.24160  Biso   1.000  O
  O13      1.0000 0.89450  0.71980  0.49160  Biso   1.000  O
  O14      1.0000 0.10550  0.28020  0.49160  Biso   1.000  O
  O15      1.0000 0.28020  0.39450  0.74160  Biso   1.000  O
  O16      1.0000 0.71980  0.60550  0.74160  Biso   1.000  O
  O17      1.0000 0.44480  0.16720  0.71840  Biso   1.000  O
  O18      1.0000 0.55520  0.83280  0.71840  Biso   1.000  O
  O19      1.0000 0.83280  0.94480  0.96840  Biso   1.000  O
  O20      1.0000 0.16720  0.05520  0.96840  Biso   1.000  O
  O21      1.0000 0.94480  0.66720  0.21840  Biso   1.000  O
  O22      1.0000 0.05520  0.33280  0.21840  Biso   1.000  O
  O23      1.0000 0.33280  0.44480  0.46840  Biso   1.000  O
  O24      1.0000 0.66720  0.55520  0.46840  Biso   1.000  O
  O25      1.0000 0.39970  0.26050  0.66720  Biso   1.000  O
  O26      1.0000 0.60030  0.73950  0.66720  Biso   1.000  O
  O27      1.0000 0.73950  0.89970  0.91720  Biso   1.000  O
  O28      1.0000 0.26050  0.10030  0.91720  Biso   1.000  O
  O29      1.0000 0.89970  0.76050  0.16720  Biso   1.000  O
  O30      1.0000 0.10030  0.23950  0.16720  Biso   1.000  O
  O31      1.0000 0.23950  0.39970  0.41720  Biso   1.000  O
  O32      1.0000 0.76050  0.60030  0.41720  Biso   1.000  O
  O33      1.0000 0.32940  0.22270  0.82670  Biso   1.000  O
  O34      1.0000 0.67060  0.77730  0.82670  Biso   1.000  O
  O35      1.0000 0.77730  0.82940  0.07670  Biso   1.000  O
  O36      1.0000 0.22270  0.17060  0.07670  Biso   1.000  O
  O37      1.0000 0.82940  0.72270  0.32670  Biso   1.000  O
  O38      1.0000 0.17060  0.27730  0.32670  Biso   1.000  O
  O39      1.0000 0.27730  0.32940  0.57670  Biso   1.000  O
  O40      1.0000 0.72270  0.67060  0.57670  Biso   1.000  O
  H241     1.0000 0.34660  0.23670  0.87630  Biso   1.000  H
  H242     1.0000 0.65340  0.76330  0.87630  Biso   1.000  H
  H243     1.0000 0.76330  0.84660  0.12630  Biso   1.000  H
  H244     1.0000 0.23670  0.15340  0.12630  Biso   1.000  H
  H245     1.0000 0.84660  0.73670  0.37630  Biso   1.000  H
  H246     1.0000 0.15340  0.26330  0.37630  Biso   1.000  H
  H247     1.0000 0.26330  0.34660  0.62630  Biso   1.000  H
  H248     1.0000 0.73670  0.65340  0.62630  Biso   1.000  H
  Cu1      1.0000 0.35257  0.12873  0.80940  Biso   1.000  Cu
  Cu2      1.0000 0.64743  0.87127  0.80940  Biso   1.000  Cu
  Cu3      1.0000 0.87127  0.85257  0.05940  Biso   1.000  Cu
  Cu4      1.0000 0.12873  0.14743  0.05940  Biso   1.000  Cu
  Cu5      1.0000 0.85257  0.62873  0.30940  Biso   1.000  Cu
  Cu6      1.0000 0.14743  0.37127  0.30940  Biso   1.000  Cu
  Cu7      1.0000 0.37127  0.35257  0.55940  Biso   1.000  Cu
  Cu8      1.0000 0.62873  0.64743  0.55940  Biso   1.000  Cu
  H249     1.0000 0.35200  0.23800  0.78600  Biso   1.000  H
  H250     1.0000 0.64800  0.76200  0.78600  Biso   1.000  H
  H251     1.0000 0.76200  0.85200  0.03600  Biso   1.000  H
  H252     1.0000 0.23800  0.14800  0.03600  Biso   1.000  H
  H253     1.0000 0.85200  0.73800  0.28600  Biso   1.000  H
  H254     1.0000 0.14800  0.26200  0.28600  Biso   1.000  H
  H255     1.0000 0.26200  0.35200  0.53600  Biso   1.000  H
  H256     1.0000 0.73800  0.64800  0.53600  Biso   1.000  H
