data_image0
_cell_length_a       21.755
_cell_length_b       10.0835
_cell_length_c       6.2678
_cell_angle_alpha    90
_cell_angle_beta     90
_cell_angle_gamma    90

_symmetry_space_group_name_H-M    "P 1"
_symmetry_int_tables_number       1

loop_
  _symmetry_equiv_pos_as_xyz
  'x, y, z'

loop_
  _atom_site_label
  _atom_site_occupancy
  _atom_site_fract_x
  _atom_site_fract_y
  _atom_site_fract_z
  _atom_site_thermal_displace_type
  _atom_site_B_iso_or_equiv
  _atom_site_type_symbol
  C1       1.0000 0.37680  0.80140  0.47680  Biso   1.000  C
  C2       1.0000 0.62320  0.19860  0.97680  Biso   1.000  C
  C3       1.0000 0.12320  0.80140  0.97680  Biso   1.000  C
  C4       1.0000 0.87680  0.19860  0.47680  Biso   1.000  C
  H1       1.0000 0.38940  0.80480  0.32840  Biso   1.000  H
  H2       1.0000 0.61060  0.19520  0.82840  Biso   1.000  H
  H3       1.0000 0.11060  0.80480  0.82840  Biso   1.000  H
  H4       1.0000 0.88940  0.19520  0.32840  Biso   1.000  H
  H5       1.0000 0.33240  0.79450  0.48200  Biso   1.000  H
  H6       1.0000 0.66760  0.20550  0.98200  Biso   1.000  H
  H7       1.0000 0.16760  0.79450  0.98200  Biso   1.000  H
  H8       1.0000 0.83240  0.20550  0.48200  Biso   1.000  H
  C5       1.0000 0.40593  0.68240  0.58620  Biso   1.000  C
  C6       1.0000 0.59407  0.31760  0.08620  Biso   1.000  C
  C7       1.0000 0.09407  0.68240  0.08620  Biso   1.000  C
  C8       1.0000 0.90593  0.31760  0.58620  Biso   1.000  C
  H9       1.0000 0.38660  0.66700  0.72340  Biso   1.000  H
  H10      1.0000 0.61340  0.33300  0.22340  Biso   1.000  H
  H11      1.0000 0.11340  0.66700  0.22340  Biso   1.000  H
  H12      1.0000 0.88660  0.33300  0.72340  Biso   1.000  H
  H13      1.0000 0.40080  0.60360  0.49930  Biso   1.000  H
  H14      1.0000 0.59920  0.39640  0.99930  Biso   1.000  H
  H15      1.0000 0.09920  0.60360  0.99930  Biso   1.000  H
  H16      1.0000 0.90080  0.39640  0.49930  Biso   1.000  H
  C9       1.0000 0.51162  0.61890  0.60160  Biso   1.000  C
  C10      1.0000 0.48838  0.38110  0.10160  Biso   1.000  C
  C11      1.0000 0.98838  0.61890  0.10160  Biso   1.000  C
  C12      1.0000 0.01162  0.38110  0.60160  Biso   1.000  C
  H17      1.0000 0.49790  0.53390  0.56910  Biso   1.000  H
  H18      1.0000 0.50210  0.46610  0.06910  Biso   1.000  H
  H19      1.0000 0.00210  0.53390  0.06910  Biso   1.000  H
  H20      1.0000 0.99790  0.46610  0.56910  Biso   1.000  H
  C13      1.0000 0.57736  0.63750  0.63380  Biso   1.000  C
  C14      1.0000 0.42264  0.36250  0.13380  Biso   1.000  C
  C15      1.0000 0.92264  0.63750  0.13380  Biso   1.000  C
  C16      1.0000 0.07736  0.36250  0.63380  Biso   1.000  C
  C17      1.0000 0.60434  0.76120  0.69610  Biso   1.000  C
  C18      1.0000 0.39566  0.23880  0.19610  Biso   1.000  C
  C19      1.0000 0.89566  0.76120  0.19610  Biso   1.000  C
  C20      1.0000 0.10434  0.23880  0.69610  Biso   1.000  C
  C21      1.0000 0.66920  0.76570  0.72030  Biso   1.000  C
  C22      1.0000 0.33080  0.23430  0.22030  Biso   1.000  C
  C23      1.0000 0.83080  0.76570  0.22030  Biso   1.000  C
  C24      1.0000 0.16920  0.23430  0.72030  Biso   1.000  C
  H21      1.0000 0.68770  0.84510  0.75990  Biso   1.000  H
  H22      1.0000 0.31230  0.15490  0.25990  Biso   1.000  H
  H23      1.0000 0.81230  0.84510  0.25990  Biso   1.000  H
  H24      1.0000 0.18770  0.15490  0.75990  Biso   1.000  H
  C25      1.0000 0.70549  0.65560  0.68680  Biso   1.000  C
  C26      1.0000 0.29451  0.34440  0.18680  Biso   1.000  C
  C27      1.0000 0.79451  0.65560  0.18680  Biso   1.000  C
  C28      1.0000 0.20549  0.34440  0.68680  Biso   1.000  C
  H25      1.0000 0.74790  0.66070  0.70240  Biso   1.000  H
  H26      1.0000 0.25210  0.33930  0.20240  Biso   1.000  H
  H27      1.0000 0.75210  0.66070  0.20240  Biso   1.000  H
  H28      1.0000 0.24790  0.33930  0.70240  Biso   1.000  H
  C29      1.0000 0.67746  0.53570  0.62880  Biso   1.000  C
  C30      1.0000 0.32254  0.46430  0.12880  Biso   1.000  C
  C31      1.0000 0.82254  0.53570  0.12880  Biso   1.000  C
  C32      1.0000 0.17746  0.46430  0.62880  Biso   1.000  C
  C33      1.0000 0.61492  0.52650  0.60200  Biso   1.000  C
  C34      1.0000 0.38508  0.47350  0.10200  Biso   1.000  C
  C35      1.0000 0.88508  0.52650  0.10200  Biso   1.000  C
  C36      1.0000 0.11492  0.47350  0.60200  Biso   1.000  C
  H29      1.0000 0.59740  0.44600  0.56250  Biso   1.000  H
  H30      1.0000 0.40260  0.55400  0.06250  Biso   1.000  H
  H31      1.0000 0.90260  0.44600  0.06250  Biso   1.000  H
  H32      1.0000 0.09740  0.55400  0.56250  Biso   1.000  H
  C37      1.0000 0.36160  0.95390  0.78630  Biso   1.000  C
  C38      1.0000 0.63840  0.04610  0.28630  Biso   1.000  C
  C39      1.0000 0.13840  0.95390  0.28630  Biso   1.000  C
  C40      1.0000 0.86160  0.04610  0.78630  Biso   1.000  C
  H33      1.0000 0.36100  0.87610  0.87720  Biso   1.000  H
  H34      1.0000 0.63900  0.12390  0.37720  Biso   1.000  H
  H35      1.0000 0.13900  0.87610  0.37720  Biso   1.000  H
  H36      1.0000 0.86100  0.12390  0.87720  Biso   1.000  H
  H37      1.0000 0.38230  0.02430  0.86350  Biso   1.000  H
  H38      1.0000 0.61770  0.97570  0.36350  Biso   1.000  H
  H39      1.0000 0.11770  0.02430  0.36350  Biso   1.000  H
  H40      1.0000 0.88230  0.97570  0.86350  Biso   1.000  H
  C41      1.0000 0.29750  0.99530  0.74320  Biso   1.000  C
  C42      1.0000 0.70250  0.00470  0.24320  Biso   1.000  C
  C43      1.0000 0.20250  0.99530  0.24320  Biso   1.000  C
  C44      1.0000 0.79750  0.00470  0.74320  Biso   1.000  C
  H41      1.0000 0.27830  0.93200  0.65020  Biso   1.000  H
  H42      1.0000 0.72170  0.06800  0.15020  Biso   1.000  H
  H43      1.0000 0.22170  0.93200  0.15020  Biso   1.000  H
  H44      1.0000 0.77830  0.06800  0.65020  Biso   1.000  H
  H45      1.0000 0.29750  0.08090  0.67630  Biso   1.000  H
  H46      1.0000 0.70250  0.91910  0.17630  Biso   1.000  H
  H47      1.0000 0.20250  0.08090  0.17630  Biso   1.000  H
  H48      1.0000 0.79750  0.91910  0.67630  Biso   1.000  H
  H49      1.0000 0.27520  0.99970  0.87500  Biso   1.000  H
  H50      1.0000 0.72480  0.00030  0.37500  Biso   1.000  H
  H51      1.0000 0.22480  0.99970  0.37500  Biso   1.000  H
  H52      1.0000 0.77520  0.00030  0.87500  Biso   1.000  H
  N1       1.0000 0.39731  0.92290  0.58940  Biso   1.000  N
  N2       1.0000 0.60269  0.07710  0.08940  Biso   1.000  N
  N3       1.0000 0.10269  0.92290  0.08940  Biso   1.000  N
  N4       1.0000 0.89731  0.07710  0.58940  Biso   1.000  N
  H53      1.0000 0.39320  0.99250  0.49810  Biso   1.000  H
  H54      1.0000 0.60680  0.00750  0.99810  Biso   1.000  H
  H55      1.0000 0.10680  0.99250  0.99810  Biso   1.000  H
  H56      1.0000 0.89320  0.00750  0.49810  Biso   1.000  H
  N5       1.0000 0.47142  0.71130  0.61490  Biso   1.000  N
  N6       1.0000 0.52858  0.28870  0.11490  Biso   1.000  N
  N7       1.0000 0.02858  0.71130  0.11490  Biso   1.000  N
  N8       1.0000 0.97142  0.28870  0.61490  Biso   1.000  N
  N9       1.0000 0.71605  0.41940  0.59360  Biso   1.000  N
  N10      1.0000 0.28395  0.58060  0.09360  Biso   1.000  N
  N11      1.0000 0.78395  0.41940  0.09360  Biso   1.000  N
  N12      1.0000 0.21605  0.58060  0.59360  Biso   1.000  N
  N13      1.0000 0.49480  0.08030  0.77840  Biso   1.000  N
  N14      1.0000 0.50520  0.91970  0.27840  Biso   1.000  N
  N15      1.0000 0.00520  0.08030  0.27840  Biso   1.000  N
  N16      1.0000 0.99480  0.91970  0.77840  Biso   1.000  N
  N17      1.0000 0.49425  0.18290  0.68350  Biso   1.000  N
  N18      1.0000 0.50575  0.81710  0.18350  Biso   1.000  N
  N19      1.0000 0.00575  0.18290  0.18350  Biso   1.000  N
  N20      1.0000 0.99425  0.81710  0.68350  Biso   1.000  N
  N21      1.0000 0.49570  0.28480  0.60510  Biso   1.000  N
  N22      1.0000 0.50430  0.71520  0.10510  Biso   1.000  N
  N23      1.0000 0.00430  0.28480  0.10510  Biso   1.000  N
  N24      1.0000 0.99570  0.71520  0.60510  Biso   1.000  N
  O1       1.0000 0.57337  0.86950  0.73030  Biso   1.000  O
  O2       1.0000 0.42663  0.13050  0.23030  Biso   1.000  O
  O3       1.0000 0.92663  0.86950  0.23030  Biso   1.000  O
  O4       1.0000 0.07337  0.13050  0.73030  Biso   1.000  O
  O5       1.0000 0.77238  0.43400  0.60400  Biso   1.000  O
  O6       1.0000 0.22762  0.56600  0.10400  Biso   1.000  O
  O7       1.0000 0.72762  0.43400  0.10400  Biso   1.000  O
  O8       1.0000 0.27238  0.56600  0.60400  Biso   1.000  O
  O9       1.0000 0.69109  0.31280  0.55950  Biso   1.000  O
  O10      1.0000 0.30891  0.68720  0.05950  Biso   1.000  O
  O11      1.0000 0.80891  0.31280  0.05950  Biso   1.000  O
  O12      1.0000 0.19109  0.68720  0.55950  Biso   1.000  O
  Cu1      1.0000 0.48818  0.89989  0.65380  Biso   1.000  Cu
  Cu2      1.0000 0.51182  0.10011  0.15380  Biso   1.000  Cu
  Cu3      1.0000 0.01182  0.89989  0.15380  Biso   1.000  Cu
  Cu4      1.0000 0.98818  0.10011  0.65380  Biso   1.000  Cu
