data_image0
_cell_length_a       8.8908
_cell_length_b       22.0023
_cell_length_c       21.84
_cell_angle_alpha    90
_cell_angle_beta     95.4337
_cell_angle_gamma    90

_symmetry_space_group_name_H-M    "P 1"
_symmetry_int_tables_number       1

loop_
  _symmetry_equiv_pos_as_xyz
  'x, y, z'

loop_
  _atom_site_label
  _atom_site_occupancy
  _atom_site_fract_x
  _atom_site_fract_y
  _atom_site_fract_z
  _atom_site_thermal_displace_type
  _atom_site_B_iso_or_equiv
  _atom_site_type_symbol
  Cu1      1.0000 0.30634  0.69767  0.78910  Biso   1.000  Cu
  Cu2      1.0000 0.69366  0.19767  0.71090  Biso   1.000  Cu
  Cu3      1.0000 0.69366  0.30233  0.21090  Biso   1.000  Cu
  Cu4      1.0000 0.30634  0.80233  0.28910  Biso   1.000  Cu
  Cu5      1.0000 0.59135  0.78209  0.75649  Biso   1.000  Cu
  Cu6      1.0000 0.40865  0.28209  0.74351  Biso   1.000  Cu
  Cu7      1.0000 0.40865  0.21791  0.24351  Biso   1.000  Cu
  Cu8      1.0000 0.59135  0.71791  0.25649  Biso   1.000  Cu
  Cu9      1.0000 0.32143  0.84443  0.83413  Biso   1.000  Cu
  Cu10     1.0000 0.67857  0.34443  0.66587  Biso   1.000  Cu
  Cu11     1.0000 0.67857  0.15557  0.16587  Biso   1.000  Cu
  Cu12     1.0000 0.32143  0.65557  0.33413  Biso   1.000  Cu
  O1       1.0000 0.43410  0.76914  0.81551  Biso   1.000  O
  O2       1.0000 0.56590  0.26914  0.68449  Biso   1.000  O
  O3       1.0000 0.56590  0.23086  0.18449  Biso   1.000  O
  O4       1.0000 0.43410  0.73086  0.31551  Biso   1.000  O
  O5       1.0000 0.38620  0.79188  0.67647  Biso   1.000  O
  O6       1.0000 0.61380  0.29188  0.82353  Biso   1.000  O
  O7       1.0000 0.61380  0.20812  0.32353  Biso   1.000  O
  O8       1.0000 0.38620  0.70812  0.17647  Biso   1.000  O
  H1       1.0000 0.34400  0.82470  0.67990  Biso   1.000  H
  H2       1.0000 0.65600  0.32470  0.82010  Biso   1.000  H
  H3       1.0000 0.65600  0.17530  0.32010  Biso   1.000  H
  H4       1.0000 0.34400  0.67530  0.17990  Biso   1.000  H
  N1       1.0000 0.49420  0.89166  0.81351  Biso   1.000  N
  N2       1.0000 0.50580  0.39166  0.68649  Biso   1.000  N
  N3       1.0000 0.50580  0.10834  0.18649  Biso   1.000  N
  N4       1.0000 0.49420  0.60834  0.31351  Biso   1.000  N
  N5       1.0000 0.60730  0.86633  0.78351  Biso   1.000  N
  N6       1.0000 0.39270  0.36633  0.71649  Biso   1.000  N
  N7       1.0000 0.39270  0.13367  0.21649  Biso   1.000  N
  N8       1.0000 0.60730  0.63367  0.28351  Biso   1.000  N
  C1       1.0000 0.52820  0.94990  0.82330  Biso   1.000  C
  C2       1.0000 0.47180  0.44990  0.67670  Biso   1.000  C
  C3       1.0000 0.47180  0.05010  0.17670  Biso   1.000  C
  C4       1.0000 0.52820  0.55010  0.32330  Biso   1.000  C
  H5       1.0000 0.46810  0.97750  0.84220  Biso   1.000  H
  H6       1.0000 0.53190  0.47750  0.65780  Biso   1.000  H
  H7       1.0000 0.53190  0.02250  0.15780  Biso   1.000  H
  H8       1.0000 0.46810  0.52250  0.34220  Biso   1.000  H
  C5       1.0000 0.66520  0.96390  0.80160  Biso   1.000  C
  C6       1.0000 0.33480  0.46390  0.69840  Biso   1.000  C
  C7       1.0000 0.33480  0.03610  0.19840  Biso   1.000  C
  C8       1.0000 0.66520  0.53610  0.30160  Biso   1.000  C
  H9       1.0000 0.71560  0.00100  0.80340  Biso   1.000  H
  H10      1.0000 0.28440  0.50100  0.69660  Biso   1.000  H
  H11      1.0000 0.28440  0.99900  0.19660  Biso   1.000  H
  H12      1.0000 0.71560  0.49900  0.30340  Biso   1.000  H
  C9       1.0000 0.70940  0.91000  0.77650  Biso   1.000  C
  C10      1.0000 0.29060  0.41000  0.72350  Biso   1.000  C
  C11      1.0000 0.29060  0.09000  0.22350  Biso   1.000  C
  C12      1.0000 0.70940  0.59000  0.27650  Biso   1.000  C
  H13      1.0000 0.79770  0.90470  0.75750  Biso   1.000  H
  H14      1.0000 0.20230  0.40470  0.74250  Biso   1.000  H
  H15      1.0000 0.20230  0.09530  0.24250  Biso   1.000  H
  H16      1.0000 0.79770  0.59530  0.25750  Biso   1.000  H
  N9       1.0000 0.48750  0.65938  0.76505  Biso   1.000  N
  N10      1.0000 0.51250  0.15938  0.73495  Biso   1.000  N
  N11      1.0000 0.51250  0.34062  0.23495  Biso   1.000  N
  N12      1.0000 0.48750  0.84062  0.26505  Biso   1.000  N
  N13      1.0000 0.60180  0.69415  0.74660  Biso   1.000  N
  N14      1.0000 0.39820  0.19415  0.75340  Biso   1.000  N
  N15      1.0000 0.39820  0.30585  0.25340  Biso   1.000  N
  N16      1.0000 0.60180  0.80585  0.24660  Biso   1.000  N
  C13      1.0000 0.70730  0.65650  0.72800  Biso   1.000  C
  C14      1.0000 0.29270  0.15650  0.77200  Biso   1.000  C
  C15      1.0000 0.29270  0.34350  0.27200  Biso   1.000  C
  C16      1.0000 0.70730  0.84350  0.22800  Biso   1.000  C
  H17      1.0000 0.79650  0.66860  0.71250  Biso   1.000  H
  H18      1.0000 0.20350  0.16860  0.78750  Biso   1.000  H
  H19      1.0000 0.20350  0.33140  0.28750  Biso   1.000  H
  H20      1.0000 0.79650  0.83140  0.21250  Biso   1.000  H
  C17      1.0000 0.66360  0.59730  0.73520  Biso   1.000  C
  C18      1.0000 0.33640  0.09730  0.76480  Biso   1.000  C
  C19      1.0000 0.33640  0.40270  0.26480  Biso   1.000  C
  C20      1.0000 0.66360  0.90270  0.23520  Biso   1.000  C
  H21      1.0000 0.71620  0.56220  0.72660  Biso   1.000  H
  H22      1.0000 0.28380  0.06220  0.77340  Biso   1.000  H
  H23      1.0000 0.28380  0.43780  0.27340  Biso   1.000  H
  H24      1.0000 0.71620  0.93780  0.22660  Biso   1.000  H
  C21      1.0000 0.52460  0.60130  0.75790  Biso   1.000  C
  C22      1.0000 0.47540  0.10130  0.74210  Biso   1.000  C
  C23      1.0000 0.47540  0.39870  0.24210  Biso   1.000  C
  C24      1.0000 0.52460  0.89870  0.25790  Biso   1.000  C
  H25      1.0000 0.46530  0.56830  0.76700  Biso   1.000  H
  H26      1.0000 0.53470  0.06830  0.73300  Biso   1.000  H
  H27      1.0000 0.53470  0.43170  0.23300  Biso   1.000  H
  H28      1.0000 0.46530  0.93170  0.26700  Biso   1.000  H
  N17      1.0000 0.14040  0.79628  0.83834  Biso   1.000  N
  N18      1.0000 0.85960  0.29628  0.66166  Biso   1.000  N
  N19      1.0000 0.85960  0.20372  0.16166  Biso   1.000  N
  N20      1.0000 0.14040  0.70372  0.33834  Biso   1.000  N
  N21      1.0000 0.13340  0.73750  0.81920  Biso   1.000  N
  N22      1.0000 0.86660  0.23750  0.68080  Biso   1.000  N
  N23      1.0000 0.86660  0.26250  0.18080  Biso   1.000  N
  N24      1.0000 0.13340  0.76250  0.31920  Biso   1.000  N
  C25      1.0000 0.00810  0.81040  0.85860  Biso   1.000  C
  C26      1.0000 0.99190  0.31040  0.64140  Biso   1.000  C
  C27      1.0000 0.99190  0.18960  0.14140  Biso   1.000  C
  C28      1.0000 0.00810  0.68960  0.35860  Biso   1.000  C
  H29      1.0000 0.98460  0.84790  0.87470  Biso   1.000  H
  H30      1.0000 0.01540  0.34790  0.62530  Biso   1.000  H
  H31      1.0000 0.01540  0.15210  0.12530  Biso   1.000  H
  H32      1.0000 0.98460  0.65210  0.37470  Biso   1.000  H
  C29      1.0000 0.91040  0.76110  0.85220  Biso   1.000  C
  C30      1.0000 0.08960  0.26110  0.64780  Biso   1.000  C
  C31      1.0000 0.08960  0.23890  0.14780  Biso   1.000  C
  C32      1.0000 0.91040  0.73890  0.35220  Biso   1.000  C
  H33      1.0000 0.81130  0.75860  0.86230  Biso   1.000  H
  H34      1.0000 0.18870  0.25860  0.63770  Biso   1.000  H
  H35      1.0000 0.18870  0.24140  0.13770  Biso   1.000  H
  H36      1.0000 0.81130  0.74140  0.36230  Biso   1.000  H
  C33      1.0000 0.99560  0.71670  0.82730  Biso   1.000  C
  C34      1.0000 0.00440  0.21670  0.67270  Biso   1.000  C
  C35      1.0000 0.00440  0.28330  0.17270  Biso   1.000  C
  C36      1.0000 0.99560  0.78330  0.32730  Biso   1.000  C
  H37      1.0000 0.96180  0.67750  0.81760  Biso   1.000  H
  H38      1.0000 0.03820  0.17750  0.68240  Biso   1.000  H
  H39      1.0000 0.03820  0.32250  0.18240  Biso   1.000  H
  H40      1.0000 0.96180  0.82250  0.31760  Biso   1.000  H
  N25      1.0000 0.73370  0.79566  0.69066  Biso   1.000  N
  N26      1.0000 0.26630  0.29566  0.80934  Biso   1.000  N
  N27      1.0000 0.26630  0.20434  0.30934  Biso   1.000  N
  N28      1.0000 0.73370  0.70434  0.19066  Biso   1.000  N
  N29      1.0000 0.67180  0.80240  0.63340  Biso   1.000  N
  N30      1.0000 0.32820  0.30240  0.86660  Biso   1.000  N
  N31      1.0000 0.32820  0.19760  0.36660  Biso   1.000  N
  N32      1.0000 0.67180  0.69760  0.13340  Biso   1.000  N
  H41      1.0000 0.57610  0.80260  0.62300  Biso   1.000  H
  H42      1.0000 0.42390  0.30260  0.87700  Biso   1.000  H
  H43      1.0000 0.42390  0.19740  0.37700  Biso   1.000  H
  H44      1.0000 0.57610  0.69740  0.12300  Biso   1.000  H
  C37      1.0000 0.88200  0.79770  0.68720  Biso   1.000  C
  C38      1.0000 0.11800  0.29770  0.81280  Biso   1.000  C
  C39      1.0000 0.11800  0.20230  0.31280  Biso   1.000  C
  C40      1.0000 0.88200  0.70230  0.18720  Biso   1.000  C
  H45      1.0000 0.95410  0.79440  0.72070  Biso   1.000  H
  H46      1.0000 0.04590  0.29440  0.77930  Biso   1.000  H
  H47      1.0000 0.04590  0.20560  0.27930  Biso   1.000  H
  H48      1.0000 0.95410  0.70560  0.22070  Biso   1.000  H
  C41      1.0000 0.91430  0.80520  0.62790  Biso   1.000  C
  C42      1.0000 0.08570  0.30520  0.87210  Biso   1.000  C
  C43      1.0000 0.08570  0.19480  0.37210  Biso   1.000  C
  C44      1.0000 0.91430  0.69480  0.12790  Biso   1.000  C
  H49      1.0000 0.00890  0.80740  0.61330  Biso   1.000  H
  H50      1.0000 0.99110  0.30740  0.88670  Biso   1.000  H
  H51      1.0000 0.99110  0.19260  0.38670  Biso   1.000  H
  H52      1.0000 0.00890  0.69260  0.11330  Biso   1.000  H
  C45      1.0000 0.77450  0.80870  0.59460  Biso   1.000  C
  C46      1.0000 0.22550  0.30870  0.90540  Biso   1.000  C
  C47      1.0000 0.22550  0.19130  0.40540  Biso   1.000  C
  C48      1.0000 0.77450  0.69130  0.09460  Biso   1.000  C
  H53      1.0000 0.75650  0.81460  0.55240  Biso   1.000  H
  H54      1.0000 0.24350  0.31460  0.94760  Biso   1.000  H
  H55      1.0000 0.24350  0.18540  0.44760  Biso   1.000  H
  H56      1.0000 0.75650  0.68540  0.05240  Biso   1.000  H
  O9       1.0000 0.17440  0.63807  0.74319  Biso   1.000  O
  O10      1.0000 0.82560  0.13807  0.75681  Biso   1.000  O
  O11      1.0000 0.82560  0.36193  0.25681  Biso   1.000  O
  O12      1.0000 0.17440  0.86193  0.24319  Biso   1.000  O
  O13      1.0000 0.19370  0.69575  0.66030  Biso   1.000  O
  O14      1.0000 0.80630  0.19575  0.83970  Biso   1.000  O
  O15      1.0000 0.80630  0.30425  0.33970  Biso   1.000  O
  O16      1.0000 0.19370  0.80425  0.16030  Biso   1.000  O
  O17      1.0000 0.77620  0.41815  0.63778  Biso   1.000  O
  O18      1.0000 0.22380  0.91815  0.86222  Biso   1.000  O
  O19      1.0000 0.22380  0.58185  0.36222  Biso   1.000  O
  O20      1.0000 0.77620  0.08185  0.13778  Biso   1.000  O
  O21      1.0000 0.90590  0.44377  0.72699  Biso   1.000  O
  O22      1.0000 0.09410  0.94377  0.77301  Biso   1.000  O
  O23      1.0000 0.09410  0.55623  0.27301  Biso   1.000  O
  O24      1.0000 0.90590  0.05623  0.22699  Biso   1.000  O
  C49      1.0000 0.14540  0.65070  0.68680  Biso   1.000  C
  C50      1.0000 0.85460  0.15070  0.81320  Biso   1.000  C
  C51      1.0000 0.85460  0.34930  0.31320  Biso   1.000  C
  C52      1.0000 0.14540  0.84930  0.18680  Biso   1.000  C
  C53      1.0000 0.04130  0.60690  0.65010  Biso   1.000  C
  C54      1.0000 0.95870  0.10690  0.84990  Biso   1.000  C
  C55      1.0000 0.95870  0.39310  0.34990  Biso   1.000  C
  C56      1.0000 0.04130  0.89310  0.15010  Biso   1.000  C
  C57      1.0000 0.00150  0.55250  0.67600  Biso   1.000  C
  C58      1.0000 0.99850  0.05250  0.82400  Biso   1.000  C
  C59      1.0000 0.99850  0.44750  0.32400  Biso   1.000  C
  C60      1.0000 0.00150  0.94750  0.17600  Biso   1.000  C
  H57      1.0000 0.03770  0.54340  0.71630  Biso   1.000  H
  H58      1.0000 0.96230  0.04340  0.78370  Biso   1.000  H
  H59      1.0000 0.96230  0.45660  0.28370  Biso   1.000  H
  H60      1.0000 0.03770  0.95660  0.21630  Biso   1.000  H
  C61      1.0000 0.90820  0.51120  0.64250  Biso   1.000  C
  C62      1.0000 0.09180  0.01120  0.85750  Biso   1.000  C
  C63      1.0000 0.09180  0.48880  0.35750  Biso   1.000  C
  C64      1.0000 0.90820  0.98880  0.14250  Biso   1.000  C
  C65      1.0000 0.85320  0.52570  0.58280  Biso   1.000  C
  C66      1.0000 0.14680  0.02570  0.91720  Biso   1.000  C
  C67      1.0000 0.14680  0.47430  0.41720  Biso   1.000  C
  C68      1.0000 0.85320  0.97430  0.08280  Biso   1.000  C
  H61      1.0000 0.79170  0.49810  0.56000  Biso   1.000  H
  H62      1.0000 0.20830  0.99810  0.94000  Biso   1.000  H
  H63      1.0000 0.20830  0.50190  0.44000  Biso   1.000  H
  H64      1.0000 0.79170  0.00190  0.06000  Biso   1.000  H
  C69      1.0000 0.88870  0.58110  0.55650  Biso   1.000  C
  C70      1.0000 0.11130  0.08110  0.94350  Biso   1.000  C
  C71      1.0000 0.11130  0.41890  0.44350  Biso   1.000  C
  C72      1.0000 0.88870  0.91890  0.05650  Biso   1.000  C
  C73      1.0000 0.98550  0.62060  0.59080  Biso   1.000  C
  C74      1.0000 0.01450  0.12060  0.90920  Biso   1.000  C
  C75      1.0000 0.01450  0.37940  0.40920  Biso   1.000  C
  C76      1.0000 0.98550  0.87940  0.09080  Biso   1.000  C
  H65      1.0000 0.01310  0.65700  0.57340  Biso   1.000  H
  H66      1.0000 0.98690  0.15700  0.92660  Biso   1.000  H
  H67      1.0000 0.98690  0.34300  0.42660  Biso   1.000  H
  H68      1.0000 0.01310  0.84300  0.07340  Biso   1.000  H
  C77      1.0000 0.82450  0.59640  0.49540  Biso   1.000  C
  C78      1.0000 0.17550  0.09640  0.00460  Biso   1.000  C
  C79      1.0000 0.17550  0.40360  0.50460  Biso   1.000  C
  C80      1.0000 0.82450  0.90360  0.99540  Biso   1.000  C
  C81      1.0000 0.76350  0.61010  0.44690  Biso   1.000  C
  C82      1.0000 0.23650  0.11010  0.05310  Biso   1.000  C
  C83      1.0000 0.23650  0.38990  0.55310  Biso   1.000  C
  C84      1.0000 0.76350  0.88990  0.94690  Biso   1.000  C
  H69      1.0000 0.71700  0.62300  0.40600  Biso   1.000  H
  H70      1.0000 0.28300  0.12300  0.09400  Biso   1.000  H
  H71      1.0000 0.28300  0.37700  0.59400  Biso   1.000  H
  H72      1.0000 0.71700  0.87700  0.90600  Biso   1.000  H
  C85      1.0000 0.86200  0.45330  0.67220  Biso   1.000  C
  C86      1.0000 0.13800  0.95330  0.82780  Biso   1.000  C
  C87      1.0000 0.13800  0.54670  0.32780  Biso   1.000  C
  C88      1.0000 0.86200  0.04670  0.17220  Biso   1.000  C
  O25      1.0000 0.40560  0.82890  0.94580  Biso   1.000  O
  O26      1.0000 0.59440  0.32890  0.55420  Biso   1.000  O
  O27      1.0000 0.59440  0.17110  0.05420  Biso   1.000  O
  O28      1.0000 0.40560  0.67110  0.44580  Biso   1.000  O
  C89      1.0000 0.37660  0.87100  0.98140  Biso   1.000  C
  C90      1.0000 0.62340  0.37100  0.51860  Biso   1.000  C
  C91      1.0000 0.62340  0.12900  0.01860  Biso   1.000  C
  C92      1.0000 0.37660  0.62900  0.48140  Biso   1.000  C
  H73      1.0000 0.31900  0.90360  0.96540  Biso   1.000  H
  H74      1.0000 0.68100  0.40360  0.53460  Biso   1.000  H
  H75      1.0000 0.68100  0.09640  0.03460  Biso   1.000  H
  H76      1.0000 0.31900  0.59640  0.46540  Biso   1.000  H
  N33      1.0000 0.42500  0.87130  0.04230  Biso   1.000  N
  N34      1.0000 0.57500  0.37130  0.45770  Biso   1.000  N
  N35      1.0000 0.57500  0.12870  0.95770  Biso   1.000  N
  N36      1.0000 0.42500  0.62870  0.54230  Biso   1.000  N
  C93      1.0000 0.50240  0.82090  0.06990  Biso   1.000  C
  C94      1.0000 0.49760  0.32090  0.43010  Biso   1.000  C
  C95      1.0000 0.49760  0.17910  0.93010  Biso   1.000  C
  C96      1.0000 0.50240  0.67910  0.56990  Biso   1.000  C
  H77      1.0000 0.50420  0.78860  0.04040  Biso   1.000  H
  H78      1.0000 0.49580  0.28860  0.45960  Biso   1.000  H
  H79      1.0000 0.49580  0.21140  0.95960  Biso   1.000  H
  H80      1.0000 0.50420  0.71140  0.54040  Biso   1.000  H
  H81      1.0000 0.45160  0.80720  0.10430  Biso   1.000  H
  H82      1.0000 0.54840  0.30720  0.39570  Biso   1.000  H
  H83      1.0000 0.54840  0.19280  0.89570  Biso   1.000  H
  H84      1.0000 0.45160  0.69280  0.60430  Biso   1.000  H
  H85      1.0000 0.60400  0.83240  0.08380  Biso   1.000  H
  H86      1.0000 0.39600  0.33240  0.41620  Biso   1.000  H
  H87      1.0000 0.39600  0.16760  0.91620  Biso   1.000  H
  H88      1.0000 0.60400  0.66760  0.58380  Biso   1.000  H
  C97      1.0000 0.40940  0.92550  0.07910  Biso   1.000  C
  C98      1.0000 0.59060  0.42550  0.42090  Biso   1.000  C
  C99      1.0000 0.59060  0.07450  0.92090  Biso   1.000  C
  C100     1.0000 0.40940  0.57450  0.57910  Biso   1.000  C
  H89      1.0000 0.35580  0.95610  0.05450  Biso   1.000  H
  H90      1.0000 0.64420  0.45610  0.44550  Biso   1.000  H
  H91      1.0000 0.64420  0.04390  0.94550  Biso   1.000  H
  H92      1.0000 0.35580  0.54390  0.55450  Biso   1.000  H
  H93      1.0000 0.50780  0.94040  0.09370  Biso   1.000  H
  H94      1.0000 0.49220  0.44040  0.40630  Biso   1.000  H
  H95      1.0000 0.49220  0.05960  0.90630  Biso   1.000  H
  H96      1.0000 0.50780  0.55960  0.59370  Biso   1.000  H
  H97      1.0000 0.35440  0.91570  0.11360  Biso   1.000  H
  H98      1.0000 0.64560  0.41570  0.38640  Biso   1.000  H
  H99      1.0000 0.64560  0.08430  0.88640  Biso   1.000  H
  H100     1.0000 0.35440  0.58430  0.61360  Biso   1.000  H
  O29      1.0000 0.32180  0.61100  0.87270  Biso   1.000  O
  O30      1.0000 0.67820  0.11100  0.62730  Biso   1.000  O
  O31      1.0000 0.67820  0.38900  0.12730  Biso   1.000  O
  O32      1.0000 0.32180  0.88900  0.37270  Biso   1.000  O
  C101     1.0000 0.21280  0.57510  0.86590  Biso   1.000  C
  C102     1.0000 0.78720  0.07510  0.63410  Biso   1.000  C
  C103     1.0000 0.78720  0.42490  0.13410  Biso   1.000  C
  C104     1.0000 0.21280  0.92490  0.36590  Biso   1.000  C
  H101     1.0000 0.12390  0.59110  0.84660  Biso   1.000  H
  H102     1.0000 0.87610  0.09110  0.65340  Biso   1.000  H
  H103     1.0000 0.87610  0.40890  0.15340  Biso   1.000  H
  H104     1.0000 0.12390  0.90890  0.34660  Biso   1.000  H
  N37      1.0000 0.20630  0.51870  0.88200  Biso   1.000  N
  N38      1.0000 0.79370  0.01870  0.61800  Biso   1.000  N
  N39      1.0000 0.79370  0.48130  0.11800  Biso   1.000  N
  N40      1.0000 0.20630  0.98130  0.38200  Biso   1.000  N
  C105     1.0000 0.06950  0.48300  0.87190  Biso   1.000  C
  C106     1.0000 0.93050  0.98300  0.62810  Biso   1.000  C
  C107     1.0000 0.93050  0.51700  0.12810  Biso   1.000  C
  C108     1.0000 0.06950  0.01700  0.37190  Biso   1.000  C
  H105     1.0000 0.99010  0.50770  0.85210  Biso   1.000  H
  H106     1.0000 0.00990  0.00770  0.64790  Biso   1.000  H
  H107     1.0000 0.00990  0.49230  0.14790  Biso   1.000  H
  H108     1.0000 0.99010  0.99230  0.35210  Biso   1.000  H
  H109     1.0000 0.04060  0.46880  0.91060  Biso   1.000  H
  H110     1.0000 0.95940  0.96880  0.58940  Biso   1.000  H
  H111     1.0000 0.95940  0.53120  0.08940  Biso   1.000  H
  H112     1.0000 0.04060  0.03120  0.41060  Biso   1.000  H
  H113     1.0000 0.08720  0.44890  0.84610  Biso   1.000  H
  H114     1.0000 0.91280  0.94890  0.65390  Biso   1.000  H
  H115     1.0000 0.91280  0.55110  0.15390  Biso   1.000  H
  H116     1.0000 0.08720  0.05110  0.34610  Biso   1.000  H
  C109     1.0000 0.33390  0.48830  0.91050  Biso   1.000  C
  C110     1.0000 0.66610  0.98830  0.58950  Biso   1.000  C
  C111     1.0000 0.66610  0.51170  0.08950  Biso   1.000  C
  C112     1.0000 0.33390  0.01170  0.41050  Biso   1.000  C
  H117     1.0000 0.41840  0.51560  0.91440  Biso   1.000  H
  H118     1.0000 0.58160  0.01560  0.58560  Biso   1.000  H
  H119     1.0000 0.58160  0.48440  0.08560  Biso   1.000  H
  H120     1.0000 0.41840  0.98440  0.41440  Biso   1.000  H
  H121     1.0000 0.35720  0.45400  0.88590  Biso   1.000  H
  H122     1.0000 0.64280  0.95400  0.61410  Biso   1.000  H
  H123     1.0000 0.64280  0.54600  0.11410  Biso   1.000  H
  H124     1.0000 0.35720  0.04600  0.38590  Biso   1.000  H
  H125     1.0000 0.31290  0.47460  0.95050  Biso   1.000  H
  H126     1.0000 0.68710  0.97460  0.54950  Biso   1.000  H
  H127     1.0000 0.68710  0.52540  0.04950  Biso   1.000  H
  H128     1.0000 0.31290  0.02540  0.45050  Biso   1.000  H
  O33      1.0000 0.47680  0.77140  0.04610  Biso   1.000  O
  O34      1.0000 0.52320  0.27140  0.45390  Biso   1.000  O
  O35      1.0000 0.52320  0.22860  0.95390  Biso   1.000  O
  O36      1.0000 0.47680  0.72860  0.54610  Biso   1.000  O
  O37      1.0000 0.88610  0.59150  0.96740  Biso   1.000  O
  O38      1.0000 0.11390  0.09150  0.53260  Biso   1.000  O
  O39      1.0000 0.11390  0.40850  0.03260  Biso   1.000  O
  O40      1.0000 0.88610  0.90850  0.46740  Biso   1.000  O
  C113     1.0000 0.95250  0.64110  0.96740  Biso   1.000  C
  C114     1.0000 0.04750  0.14110  0.53260  Biso   1.000  C
  C115     1.0000 0.04750  0.35890  0.03260  Biso   1.000  C
  C116     1.0000 0.95250  0.85890  0.46740  Biso   1.000  C
  H129     1.0000 0.89850  0.67420  0.95030  Biso   1.000  H
  H130     1.0000 0.10150  0.17420  0.54970  Biso   1.000  H
  H131     1.0000 0.10150  0.32580  0.04970  Biso   1.000  H
  H132     1.0000 0.89850  0.82580  0.45030  Biso   1.000  H
  N41      1.0000 0.09310  0.65070  0.98980  Biso   1.000  N
  N42      1.0000 0.90690  0.15070  0.51020  Biso   1.000  N
  N43      1.0000 0.90690  0.34930  0.01020  Biso   1.000  N
  N44      1.0000 0.09310  0.84930  0.48980  Biso   1.000  N
  C117     1.0000 0.16130  0.71420  0.98760  Biso   1.000  C
  C118     1.0000 0.83870  0.21420  0.51240  Biso   1.000  C
  C119     1.0000 0.83870  0.28580  0.01240  Biso   1.000  C
  C120     1.0000 0.16130  0.78580  0.48760  Biso   1.000  C
  H133     1.0000 0.08830  0.74150  0.96730  Biso   1.000  H
  H134     1.0000 0.91170  0.24150  0.53270  Biso   1.000  H
  H135     1.0000 0.91170  0.25850  0.03270  Biso   1.000  H
  H136     1.0000 0.08830  0.75850  0.46730  Biso   1.000  H
  H137     1.0000 0.24920  0.71290  0.96530  Biso   1.000  H
  H138     1.0000 0.75080  0.21290  0.53470  Biso   1.000  H
  H139     1.0000 0.75080  0.28710  0.03470  Biso   1.000  H
  H140     1.0000 0.24920  0.78710  0.46530  Biso   1.000  H
  H141     1.0000 0.18930  0.72830  0.02870  Biso   1.000  H
  H142     1.0000 0.81070  0.22830  0.47130  Biso   1.000  H
  H143     1.0000 0.81070  0.27170  0.97130  Biso   1.000  H
  H144     1.0000 0.18930  0.77170  0.52870  Biso   1.000  H
  C121     1.0000 0.18720  0.60620  0.01840  Biso   1.000  C
  C122     1.0000 0.81280  0.10620  0.48160  Biso   1.000  C
  C123     1.0000 0.81280  0.39380  0.98160  Biso   1.000  C
  C124     1.0000 0.18720  0.89380  0.51840  Biso   1.000  C
  H145     1.0000 0.13440  0.56810  0.01750  Biso   1.000  H
  H146     1.0000 0.86560  0.06810  0.48250  Biso   1.000  H
  H147     1.0000 0.86560  0.43190  0.98250  Biso   1.000  H
  H148     1.0000 0.13440  0.93190  0.51750  Biso   1.000  H
  H149     1.0000 0.21560  0.61770  0.06030  Biso   1.000  H
  H150     1.0000 0.78440  0.11770  0.43970  Biso   1.000  H
  H151     1.0000 0.78440  0.38230  0.93970  Biso   1.000  H
  H152     1.0000 0.21560  0.88230  0.56030  Biso   1.000  H
  H153     1.0000 0.27610  0.60210  0.99710  Biso   1.000  H
  H154     1.0000 0.72390  0.10210  0.50290  Biso   1.000  H
  H155     1.0000 0.72390  0.39790  0.00290  Biso   1.000  H
  H156     1.0000 0.27610  0.89790  0.49710  Biso   1.000  H
  O41      1.0000 0.23530  0.89790  0.68020  Biso   1.000  O
  O42      1.0000 0.76470  0.39790  0.81980  Biso   1.000  O
  O43      1.0000 0.76470  0.10210  0.31980  Biso   1.000  O
  O44      1.0000 0.23530  0.60210  0.18020  Biso   1.000  O
  H157     1.0000 0.19300  0.91000  0.71000  Biso   1.000  H
  H158     1.0000 0.80700  0.41000  0.79000  Biso   1.000  H
  H159     1.0000 0.80700  0.09000  0.29000  Biso   1.000  H
  H160     1.0000 0.19300  0.59000  0.21000  Biso   1.000  H
  C125     1.0000 0.33910  0.94460  0.66980  Biso   1.000  C
  C126     1.0000 0.66090  0.44460  0.83020  Biso   1.000  C
  C127     1.0000 0.66090  0.05540  0.33020  Biso   1.000  C
  C128     1.0000 0.33910  0.55540  0.16980  Biso   1.000  C
  H161     1.0000 0.28960  0.97510  0.64360  Biso   1.000  H
  H162     1.0000 0.71040  0.47510  0.85640  Biso   1.000  H
  H163     1.0000 0.71040  0.02490  0.35640  Biso   1.000  H
  H164     1.0000 0.28960  0.52490  0.14360  Biso   1.000  H
  H165     1.0000 0.42210  0.92780  0.65030  Biso   1.000  H
  H166     1.0000 0.57790  0.42780  0.84970  Biso   1.000  H
  H167     1.0000 0.57790  0.07220  0.34970  Biso   1.000  H
  H168     1.0000 0.42210  0.57220  0.15030  Biso   1.000  H
  H169     1.0000 0.37610  0.96260  0.70830  Biso   1.000  H
  H170     1.0000 0.62390  0.46260  0.79170  Biso   1.000  H
  H171     1.0000 0.62390  0.03740  0.29170  Biso   1.000  H
  H172     1.0000 0.37610  0.53740  0.20830  Biso   1.000  H
  O45      1.0000 0.41140  0.26000  0.07590  Biso   1.000  O
  O46      1.0000 0.58860  0.76000  0.42410  Biso   1.000  O
  O47      1.0000 0.58860  0.74000  0.92410  Biso   1.000  O
  O48      1.0000 0.41140  0.24000  0.57590  Biso   1.000  O
  O49      1.0000 0.41980  0.37810  0.04470  Biso   1.000  O
  O50      1.0000 0.58020  0.87810  0.45530  Biso   1.000  O
  O51      1.0000 0.58020  0.62190  0.95530  Biso   1.000  O
  O52      1.0000 0.41980  0.12190  0.54470  Biso   1.000  O
