data_image0
_cell_length_a       9.0336
_cell_length_b       15.9598
_cell_length_c       21.815
_cell_angle_alpha    90
_cell_angle_beta     90
_cell_angle_gamma    90

_symmetry_space_group_name_H-M    "P 1"
_symmetry_int_tables_number       1

loop_
  _symmetry_equiv_pos_as_xyz
  'x, y, z'

loop_
  _atom_site_label
  _atom_site_occupancy
  _atom_site_fract_x
  _atom_site_fract_y
  _atom_site_fract_z
  _atom_site_thermal_displace_type
  _atom_site_B_iso_or_equiv
  _atom_site_type_symbol
  Cu1      1.0000 0.55636  0.61174  0.25988  Biso   1.000  Cu
  Cu2      1.0000 0.94364  0.38826  0.75988  Biso   1.000  Cu
  Cu3      1.0000 0.44364  0.11174  0.24012  Biso   1.000  Cu
  Cu4      1.0000 0.05636  0.88826  0.74012  Biso   1.000  Cu
  Cu5      1.0000 0.54121  0.55240  0.11274  Biso   1.000  Cu
  Cu6      1.0000 0.95879  0.44760  0.61274  Biso   1.000  Cu
  Cu7      1.0000 0.45879  0.05240  0.38726  Biso   1.000  Cu
  Cu8      1.0000 0.04121  0.94760  0.88726  Biso   1.000  Cu
  Cu9      1.0000 0.84099  0.51174  0.19284  Biso   1.000  Cu
  Cu10     1.0000 0.65901  0.48826  0.69284  Biso   1.000  Cu
  Cu11     1.0000 0.15901  0.01174  0.30716  Biso   1.000  Cu
  Cu12     1.0000 0.34099  0.98826  0.80716  Biso   1.000  Cu
  O1       1.0000 0.66600  0.58750  0.18360  Biso   1.000  O
  O2       1.0000 0.83400  0.41250  0.68360  Biso   1.000  O
  O3       1.0000 0.33400  0.08750  0.31640  Biso   1.000  O
  O4       1.0000 0.16600  0.91250  0.81640  Biso   1.000  O
  O5       1.0000 0.66690  0.39700  0.19980  Biso   1.000  O
  O6       1.0000 0.83310  0.60300  0.69980  Biso   1.000  O
  O7       1.0000 0.33310  0.89700  0.30020  Biso   1.000  O
  O8       1.0000 0.16690  0.10300  0.80020  Biso   1.000  O
  H1       1.0000 0.62470  0.39870  0.23310  Biso   1.000  H
  H2       1.0000 0.87530  0.60130  0.73310  Biso   1.000  H
  H3       1.0000 0.37530  0.89870  0.26690  Biso   1.000  H
  H4       1.0000 0.12470  0.10130  0.76690  Biso   1.000  H
  N1       1.0000 0.37320  0.60540  0.15200  Biso   1.000  N
  N2       1.0000 0.12680  0.39460  0.65200  Biso   1.000  N
  N3       1.0000 0.62680  0.10540  0.34800  Biso   1.000  N
  N4       1.0000 0.87320  0.89460  0.84800  Biso   1.000  N
  N5       1.0000 0.37890  0.62880  0.21220  Biso   1.000  N
  N6       1.0000 0.12110  0.37120  0.71220  Biso   1.000  N
  N7       1.0000 0.62110  0.12880  0.28780  Biso   1.000  N
  N8       1.0000 0.87890  0.87120  0.78780  Biso   1.000  N
  C1       1.0000 0.23670  0.62320  0.13200  Biso   1.000  C
  C2       1.0000 0.26330  0.37680  0.63200  Biso   1.000  C
  C3       1.0000 0.76330  0.12320  0.36800  Biso   1.000  C
  C4       1.0000 0.73670  0.87680  0.86800  Biso   1.000  C
  H5       1.0000 0.20240  0.61190  0.09270  Biso   1.000  H
  H6       1.0000 0.29760  0.38810  0.59270  Biso   1.000  H
  H7       1.0000 0.79760  0.11190  0.40730  Biso   1.000  H
  H8       1.0000 0.70240  0.88810  0.90730  Biso   1.000  H
  C5       1.0000 0.15560  0.65970  0.17640  Biso   1.000  C
  C6       1.0000 0.34440  0.34030  0.67640  Biso   1.000  C
  C7       1.0000 0.84440  0.15970  0.32360  Biso   1.000  C
  C8       1.0000 0.65560  0.84030  0.82360  Biso   1.000  C
  H9       1.0000 0.05930  0.68000  0.17370  Biso   1.000  H
  H10      1.0000 0.44070  0.32000  0.67370  Biso   1.000  H
  H11      1.0000 0.94070  0.18000  0.32630  Biso   1.000  H
  H12      1.0000 0.55930  0.82000  0.82630  Biso   1.000  H
  C9       1.0000 0.24710  0.66030  0.22670  Biso   1.000  C
  C10      1.0000 0.25290  0.33970  0.72670  Biso   1.000  C
  C11      1.0000 0.75290  0.16030  0.27330  Biso   1.000  C
  C12      1.0000 0.74710  0.83970  0.77330  Biso   1.000  C
  H13      1.0000 0.22080  0.67990  0.26540  Biso   1.000  H
  H14      1.0000 0.27920  0.32010  0.76540  Biso   1.000  H
  H15      1.0000 0.77920  0.17990  0.23460  Biso   1.000  H
  H16      1.0000 0.72080  0.82010  0.73460  Biso   1.000  H
  N9       1.0000 0.85420  0.54920  0.27770  Biso   1.000  N
  N10      1.0000 0.64580  0.45080  0.77770  Biso   1.000  N
  N11      1.0000 0.14580  0.04920  0.22230  Biso   1.000  N
  N12      1.0000 0.35420  0.95080  0.72230  Biso   1.000  N
  N13      1.0000 0.73710  0.58790  0.30440  Biso   1.000  N
  N14      1.0000 0.76290  0.41210  0.80440  Biso   1.000  N
  N15      1.0000 0.26290  0.08790  0.19560  Biso   1.000  N
  N16      1.0000 0.23710  0.91210  0.69560  Biso   1.000  N
  C13      1.0000 0.96230  0.54340  0.31880  Biso   1.000  C
  C14      1.0000 0.53770  0.45660  0.81880  Biso   1.000  C
  C15      1.0000 0.03770  0.04340  0.18120  Biso   1.000  C
  C16      1.0000 0.46230  0.95660  0.68120  Biso   1.000  C
  H17      1.0000 0.05510  0.51990  0.31220  Biso   1.000  H
  H18      1.0000 0.44490  0.48010  0.81220  Biso   1.000  H
  H19      1.0000 0.94490  0.01990  0.18780  Biso   1.000  H
  H20      1.0000 0.55510  0.98010  0.68780  Biso   1.000  H
  C17      1.0000 0.91260  0.57860  0.37340  Biso   1.000  C
  C18      1.0000 0.58740  0.42140  0.87340  Biso   1.000  C
  C19      1.0000 0.08740  0.07860  0.12660  Biso   1.000  C
  C20      1.0000 0.41260  0.92140  0.62660  Biso   1.000  C
  H21      1.0000 0.96470  0.58300  0.41010  Biso   1.000  H
  H22      1.0000 0.53530  0.41700  0.91010  Biso   1.000  H
  H23      1.0000 0.03530  0.08300  0.08990  Biso   1.000  H
  H24      1.0000 0.46470  0.91700  0.58990  Biso   1.000  H
  C21      1.0000 0.77480  0.60470  0.36230  Biso   1.000  C
  C22      1.0000 0.72520  0.39530  0.86230  Biso   1.000  C
  C23      1.0000 0.22520  0.10470  0.13770  Biso   1.000  C
  C24      1.0000 0.27480  0.89530  0.63770  Biso   1.000  C
  H25      1.0000 0.71380  0.63090  0.39080  Biso   1.000  H
  H26      1.0000 0.78620  0.36910  0.89080  Biso   1.000  H
  H27      1.0000 0.28620  0.13090  0.10920  Biso   1.000  H
  H28      1.0000 0.21380  0.86910  0.60920  Biso   1.000  H
  N17      1.0000 0.72280  0.52310  0.07050  Biso   1.000  N
  N18      1.0000 0.77720  0.47690  0.57050  Biso   1.000  N
  N19      1.0000 0.27720  0.02310  0.42950  Biso   1.000  N
  N20      1.0000 0.22280  0.97690  0.92950  Biso   1.000  N
  N21      1.0000 0.84860  0.50500  0.10270  Biso   1.000  N
  N22      1.0000 0.65140  0.49500  0.60270  Biso   1.000  N
  N23      1.0000 0.15140  0.00500  0.39730  Biso   1.000  N
  N24      1.0000 0.34860  0.99500  0.89730  Biso   1.000  N
  C25      1.0000 0.75670  0.51620  0.01030  Biso   1.000  C
  C26      1.0000 0.74330  0.48380  0.51030  Biso   1.000  C
  C27      1.0000 0.24330  0.01620  0.48970  Biso   1.000  C
  C28      1.0000 0.25670  0.98380  0.98970  Biso   1.000  C
  H29      1.0000 0.69120  0.52490  0.97800  Biso   1.000  H
  H30      1.0000 0.80880  0.47510  0.47800  Biso   1.000  H
  H31      1.0000 0.30880  0.02490  0.52200  Biso   1.000  H
  H32      1.0000 0.19120  0.97510  0.02200  Biso   1.000  H
  C29      1.0000 0.90090  0.49440  0.00430  Biso   1.000  C
  C30      1.0000 0.59910  0.50560  0.50430  Biso   1.000  C
  C31      1.0000 0.09910  0.99440  0.49570  Biso   1.000  C
  C32      1.0000 0.40090  0.00560  0.99570  Biso   1.000  C
  H33      1.0000 0.95260  0.48620  0.96800  Biso   1.000  H
  H34      1.0000 0.54740  0.51380  0.46800  Biso   1.000  H
  H35      1.0000 0.04740  0.98620  0.53200  Biso   1.000  H
  H36      1.0000 0.45260  0.01380  0.03200  Biso   1.000  H
  C33      1.0000 0.95490  0.48700  0.06260  Biso   1.000  C
  C34      1.0000 0.54510  0.51300  0.56260  Biso   1.000  C
  C35      1.0000 0.04510  0.98700  0.43740  Biso   1.000  C
  C36      1.0000 0.45490  0.01300  0.93740  Biso   1.000  C
  H37      1.0000 0.05120  0.47180  0.07260  Biso   1.000  H
  H38      1.0000 0.44880  0.52820  0.57260  Biso   1.000  H
  H39      1.0000 0.94880  0.97180  0.42740  Biso   1.000  H
  H40      1.0000 0.55120  0.02820  0.92740  Biso   1.000  H
  N25      1.0000 0.00180  0.42490  0.20190  Biso   1.000  N
  N26      1.0000 0.49820  0.57510  0.70190  Biso   1.000  N
  N27      1.0000 0.99820  0.92490  0.29810  Biso   1.000  N
  N28      1.0000 0.50180  0.07510  0.79810  Biso   1.000  N
  N29      1.0000 0.95880  0.34540  0.20190  Biso   1.000  N
  N30      1.0000 0.54120  0.65460  0.70190  Biso   1.000  N
  N31      1.0000 0.04120  0.84540  0.29810  Biso   1.000  N
  N32      1.0000 0.45880  0.15460  0.79810  Biso   1.000  N
  H41      1.0000 0.86760  0.33000  0.20180  Biso   1.000  H
  H42      1.0000 0.63240  0.67000  0.70180  Biso   1.000  H
  H43      1.0000 0.13240  0.83000  0.29820  Biso   1.000  H
  H44      1.0000 0.36760  0.17000  0.79820  Biso   1.000  H
  C37      1.0000 0.14910  0.42120  0.20480  Biso   1.000  C
  C38      1.0000 0.35090  0.57880  0.70480  Biso   1.000  C
  C39      1.0000 0.85090  0.92120  0.29520  Biso   1.000  C
  C40      1.0000 0.64910  0.07880  0.79520  Biso   1.000  C
  H45      1.0000 0.21150  0.46750  0.20650  Biso   1.000  H
  H46      1.0000 0.28850  0.53250  0.70650  Biso   1.000  H
  H47      1.0000 0.78850  0.96750  0.29350  Biso   1.000  H
  H48      1.0000 0.71150  0.03250  0.79350  Biso   1.000  H
  C41      1.0000 0.19430  0.34090  0.20510  Biso   1.000  C
  C42      1.0000 0.30570  0.65910  0.70510  Biso   1.000  C
  C43      1.0000 0.80570  0.84090  0.29490  Biso   1.000  C
  C44      1.0000 0.69430  0.15910  0.79490  Biso   1.000  C
  H49      1.0000 0.29180  0.32240  0.20680  Biso   1.000  H
  H50      1.0000 0.20820  0.67760  0.70680  Biso   1.000  H
  H51      1.0000 0.70820  0.82240  0.29320  Biso   1.000  H
  H52      1.0000 0.79180  0.17760  0.79320  Biso   1.000  H
  C45      1.0000 0.07200  0.29200  0.20220  Biso   1.000  C
  C46      1.0000 0.42800  0.70800  0.70220  Biso   1.000  C
  C47      1.0000 0.92800  0.79200  0.29780  Biso   1.000  C
  C48      1.0000 0.57200  0.20800  0.79780  Biso   1.000  C
  H53      1.0000 0.06830  0.23380  0.20080  Biso   1.000  H
  H54      1.0000 0.43170  0.76620  0.70080  Biso   1.000  H
  H55      1.0000 0.93170  0.73380  0.29920  Biso   1.000  H
  H56      1.0000 0.56830  0.26620  0.79920  Biso   1.000  H
  O9       1.0000 0.08110  0.49410  0.54650  Biso   1.000  O
  O10      1.0000 0.41890  0.50590  0.04650  Biso   1.000  O
  O11      1.0000 0.91890  0.99410  0.95350  Biso   1.000  O
  O12      1.0000 0.58110  0.00590  0.45350  Biso   1.000  O
  O13      1.0000 0.03970  0.60370  0.60670  Biso   1.000  O
  O14      1.0000 0.46030  0.39630  0.10670  Biso   1.000  O
  O15      1.0000 0.96030  0.10370  0.89330  Biso   1.000  O
  O16      1.0000 0.53970  0.89630  0.39330  Biso   1.000  O
  O17      1.0000 0.46090  0.65450  0.33230  Biso   1.000  O
  O18      1.0000 0.03910  0.34550  0.83230  Biso   1.000  O
  O19      1.0000 0.53910  0.15450  0.16770  Biso   1.000  O
  O20      1.0000 0.96090  0.84550  0.66770  Biso   1.000  O
  O21      1.0000 0.37430  0.52840  0.35690  Biso   1.000  O
  O22      1.0000 0.12570  0.47160  0.85690  Biso   1.000  O
  O23      1.0000 0.62570  0.02840  0.14310  Biso   1.000  O
  O24      1.0000 0.87430  0.97160  0.64310  Biso   1.000  O
  C49      1.0000 0.09060  0.57230  0.55950  Biso   1.000  C
  C50      1.0000 0.40940  0.42770  0.05950  Biso   1.000  C
  C51      1.0000 0.90940  0.07230  0.94050  Biso   1.000  C
  C52      1.0000 0.59060  0.92770  0.44050  Biso   1.000  C
  C53      1.0000 0.16950  0.62680  0.51420  Biso   1.000  C
  C54      1.0000 0.33050  0.37320  0.01420  Biso   1.000  C
  C55      1.0000 0.83050  0.12680  0.98580  Biso   1.000  C
  C56      1.0000 0.66950  0.87320  0.48580  Biso   1.000  C
  C57      1.0000 0.16990  0.71190  0.52180  Biso   1.000  C
  C58      1.0000 0.33010  0.28810  0.02180  Biso   1.000  C
  C59      1.0000 0.83010  0.21190  0.97820  Biso   1.000  C
  C60      1.0000 0.66990  0.78810  0.47820  Biso   1.000  C
  H57      1.0000 0.12400  0.73540  0.55590  Biso   1.000  H
  H58      1.0000 0.37600  0.26460  0.05590  Biso   1.000  H
  H59      1.0000 0.87600  0.23540  0.94410  Biso   1.000  H
  H60      1.0000 0.62400  0.76460  0.44410  Biso   1.000  H
  C61      1.0000 0.23910  0.76440  0.47860  Biso   1.000  C
  C62      1.0000 0.26090  0.23560  0.97860  Biso   1.000  C
  C63      1.0000 0.76090  0.26440  0.02140  Biso   1.000  C
  C64      1.0000 0.73910  0.73560  0.52140  Biso   1.000  C
  H61      1.0000 0.23810  0.82220  0.48370  Biso   1.000  H
  H62      1.0000 0.26190  0.17780  0.98370  Biso   1.000  H
  H63      1.0000 0.76190  0.32220  0.01630  Biso   1.000  H
  H64      1.0000 0.73810  0.67780  0.51630  Biso   1.000  H
  C65      1.0000 0.30810  0.72900  0.42860  Biso   1.000  C
  C66      1.0000 0.19190  0.27100  0.92860  Biso   1.000  C
  C67      1.0000 0.69190  0.22900  0.07140  Biso   1.000  C
  C68      1.0000 0.80810  0.77100  0.57140  Biso   1.000  C
  H65      1.0000 0.35380  0.76330  0.39980  Biso   1.000  H
  H66      1.0000 0.14620  0.23670  0.89980  Biso   1.000  H
  H67      1.0000 0.64620  0.26330  0.10020  Biso   1.000  H
  H68      1.0000 0.85380  0.73670  0.60020  Biso   1.000  H
  C69      1.0000 0.31010  0.64270  0.42100  Biso   1.000  C
  C70      1.0000 0.18990  0.35730  0.92100  Biso   1.000  C
  C71      1.0000 0.68990  0.14270  0.07900  Biso   1.000  C
  C72      1.0000 0.81010  0.85730  0.57900  Biso   1.000  C
  C73      1.0000 0.23980  0.59150  0.46330  Biso   1.000  C
  C74      1.0000 0.26020  0.40850  0.96330  Biso   1.000  C
  C75      1.0000 0.76020  0.09150  0.03670  Biso   1.000  C
  C76      1.0000 0.73980  0.90850  0.53670  Biso   1.000  C
  H69      1.0000 0.23930  0.53380  0.45780  Biso   1.000  H
  H70      1.0000 0.26070  0.46620  0.95780  Biso   1.000  H
  H71      1.0000 0.76070  0.03380  0.04220  Biso   1.000  H
  H72      1.0000 0.73930  0.96620  0.54220  Biso   1.000  H
  C77      1.0000 0.38590  0.60310  0.36570  Biso   1.000  C
  C78      1.0000 0.11410  0.39690  0.86570  Biso   1.000  C
  C79      1.0000 0.61410  0.10310  0.13430  Biso   1.000  C
  C80      1.0000 0.88590  0.89690  0.63430  Biso   1.000  C
  C81      1.0000 0.58400  0.35740  0.35520  Biso   1.000  C
  C82      1.0000 0.91600  0.64260  0.85520  Biso   1.000  C
  C83      1.0000 0.41600  0.85740  0.14480  Biso   1.000  C
  C84      1.0000 0.08400  0.14260  0.64480  Biso   1.000  C
  O25      1.0000 0.52330  0.39930  0.30880  Biso   1.000  O
  O26      1.0000 0.97670  0.60070  0.80880  Biso   1.000  O
  O27      1.0000 0.47670  0.89930  0.19120  Biso   1.000  O
  O28      1.0000 0.02330  0.10070  0.69120  Biso   1.000  O
  O29      1.0000 0.76830  0.72410  0.13370  Biso   1.000  O
  O30      1.0000 0.73170  0.27590  0.63370  Biso   1.000  O
  O31      1.0000 0.23170  0.22410  0.36630  Biso   1.000  O
  O32      1.0000 0.26830  0.77590  0.86630  Biso   1.000  O
  C85      1.0000 0.84800  0.72210  0.08780  Biso   1.000  C
  C86      1.0000 0.65200  0.27790  0.58780  Biso   1.000  C
  C87      1.0000 0.15200  0.22210  0.41220  Biso   1.000  C
  C88      1.0000 0.34800  0.77790  0.91220  Biso   1.000  C
  H73      1.0000 0.85950  0.67020  0.06890  Biso   1.000  H
  H74      1.0000 0.64050  0.32980  0.56890  Biso   1.000  H
  H75      1.0000 0.14050  0.17020  0.43110  Biso   1.000  H
  H76      1.0000 0.35950  0.82980  0.93110  Biso   1.000  H
  N33      1.0000 0.91850  0.78580  0.06270  Biso   1.000  N
  N34      1.0000 0.58150  0.21420  0.56270  Biso   1.000  N
  N35      1.0000 0.08150  0.28580  0.43730  Biso   1.000  N
  N36      1.0000 0.41850  0.71420  0.93730  Biso   1.000  N
  C89      1.0000 0.91800  0.86490  0.09610  Biso   1.000  C
  C90      1.0000 0.58200  0.13510  0.59610  Biso   1.000  C
  C91      1.0000 0.08200  0.36490  0.40390  Biso   1.000  C
  C92      1.0000 0.41800  0.63510  0.90390  Biso   1.000  C
  H77      1.0000 0.84640  0.86220  0.12870  Biso   1.000  H
  H78      1.0000 0.65360  0.13780  0.62870  Biso   1.000  H
  H79      1.0000 0.15360  0.36220  0.37130  Biso   1.000  H
  H80      1.0000 0.34640  0.63780  0.87130  Biso   1.000  H
  H81      1.0000 0.89190  0.90960  0.06860  Biso   1.000  H
  H82      1.0000 0.60810  0.09040  0.56860  Biso   1.000  H
  H83      1.0000 0.10810  0.40960  0.43140  Biso   1.000  H
  H84      1.0000 0.39190  0.59040  0.93140  Biso   1.000  H
  H85      1.0000 0.01420  0.87510  0.11290  Biso   1.000  H
  H86      1.0000 0.48580  0.12490  0.61290  Biso   1.000  H
  H87      1.0000 0.98580  0.37510  0.38710  Biso   1.000  H
  H88      1.0000 0.51420  0.62490  0.88710  Biso   1.000  H
  C93      1.0000 0.02100  0.77610  0.00970  Biso   1.000  C
  C94      1.0000 0.47900  0.22390  0.50970  Biso   1.000  C
  C95      1.0000 0.97900  0.27610  0.49030  Biso   1.000  C
  C96      1.0000 0.52100  0.72390  0.99030  Biso   1.000  C
  H89      1.0000 0.00840  0.72140  0.99210  Biso   1.000  H
  H90      1.0000 0.49160  0.27860  0.49210  Biso   1.000  H
  H91      1.0000 0.99160  0.22140  0.50790  Biso   1.000  H
  H92      1.0000 0.50840  0.77860  0.00790  Biso   1.000  H
  H93      1.0000 0.12100  0.78280  0.02330  Biso   1.000  H
  H94      1.0000 0.37900  0.21720  0.52330  Biso   1.000  H
  H95      1.0000 0.87900  0.28280  0.47670  Biso   1.000  H
  H96      1.0000 0.62100  0.71720  0.97670  Biso   1.000  H
  H97      1.0000 0.99840  0.81790  0.97940  Biso   1.000  H
  H98      1.0000 0.50160  0.18210  0.47940  Biso   1.000  H
  H99      1.0000 0.00160  0.31790  0.52060  Biso   1.000  H
  H100     1.0000 0.49840  0.68210  0.02060  Biso   1.000  H
