data_image0
_cell_length_a       8.875
_cell_length_b       17.091
_cell_length_c       23.053
_cell_angle_alpha    90
_cell_angle_beta     96.624
_cell_angle_gamma    90

_symmetry_space_group_name_H-M    "P 1"
_symmetry_int_tables_number       1

loop_
  _symmetry_equiv_pos_as_xyz
  'x, y, z'

loop_
  _atom_site_label
  _atom_site_occupancy
  _atom_site_fract_x
  _atom_site_fract_y
  _atom_site_fract_z
  _atom_site_thermal_displace_type
  _atom_site_B_iso_or_equiv
  _atom_site_type_symbol
  Cu1      1.0000 0.78290  0.41328  0.52320  Biso   1.000  Cu
  Cu2      1.0000 0.28290  0.58672  0.02320  Biso   1.000  Cu
  Cu3      1.0000 0.08680  0.52155  0.52234  Biso   1.000  Cu
  Cu4      1.0000 0.58680  0.47845  0.02234  Biso   1.000  Cu
  Cu5      1.0000 0.82810  0.57063  0.60889  Biso   1.000  Cu
  Cu6      1.0000 0.32810  0.42937  0.10889  Biso   1.000  Cu
  Cu7      1.0000 0.18240  0.91270  0.37283  Biso   1.000  Cu
  Cu8      1.0000 0.68240  0.08730  0.87283  Biso   1.000  Cu
  Cu9      1.0000 0.13190  0.07225  0.28848  Biso   1.000  Cu
  Cu10     1.0000 0.63190  0.92775  0.78848  Biso   1.000  Cu
  Cu11     1.0000 0.88040  0.02292  0.37686  Biso   1.000  Cu
  Cu12     1.0000 0.38040  0.97708  0.87686  Biso   1.000  Cu
  O1       1.0000 0.92670  0.48360  0.56990  Biso   1.000  O
  O2       1.0000 0.42670  0.51640  0.06990  Biso   1.000  O
  O3       1.0000 0.03050  0.98240  0.32550  Biso   1.000  O
  O4       1.0000 0.53050  0.01760  0.82550  Biso   1.000  O
  N1       1.0000 0.33820  0.94830  0.32810  Biso   1.000  N
  N2       1.0000 0.83820  0.05170  0.82810  Biso   1.000  N
  N3       1.0000 0.31460  0.00870  0.28920  Biso   1.000  N
  N4       1.0000 0.81460  0.99130  0.78920  Biso   1.000  N
  C1       1.0000 0.47700  0.92380  0.32420  Biso   1.000  C
  C2       1.0000 0.97700  0.07620  0.82420  Biso   1.000  C
  H1       1.0000 0.52190  0.88020  0.34520  Biso   1.000  H
  H2       1.0000 0.02190  0.11980  0.84520  Biso   1.000  H
  C3       1.0000 0.55000  0.96790  0.28650  Biso   1.000  C
  C4       1.0000 0.05000  0.03210  0.78650  Biso   1.000  C
  H3       1.0000 0.65030  0.96300  0.27680  Biso   1.000  H
  H4       1.0000 0.15030  0.03700  0.77680  Biso   1.000  H
  C5       1.0000 0.43800  0.02220  0.26570  Biso   1.000  C
  C6       1.0000 0.93800  0.97780  0.76570  Biso   1.000  C
  H5       1.0000 0.45100  0.06290  0.23860  Biso   1.000  H
  H6       1.0000 0.95100  0.93710  0.73860  Biso   1.000  H
  N5       1.0000 0.94500  0.12900  0.28600  Biso   1.000  N
  N6       1.0000 0.44500  0.87100  0.78600  Biso   1.000  N
  N7       1.0000 0.84620  0.11200  0.32330  Biso   1.000  N
  N8       1.0000 0.34620  0.88800  0.82330  Biso   1.000  N
  C7       1.0000 0.89300  0.19420  0.25700  Biso   1.000  C
  C8       1.0000 0.39300  0.80580  0.75700  Biso   1.000  C
  H7       1.0000 0.94390  0.22000  0.22840  Biso   1.000  H
  H8       1.0000 0.44390  0.78000  0.72840  Biso   1.000  H
  C9       1.0000 0.75300  0.21920  0.27440  Biso   1.000  C
  C10      1.0000 0.25300  0.78080  0.77440  Biso   1.000  C
  H9       1.0000 0.69300  0.26310  0.26120  Biso   1.000  H
  H10      1.0000 0.19300  0.73690  0.76120  Biso   1.000  H
  C11      1.0000 0.72500  0.16420  0.31520  Biso   1.000  C
  C12      1.0000 0.22500  0.83580  0.81520  Biso   1.000  C
  H11      1.0000 0.63700  0.16210  0.33490  Biso   1.000  H
  H12      1.0000 0.13700  0.83790  0.83490  Biso   1.000  H
  N9       1.0000 0.89030  0.92320  0.41750  Biso   1.000  N
  N10      1.0000 0.39030  0.07680  0.91750  Biso   1.000  N
  N11      1.0000 0.02020  0.87920  0.41620  Biso   1.000  N
  N12      1.0000 0.52020  0.12080  0.91620  Biso   1.000  N
  C13      1.0000 0.79300  0.88670  0.44870  Biso   1.000  C
  C14      1.0000 0.29300  0.11330  0.94870  Biso   1.000  C
  H13      1.0000 0.69620  0.90550  0.45560  Biso   1.000  H
  H14      1.0000 0.19620  0.09450  0.95560  Biso   1.000  H
  C15      1.0000 0.85900  0.81570  0.46970  Biso   1.000  C
  C16      1.0000 0.35900  0.18430  0.96970  Biso   1.000  C
  H15      1.0000 0.81700  0.77650  0.49230  Biso   1.000  H
  H16      1.0000 0.31700  0.22350  0.99230  Biso   1.000  H
  C17      1.0000 0.00430  0.81740  0.44840  Biso   1.000  C
  C18      1.0000 0.50430  0.18260  0.94840  Biso   1.000  C
  H17      1.0000 0.08000  0.77840  0.45670  Biso   1.000  H
  H18      1.0000 0.58000  0.22160  0.95670  Biso   1.000  H
  N13      1.0000 0.74510  0.06770  0.43410  Biso   1.000  N
  N14      1.0000 0.24510  0.93230  0.93410  Biso   1.000  N
  N15      1.0000 0.60400  0.07010  0.43840  Biso   1.000  N
  N16      1.0000 0.10400  0.92990  0.93840  Biso   1.000  N
  H19      1.0000 0.53470  0.04550  0.41460  Biso   1.000  H
  H20      1.0000 0.03470  0.95450  0.91460  Biso   1.000  H
  C19      1.0000 0.82000  0.10950  0.48040  Biso   1.000  C
  C20      1.0000 0.32000  0.89050  0.98040  Biso   1.000  C
  H21      1.0000 0.92710  0.11560  0.48880  Biso   1.000  H
  H22      1.0000 0.42710  0.88440  0.98880  Biso   1.000  H
  C21      1.0000 0.71300  0.13990  0.51130  Biso   1.000  C
  C22      1.0000 0.21300  0.86010  0.01130  Biso   1.000  C
  H23      1.0000 0.73380  0.17180  0.54500  Biso   1.000  H
  H24      1.0000 0.23380  0.82820  0.04500  Biso   1.000  H
  C23      1.0000 0.56900  0.11790  0.48690  Biso   1.000  C
  C24      1.0000 0.06900  0.88210  0.98690  Biso   1.000  C
  H25      1.0000 0.47370  0.13080  0.49890  Biso   1.000  H
  H26      1.0000 0.97370  0.86920  0.99890  Biso   1.000  H
  N17      1.0000 0.12520  0.60930  0.57450  Biso   1.000  N
  N18      1.0000 0.62520  0.39070  0.07450  Biso   1.000  N
  N19      1.0000 0.01460  0.63080  0.61040  Biso   1.000  N
  N20      1.0000 0.51460  0.36920  0.11040  Biso   1.000  N
  C25      1.0000 0.23300  0.66150  0.58130  Biso   1.000  C
  C26      1.0000 0.73300  0.33850  0.08130  Biso   1.000  C
  H27      1.0000 0.32060  0.66290  0.56100  Biso   1.000  H
  H28      1.0000 0.82060  0.33710  0.06100  Biso   1.000  H
  C27      1.0000 0.19900  0.71430  0.62330  Biso   1.000  C
  C28      1.0000 0.69900  0.28570  0.12330  Biso   1.000  C
  H29      1.0000 0.26040  0.75700  0.63820  Biso   1.000  H
  H30      1.0000 0.76040  0.24300  0.13820  Biso   1.000  H
  C29      1.0000 0.06300  0.69430  0.63940  Biso   1.000  C
  C30      1.0000 0.56300  0.30570  0.13940  Biso   1.000  C
  H31      1.0000 0.01070  0.72130  0.66700  Biso   1.000  H
  H32      1.0000 0.51070  0.27870  0.16700  Biso   1.000  H
  N21      1.0000 0.64800  0.50810  0.60500  Biso   1.000  N
  N22      1.0000 0.14800  0.49190  0.10500  Biso   1.000  N
  N23      1.0000 0.62820  0.44410  0.57080  Biso   1.000  N
  N24      1.0000 0.12820  0.55590  0.07080  Biso   1.000  N
  C31      1.0000 0.51500  0.51620  0.63040  Biso   1.000  C
  C32      1.0000 0.01500  0.48380  0.13040  Biso   1.000  C
  H33      1.0000 0.49710  0.55510  0.65830  Biso   1.000  H
  H34      1.0000 0.99710  0.44490  0.15830  Biso   1.000  H
  C33      1.0000 0.41250  0.46060  0.60980  Biso   1.000  C
  C34      1.0000 0.91250  0.53940  0.10980  Biso   1.000  C
  H35      1.0000 0.31260  0.45400  0.62010  Biso   1.000  H
  H36      1.0000 0.81260  0.54600  0.12010  Biso   1.000  H
  C35      1.0000 0.48240  0.41600  0.57110  Biso   1.000  C
  C36      1.0000 0.98240  0.58400  0.07110  Biso   1.000  C
  H37      1.0000 0.43830  0.37340  0.54870  Biso   1.000  H
  H38      1.0000 0.93830  0.62660  0.04870  Biso   1.000  H
  N25      1.0000 0.94840  0.37640  0.48340  Biso   1.000  N
  N26      1.0000 0.44840  0.62360  0.98340  Biso   1.000  N
  N27      1.0000 0.07520  0.42120  0.48310  Biso   1.000  N
  N28      1.0000 0.57520  0.57880  0.98310  Biso   1.000  N
  C37      1.0000 0.96500  0.30980  0.45220  Biso   1.000  C
  C38      1.0000 0.46500  0.69020  0.95220  Biso   1.000  C
  H39      1.0000 0.89240  0.26890  0.44560  Biso   1.000  H
  H40      1.0000 0.39240  0.73110  0.94560  Biso   1.000  H
  C39      1.0000 0.10100  0.31200  0.43260  Biso   1.000  C
  C40      1.0000 0.60100  0.68800  0.93260  Biso   1.000  C
  H41      1.0000 0.14350  0.27320  0.40980  Biso   1.000  H
  H42      1.0000 0.64350  0.72680  0.90980  Biso   1.000  H
  C41      1.0000 0.16600  0.37980  0.45140  Biso   1.000  C
  C42      1.0000 0.66600  0.62020  0.95140  Biso   1.000  C
  H43      1.0000 0.26350  0.39650  0.44340  Biso   1.000  H
  H44      1.0000 0.76350  0.60350  0.94340  Biso   1.000  H
  N29      1.0000 0.22370  0.56770  0.46940  Biso   1.000  N
  N30      1.0000 0.72370  0.43230  0.96940  Biso   1.000  N
  N31      1.0000 0.16800  0.61770  0.42970  Biso   1.000  N
  N32      1.0000 0.66800  0.38230  0.92970  Biso   1.000  N
  H45      1.0000 0.07090  0.62890  0.42220  Biso   1.000  H
  H46      1.0000 0.57090  0.37110  0.92220  Biso   1.000  H
  C43      1.0000 0.37500  0.56890  0.46420  Biso   1.000  C
  C44      1.0000 0.87500  0.43110  0.96420  Biso   1.000  C
  H47      1.0000 0.44950  0.53910  0.48760  Biso   1.000  H
  H48      1.0000 0.94950  0.46090  0.98760  Biso   1.000  H
  C45      1.0000 0.40600  0.61860  0.42080  Biso   1.000  C
  C46      1.0000 0.90600  0.38140  0.92080  Biso   1.000  C
  H49      1.0000 0.50140  0.62820  0.40750  Biso   1.000  H
  H50      1.0000 0.00140  0.37180  0.90750  Biso   1.000  H
  C47      1.0000 0.27700  0.65010  0.40160  Biso   1.000  C
  C48      1.0000 0.77700  0.34990  0.90160  Biso   1.000  C
  H51      1.0000 0.26250  0.68950  0.37240  Biso   1.000  H
  H52      1.0000 0.76250  0.31050  0.87240  Biso   1.000  H
  O5       1.0000 0.23860  0.17070  0.26780  Biso   1.000  O
  O6       1.0000 0.73860  0.82930  0.76780  Biso   1.000  O
  O7       1.0000 0.27700  0.16490  0.36410  Biso   1.000  O
  O8       1.0000 0.77700  0.83510  0.86410  Biso   1.000  O
  O9       1.0000 0.63750  0.35960  0.46570  Biso   1.000  O
  O10      1.0000 0.13750  0.64040  0.96570  Biso   1.000  O
  O11      1.0000 0.67090  0.47220  0.42140  Biso   1.000  O
  O12      1.0000 0.17090  0.52780  0.92140  Biso   1.000  O
  N33      1.0000 0.36000  0.45330  0.22450  Biso   1.000  N
  N34      1.0000 0.86000  0.54670  0.72450  Biso   1.000  N
  N35      1.0000 0.36500  0.52220  0.23580  Biso   1.000  N
  N36      1.0000 0.86500  0.47780  0.73580  Biso   1.000  N
  N37      1.0000 0.35900  0.58990  0.24240  Biso   1.000  N
  N38      1.0000 0.85900  0.41010  0.74240  Biso   1.000  N
  C49      1.0000 0.29300  0.19760  0.31700  Biso   1.000  C
  C50      1.0000 0.79300  0.80240  0.81700  Biso   1.000  C
  C51      1.0000 0.36430  0.27770  0.31800  Biso   1.000  C
  C52      1.0000 0.86430  0.72230  0.81800  Biso   1.000  C
  C53      1.0000 0.34200  0.32550  0.26900  Biso   1.000  C
  C54      1.0000 0.84200  0.67450  0.76900  Biso   1.000  C
  H53      1.0000 0.29160  0.30610  0.23330  Biso   1.000  H
  H54      1.0000 0.79160  0.69390  0.73330  Biso   1.000  H
  C55      1.0000 0.39500  0.40390  0.27350  Biso   1.000  C
  C56      1.0000 0.89500  0.59610  0.77350  Biso   1.000  C
  C57      1.0000 0.48500  0.42620  0.32190  Biso   1.000  C
  C58      1.0000 0.98500  0.57380  0.82190  Biso   1.000  C
  H55      1.0000 0.52700  0.47740  0.32320  Biso   1.000  H
  H56      1.0000 0.02700  0.52260  0.82320  Biso   1.000  H
  C59      1.0000 0.51870  0.37890  0.36860  Biso   1.000  C
  C60      1.0000 0.01870  0.62110  0.86860  Biso   1.000  C
  C61      1.0000 0.44990  0.30350  0.36660  Biso   1.000  C
  C62      1.0000 0.94990  0.69650  0.86660  Biso   1.000  C
  H57      1.0000 0.46440  0.27070  0.40000  Biso   1.000  H
  H58      1.0000 0.96440  0.72930  0.90000  Biso   1.000  H
  C63      1.0000 0.61400  0.40470  0.42110  Biso   1.000  C
  C64      1.0000 0.11400  0.59530  0.92110  Biso   1.000  C
  O13      1.0000 0.68610  0.66550  0.53170  Biso   1.000  O
  O14      1.0000 0.18610  0.33450  0.03170  Biso   1.000  O
  O15      1.0000 0.71430  0.66550  0.62900  Biso   1.000  O
  O16      1.0000 0.21430  0.33450  0.12900  Biso   1.000  O
  O17      1.0000 0.33240  0.86180  0.43050  Biso   1.000  O
  O18      1.0000 0.83240  0.13820  0.93050  Biso   1.000  O
  O19      1.0000 0.29700  0.97430  0.47620  Biso   1.000  O
  O20      1.0000 0.79700  0.02570  0.97620  Biso   1.000  O
  N39      1.0000 0.61100  0.94990  0.67440  Biso   1.000  N
  N40      1.0000 0.11100  0.05010  0.17440  Biso   1.000  N
  N41      1.0000 0.59800  0.02380  0.66340  Biso   1.000  N
  N42      1.0000 0.09800  0.97620  0.16340  Biso   1.000  N
  N43      1.0000 0.58400  0.08740  0.65870  Biso   1.000  N
  N44      1.0000 0.08400  0.91260  0.15870  Biso   1.000  N
  C65      1.0000 0.67420  0.69620  0.57960  Biso   1.000  C
  C66      1.0000 0.17420  0.30380  0.07960  Biso   1.000  C
  C67      1.0000 0.60100  0.77620  0.57970  Biso   1.000  C
  C68      1.0000 0.10100  0.22380  0.07970  Biso   1.000  C
  C69      1.0000 0.63180  0.82800  0.62740  Biso   1.000  C
  C70      1.0000 0.13180  0.17200  0.12740  Biso   1.000  C
  H59      1.0000 0.69380  0.81180  0.66160  Biso   1.000  H
  H60      1.0000 0.19380  0.18820  0.16160  Biso   1.000  H
  C71      1.0000 0.57300  0.89990  0.62380  Biso   1.000  C
  C72      1.0000 0.07300  0.10010  0.12380  Biso   1.000  C
  C73      1.0000 0.48800  0.92970  0.57310  Biso   1.000  C
  C74      1.0000 0.98800  0.07030  0.07310  Biso   1.000  C
  H61      1.0000 0.45390  0.98240  0.57050  Biso   1.000  H
  H62      1.0000 0.95390  0.01760  0.07050  Biso   1.000  H
  C75      1.0000 0.45520  0.87560  0.52600  Biso   1.000  C
  C76      1.0000 0.95520  0.12440  0.02600  Biso   1.000  C
  C77      1.0000 0.50800  0.80220  0.52820  Biso   1.000  C
  C78      1.0000 0.00800  0.19780  0.02820  Biso   1.000  C
  H63      1.0000 0.48440  0.76770  0.49610  Biso   1.000  H
  H64      1.0000 0.98440  0.23230  0.99610  Biso   1.000  H
  C79      1.0000 0.35000  0.90900  0.47330  Biso   1.000  C
  C80      1.0000 0.85000  0.09100  0.97330  Biso   1.000  C
  O21      1.0000 0.15210  0.79490  0.31210  Biso   1.000  O
  O22      1.0000 0.65210  0.20510  0.81210  Biso   1.000  O
  C81      1.0000 0.19140  0.79340  0.26200  Biso   1.000  C
  C82      1.0000 0.69140  0.20660  0.76200  Biso   1.000  C
  H65      1.0000 0.26210  0.83130  0.25180  Biso   1.000  H
  H66      1.0000 0.76210  0.16870  0.75180  Biso   1.000  H
  N45      1.0000 0.13820  0.74050  0.22170  Biso   1.000  N
  N46      1.0000 0.63820  0.25950  0.72170  Biso   1.000  N
  C83      1.0000 0.01700  0.68640  0.23110  Biso   1.000  C
  C84      1.0000 0.51700  0.31360  0.73110  Biso   1.000  C
  H67      1.0000 0.98920  0.69310  0.27080  Biso   1.000  H
  H68      1.0000 0.48920  0.30690  0.77080  Biso   1.000  H
  H69      1.0000 0.05060  0.63260  0.22610  Biso   1.000  H
  H70      1.0000 0.55060  0.36740  0.72610  Biso   1.000  H
  H71      1.0000 0.92790  0.69720  0.20280  Biso   1.000  H
  H72      1.0000 0.42790  0.30280  0.70280  Biso   1.000  H
  C85      1.0000 0.19800  0.74100  0.16370  Biso   1.000  C
  C86      1.0000 0.69800  0.25900  0.66370  Biso   1.000  C
  H73      1.0000 0.27840  0.78030  0.16390  Biso   1.000  H
  H74      1.0000 0.77840  0.21970  0.66390  Biso   1.000  H
  H75      1.0000 0.11570  0.75370  0.13310  Biso   1.000  H
  H76      1.0000 0.61570  0.24630  0.63310  Biso   1.000  H
  H77      1.0000 0.23910  0.68930  0.15610  Biso   1.000  H
  H78      1.0000 0.73910  0.31070  0.65610  Biso   1.000  H
  O23      1.0000 0.87450  0.58710  0.46190  Biso   1.000  O
  O24      1.0000 0.37450  0.41290  0.96190  Biso   1.000  O
  O25      1.0000 0.09430  0.08430  0.43580  Biso   1.000  O
  O26      1.0000 0.59430  0.91570  0.93580  Biso   1.000  O
  O27      1.0000 0.21280  0.43560  0.74140  Biso   1.000  O
  O28      1.0000 0.71280  0.56440  0.24140  Biso   1.000  O
  N47      1.0000 0.36790  0.52870  0.77810  Biso   1.000  N
  N48      1.0000 0.86790  0.47130  0.27810  Biso   1.000  N
  C87      1.0000 0.26480  0.50700  0.73960  Biso   1.000  C
  C88      1.0000 0.76480  0.49300  0.23960  Biso   1.000  C
  H79      1.0000 0.22510  0.54190  0.70960  Biso   1.000  H
  H80      1.0000 0.72510  0.45810  0.20960  Biso   1.000  H
  C89      1.0000 0.43500  0.60910  0.77260  Biso   1.000  C
  C90      1.0000 0.93500  0.39090  0.27260  Biso   1.000  C
  H81      1.0000 0.38130  0.63590  0.73870  Biso   1.000  H
  H82      1.0000 0.88130  0.36410  0.23870  Biso   1.000  H
  H83      1.0000 0.54260  0.60430  0.76740  Biso   1.000  H
  H84      1.0000 0.04260  0.39570  0.26740  Biso   1.000  H
  H85      1.0000 0.42440  0.63930  0.80800  Biso   1.000  H
  H86      1.0000 0.92440  0.36070  0.30800  Biso   1.000  H
  C91      1.0000 0.44300  0.48870  0.82840  Biso   1.000  C
  C92      1.0000 0.94300  0.51130  0.32840  Biso   1.000  C
  H87      1.0000 0.39840  0.43680  0.83160  Biso   1.000  H
  H88      1.0000 0.89840  0.56320  0.33160  Biso   1.000  H
  H89      1.0000 0.43190  0.51900  0.86370  Biso   1.000  H
  H90      1.0000 0.93190  0.48100  0.36370  Biso   1.000  H
  H91      1.0000 0.55150  0.48320  0.82400  Biso   1.000  H
  H92      1.0000 0.05150  0.51680  0.32400  Biso   1.000  H
  O29      1.0000 0.86700  0.88090  0.25680  Biso   1.000  O
  O30      1.0000 0.36700  0.11910  0.75680  Biso   1.000  O
  C93      1.0000 0.81240  0.82780  0.29240  Biso   1.000  C
  C94      1.0000 0.31240  0.17220  0.79240  Biso   1.000  C
  H93      1.0000 0.86540  0.82550  0.33060  Biso   1.000  H
  H94      1.0000 0.36540  0.17450  0.83060  Biso   1.000  H
  N49      1.0000 0.69720  0.77850  0.28280  Biso   1.000  N
  N50      1.0000 0.19720  0.22150  0.78280  Biso   1.000  N
  C95      1.0000 0.60550  0.77890  0.22450  Biso   1.000  C
  C96      1.0000 0.10550  0.22110  0.72450  Biso   1.000  C
  H95      1.0000 0.64750  0.81740  0.19930  Biso   1.000  H
  H96      1.0000 0.14750  0.18260  0.69930  Biso   1.000  H
  H97      1.0000 0.50030  0.79280  0.22910  Biso   1.000  H
  H98      1.0000 0.00030  0.20720  0.72910  Biso   1.000  H
  H99      1.0000 0.60820  0.72690  0.20690  Biso   1.000  H
  H100     1.0000 0.10820  0.27310  0.70690  Biso   1.000  H
  C97      1.0000 0.65580  0.72490  0.32500  Biso   1.000  C
  C98      1.0000 0.15580  0.27510  0.82500  Biso   1.000  C
  H101     1.0000 0.72560  0.73020  0.36100  Biso   1.000  H
  H102     1.0000 0.22560  0.26980  0.86100  Biso   1.000  H
  H103     1.0000 0.66110  0.67140  0.31000  Biso   1.000  H
  H104     1.0000 0.16110  0.32860  0.81000  Biso   1.000  H
  H105     1.0000 0.55210  0.73600  0.33340  Biso   1.000  H
  H106     1.0000 0.05210  0.26400  0.83340  Biso   1.000  H
  O31      1.0000 0.06350  0.11540  0.58400  Biso   1.000  O
  O32      1.0000 0.56350  0.88460  0.08400  Biso   1.000  O
  C99      1.0000 0.14100  0.06820  0.62070  Biso   1.000  C
  C100     1.0000 0.64100  0.93180  0.12070  Biso   1.000  C
  H107     1.0000 0.22120  0.08870  0.64710  Biso   1.000  H
  H108     1.0000 0.72120  0.91130  0.14710  Biso   1.000  H
  N51      1.0000 0.10800  0.98880  0.62230  Biso   1.000  N
  N52      1.0000 0.60800  0.01120  0.12230  Biso   1.000  N
  C101     1.0000 0.01800  0.95740  0.58210  Biso   1.000  C
  C102     1.0000 0.51800  0.04260  0.08210  Biso   1.000  C
  H109     1.0000 0.95910  0.99820  0.56000  Biso   1.000  H
  H110     1.0000 0.45910  0.00180  0.06000  Biso   1.000  H
  H111     1.0000 0.94960  0.92180  0.59950  Biso   1.000  H
  H112     1.0000 0.44960  0.07820  0.09950  Biso   1.000  H
  H113     1.0000 0.07680  0.92810  0.55580  Biso   1.000  H
  H114     1.0000 0.57680  0.07190  0.05580  Biso   1.000  H
  C103     1.0000 0.20500  0.94430  0.66430  Biso   1.000  C
  C104     1.0000 0.70500  0.05570  0.16430  Biso   1.000  C
  H115     1.0000 0.17280  0.88940  0.66270  Biso   1.000  H
  H116     1.0000 0.67280  0.11060  0.16270  Biso   1.000  H
  H117     1.0000 0.19810  0.96520  0.70350  Biso   1.000  H
  H118     1.0000 0.69810  0.03480  0.20350  Biso   1.000  H
  H119     1.0000 0.31000  0.94790  0.65530  Biso   1.000  H
  H120     1.0000 0.81000  0.05210  0.15530  Biso   1.000  H
  O33      1.0000 0.07300  0.37670  0.64230  Biso   1.000  O
  O34      1.0000 0.57300  0.62330  0.14230  Biso   1.000  O
  O35      1.0000 0.18530  0.26340  0.57970  Biso   1.000  O
  O36      1.0000 0.68530  0.73660  0.07970  Biso   1.000  O
