data_image0
_cell_length_a       8.8064
_cell_length_b       16.997
_cell_length_c       23.4716
_cell_angle_alpha    90
_cell_angle_beta     97.1504
_cell_angle_gamma    90

_symmetry_space_group_name_H-M    "P 1"
_symmetry_int_tables_number       1

loop_
  _symmetry_equiv_pos_as_xyz
  'x, y, z'

loop_
  _atom_site_label
  _atom_site_occupancy
  _atom_site_fract_x
  _atom_site_fract_y
  _atom_site_fract_z
  _atom_site_thermal_displace_type
  _atom_site_B_iso_or_equiv
  _atom_site_type_symbol
  Cu1      1.0000 0.14836  0.44708  0.33909  Biso   1.000  Cu
  Cu2      1.0000 0.85164  0.94708  0.66091  Biso   1.000  Cu
  Cu3      1.0000 0.21809  0.29720  0.43068  Biso   1.000  Cu
  Cu4      1.0000 0.78191  0.79720  0.56932  Biso   1.000  Cu
  Cu5      1.0000 0.90419  0.39812  0.43017  Biso   1.000  Cu
  Cu6      1.0000 0.09581  0.89812  0.56983  Biso   1.000  Cu
  Cu7      1.0000 0.34911  0.78328  0.15889  Biso   1.000  Cu
  Cu8      1.0000 0.65089  0.28328  0.84111  Biso   1.000  Cu
  Cu9      1.0000 0.30338  0.93775  0.07100  Biso   1.000  Cu
  Cu10     1.0000 0.69662  0.43775  0.92900  Biso   1.000  Cu
  Cu11     1.0000 0.61372  0.83189  0.07507  Biso   1.000  Cu
  Cu12     1.0000 0.38628  0.33189  0.92493  Biso   1.000  Cu
  O1       1.0000 0.06040  0.35820  0.38110  Biso   1.000  O
  O2       1.0000 0.93960  0.85820  0.61890  Biso   1.000  O
  N1       1.0000 0.95420  0.50340  0.33920  Biso   1.000  N
  N2       1.0000 0.04580  0.00340  0.66080  Biso   1.000  N
  N3       1.0000 0.86000  0.48770  0.37820  Biso   1.000  N
  N4       1.0000 0.14000  0.98770  0.62180  Biso   1.000  N
  C1       1.0000 0.89500  0.56130  0.30700  Biso   1.000  C
  C2       1.0000 0.10500  0.06130  0.69300  Biso   1.000  C
  H1       1.0000 0.93860  0.58340  0.27660  Biso   1.000  H
  H2       1.0000 0.06140  0.08340  0.72340  Biso   1.000  H
  C3       1.0000 0.75900  0.58440  0.32510  Biso   1.000  C
  C4       1.0000 0.24100  0.08440  0.67490  Biso   1.000  C
  H3       1.0000 0.69250  0.62340  0.30950  Biso   1.000  H
  H4       1.0000 0.30750  0.12340  0.69050  Biso   1.000  H
  C5       1.0000 0.74430  0.53820  0.37020  Biso   1.000  C
  C6       1.0000 0.25570  0.03820  0.62980  Biso   1.000  C
  H5       1.0000 0.66460  0.54100  0.39270  Biso   1.000  H
  H6       1.0000 0.33540  0.04100  0.60730  Biso   1.000  H
  N5       1.0000 0.34010  0.38690  0.34250  Biso   1.000  N
  N6       1.0000 0.65990  0.88690  0.65750  Biso   1.000  N
  N7       1.0000 0.36720  0.32870  0.38020  Biso   1.000  N
  N8       1.0000 0.63280  0.82870  0.61980  Biso   1.000  N
  C7       1.0000 0.45850  0.39520  0.31480  Biso   1.000  C
  C8       1.0000 0.54150  0.89520  0.68520  Biso   1.000  C
  H7       1.0000 0.46420  0.43070  0.28510  Biso   1.000  H
  H8       1.0000 0.53580  0.93070  0.71490  Biso   1.000  H
  C9       1.0000 0.57520  0.34390  0.33570  Biso   1.000  C
  C10      1.0000 0.42480  0.84390  0.66430  Biso   1.000  C
  H9       1.0000 0.67250  0.33890  0.32460  Biso   1.000  H
  H10      1.0000 0.32750  0.83890  0.67540  Biso   1.000  H
  C11      1.0000 0.50970  0.30170  0.37760  Biso   1.000  C
  C12      1.0000 0.49030  0.80170  0.62240  Biso   1.000  C
  H11      1.0000 0.55710  0.26140  0.40000  Biso   1.000  H
  H12      1.0000 0.44290  0.76140  0.60000  Biso   1.000  H
  N9       1.0000 0.05580  0.25920  0.47230  Biso   1.000  N
  N10      1.0000 0.94420  0.75920  0.52770  Biso   1.000  N
  N11      1.0000 0.92450  0.29770  0.47080  Biso   1.000  N
  N12      1.0000 0.07550  0.79770  0.52920  Biso   1.000  N
  C13      1.0000 0.04700  0.19360  0.50620  Biso   1.000  C
  C14      1.0000 0.95300  0.69360  0.49380  Biso   1.000  C
  H13      1.0000 0.12340  0.15650  0.51510  Biso   1.000  H
  H14      1.0000 0.87660  0.65650  0.48490  Biso   1.000  H
  C15      1.0000 0.91300  0.19280  0.52340  Biso   1.000  C
  C16      1.0000 0.08700  0.69280  0.47660  Biso   1.000  C
  H15      1.0000 0.87690  0.15430  0.54650  Biso   1.000  H
  H16      1.0000 0.12310  0.65430  0.45350  Biso   1.000  H
  C17      1.0000 0.83500  0.25560  0.50280  Biso   1.000  C
  C18      1.0000 0.16500  0.75560  0.49720  Biso   1.000  C
  H17      1.0000 0.73640  0.26870  0.50930  Biso   1.000  H
  H18      1.0000 0.26360  0.76870  0.49070  Biso   1.000  H
  N13      1.0000 0.76600  0.44440  0.48450  Biso   1.000  N
  N14      1.0000 0.23400  0.94440  0.51550  Biso   1.000  N
  N15      1.0000 0.82770  0.49400  0.52060  Biso   1.000  N
  N16      1.0000 0.17230  0.99400  0.47940  Biso   1.000  N
  H19      1.0000 0.92370  0.50410  0.52880  Biso   1.000  H
  H20      1.0000 0.07630  0.00410  0.47120  Biso   1.000  H
  C19      1.0000 0.61390  0.44410  0.48420  Biso   1.000  C
  C20      1.0000 0.38610  0.94410  0.51580  Biso   1.000  C
  H21      1.0000 0.54770  0.41230  0.46040  Biso   1.000  H
  H22      1.0000 0.45230  0.91230  0.53960  Biso   1.000  H
  C21      1.0000 0.56800  0.49480  0.52210  Biso   1.000  C
  C22      1.0000 0.43200  0.99480  0.47790  Biso   1.000  C
  H23      1.0000 0.46920  0.50390  0.53080  Biso   1.000  H
  H24      1.0000 0.53080  0.00390  0.46920  Biso   1.000  H
  C23      1.0000 0.70100  0.53010  0.54490  Biso   1.000  C
  C24      1.0000 0.29900  0.03010  0.45510  Biso   1.000  C
  H25      1.0000 0.70950  0.57060  0.57170  Biso   1.000  H
  H26      1.0000 0.29050  0.07060  0.42830  Biso   1.000  H
  O3       1.0000 0.25280  0.54420  0.31910  Biso   1.000  O
  O4       1.0000 0.74720  0.04420  0.68090  Biso   1.000  O
  O5       1.0000 0.29110  0.54770  0.41410  Biso   1.000  O
  O6       1.0000 0.70890  0.04770  0.58590  Biso   1.000  O
  O7       1.0000 0.67850  0.85860  0.46450  Biso   1.000  O
  O8       1.0000 0.32150  0.35860  0.53550  Biso   1.000  O
  O9       1.0000 0.62680  0.75320  0.51270  Biso   1.000  O
  O10      1.0000 0.37320  0.25320  0.48730  Biso   1.000  O
  O11      1.0000 0.40380  0.81990  0.26490  Biso   1.000  O
  O12      1.0000 0.59620  0.31990  0.73510  Biso   1.000  O
  C25      1.0000 0.30180  0.57660  0.36720  Biso   1.000  C
  C26      1.0000 0.69820  0.07660  0.63280  Biso   1.000  C
  C27      1.0000 0.37700  0.65710  0.36420  Biso   1.000  C
  C28      1.0000 0.62300  0.15710  0.63580  Biso   1.000  C
  C29      1.0000 0.36120  0.70140  0.31490  Biso   1.000  C
  C30      1.0000 0.63880  0.20140  0.68510  Biso   1.000  C
  H27      1.0000 0.30950  0.68120  0.28110  Biso   1.000  H
  H28      1.0000 0.69050  0.18120  0.71890  Biso   1.000  H
  C31      1.0000 0.42230  0.77560  0.31600  Biso   1.000  C
  C32      1.0000 0.57770  0.27560  0.68400  Biso   1.000  C
  C33      1.0000 0.50410  0.80620  0.36380  Biso   1.000  C
  C34      1.0000 0.49590  0.30620  0.63620  Biso   1.000  C
  H29      1.0000 0.54660  0.85620  0.36320  Biso   1.000  H
  H30      1.0000 0.45340  0.35620  0.63680  Biso   1.000  H
  C35      1.0000 0.52260  0.76190  0.41260  Biso   1.000  C
  C36      1.0000 0.47740  0.26190  0.58740  Biso   1.000  C
  C37      1.0000 0.45890  0.68820  0.41450  Biso   1.000  C
  C38      1.0000 0.54110  0.18820  0.58550  Biso   1.000  C
  H31      1.0000 0.46960  0.65950  0.44850  Biso   1.000  H
  H32      1.0000 0.53040  0.15950  0.55150  Biso   1.000  H
  C39      1.0000 0.61360  0.79380  0.46630  Biso   1.000  C
  C40      1.0000 0.38640  0.29380  0.53370  Biso   1.000  C
  N17      1.0000 0.16670  0.84770  0.15320  Biso   1.000  N
  N18      1.0000 0.83330  0.34770  0.84680  Biso   1.000  N
  N19      1.0000 0.14800  0.91260  0.11820  Biso   1.000  N
  N20      1.0000 0.85200  0.41260  0.88180  Biso   1.000  N
  C41      1.0000 0.03270  0.83740  0.17590  Biso   1.000  C
  C42      1.0000 0.96730  0.33740  0.82410  Biso   1.000  C
  H33      1.0000 0.01090  0.79610  0.19960  Biso   1.000  H
  H34      1.0000 0.98910  0.29610  0.80040  Biso   1.000  H
  C43      1.0000 0.93710  0.89710  0.15840  Biso   1.000  C
  C44      1.0000 0.06290  0.39710  0.84160  Biso   1.000  C
  H35      1.0000 0.84100  0.90640  0.16960  Biso   1.000  H
  H36      1.0000 0.15900  0.40640  0.83040  Biso   1.000  H
  C45      1.0000 0.00880  0.94110  0.12120  Biso   1.000  C
  C46      1.0000 0.99120  0.44110  0.87880  Biso   1.000  C
  H37      1.0000 0.96650  0.98450  0.10090  Biso   1.000  H
  H38      1.0000 0.03350  0.48450  0.89910  Biso   1.000  H
  N21      1.0000 0.47090  0.97710  0.03250  Biso   1.000  N
  N22      1.0000 0.52910  0.47710  0.96750  Biso   1.000  N
  N23      1.0000 0.60310  0.93310  0.03540  Biso   1.000  N
  N24      1.0000 0.39690  0.43310  0.96460  Biso   1.000  N
  C47      1.0000 0.48240  0.03850  0.00100  Biso   1.000  C
  C48      1.0000 0.51760  0.53850  0.99900  Biso   1.000  C
  H39      1.0000 0.40540  0.07550  0.99170  Biso   1.000  H
  H40      1.0000 0.59460  0.57550  0.00830  Biso   1.000  H
  C49      1.0000 0.63310  0.04150  0.98210  Biso   1.000  C
  C50      1.0000 0.36690  0.54150  0.01790  Biso   1.000  C
  H41      1.0000 0.67580  0.08000  0.96090  Biso   1.000  H
  H42      1.0000 0.32420  0.58000  0.03910  Biso   1.000  H
  C51      1.0000 0.69690  0.97070  0.00450  Biso   1.000  C
  C52      1.0000 0.30310  0.47070  0.99550  Biso   1.000  C
  H43      1.0000 0.79320  0.95240  0.99850  Biso   1.000  H
  H44      1.0000 0.20680  0.45240  0.00150  Biso   1.000  H
  N25      1.0000 0.53610  0.72310  0.16100  Biso   1.000  N
  N26      1.0000 0.46390  0.22310  0.83900  Biso   1.000  N
  N27      1.0000 0.64580  0.74350  0.12610  Biso   1.000  N
  N28      1.0000 0.35420  0.24350  0.87390  Biso   1.000  N
  C53      1.0000 0.57940  0.65480  0.18650  Biso   1.000  C
  C54      1.0000 0.42060  0.15480  0.81350  Biso   1.000  C
  H45      1.0000 0.52650  0.62930  0.21310  Biso   1.000  H
  H46      1.0000 0.47350  0.12930  0.78690  Biso   1.000  H
  C55      1.0000 0.71210  0.62750  0.16850  Biso   1.000  C
  C56      1.0000 0.28790  0.12750  0.83150  Biso   1.000  C
  H47      1.0000 0.76350  0.58070  0.17850  Biso   1.000  H
  H48      1.0000 0.23650  0.08070  0.82150  Biso   1.000  H
  C57      1.0000 0.75160  0.68630  0.13150  Biso   1.000  C
  C58      1.0000 0.24840  0.18630  0.86850  Biso   1.000  C
  H49      1.0000 0.83920  0.68600  0.11310  Biso   1.000  H
  H50      1.0000 0.16080  0.18600  0.88690  Biso   1.000  H
  N29      1.0000 0.75100  0.78570  0.02250  Biso   1.000  N
  N30      1.0000 0.24900  0.28570  0.97750  Biso   1.000  N
  N31      1.0000 0.69110  0.73100  0.98390  Biso   1.000  N
  N32      1.0000 0.30890  0.23100  0.01610  Biso   1.000  N
  H51      1.0000 0.59510  0.72000  0.97800  Biso   1.000  H
  H52      1.0000 0.40490  0.22000  0.02200  Biso   1.000  H
  C59      1.0000 0.90100  0.78760  0.01580  Biso   1.000  C
  C60      1.0000 0.09900  0.28760  0.98420  Biso   1.000  C
  H53      1.0000 0.97310  0.82120  0.03520  Biso   1.000  H
  H54      1.0000 0.02690  0.32120  0.96480  Biso   1.000  H
  C61      1.0000 0.93200  0.73160  0.97520  Biso   1.000  C
  C62      1.0000 0.06800  0.23160  0.02480  Biso   1.000  C
  H55      1.0000 0.02630  0.72050  0.96340  Biso   1.000  H
  H56      1.0000 0.97370  0.22050  0.03660  Biso   1.000  H
  C63      1.0000 0.79510  0.69610  0.95610  Biso   1.000  C
  C64      1.0000 0.20490  0.19610  0.04390  Biso   1.000  C
  H57      1.0000 0.77860  0.65590  0.92920  Biso   1.000  H
  H58      1.0000 0.22140  0.15590  0.07080  Biso   1.000  H
  O13      1.0000 0.15290  0.98610  0.01210  Biso   1.000  O
  O14      1.0000 0.84710  0.48610  0.98790  Biso   1.000  O
  O15      1.0000 0.20070  0.87770  0.96390  Biso   1.000  O
  O16      1.0000 0.79930  0.37770  0.03610  Biso   1.000  O
  O17      1.0000 0.76510  0.18790  0.82180  Biso   1.000  O
  O18      1.0000 0.23490  0.68790  0.17820  Biso   1.000  O
  O19      1.0000 0.79310  0.18520  0.91760  Biso   1.000  O
  O20      1.0000 0.20690  0.68520  0.08240  Biso   1.000  O
  O21      1.0000 0.91230  0.91620  0.76720  Biso   1.000  O
  O22      1.0000 0.08770  0.41620  0.23280  Biso   1.000  O
  C65      1.0000 0.14020  0.94340  0.96800  Biso   1.000  C
  C66      1.0000 0.85980  0.44340  0.03200  Biso   1.000  C
  C67      1.0000 0.04110  0.97550  0.91720  Biso   1.000  C
  C68      1.0000 0.95890  0.47550  0.08280  Biso   1.000  C
  C69      1.0000 0.97380  0.04860  0.91780  Biso   1.000  C
  C70      1.0000 0.02620  0.54860  0.08220  Biso   1.000  C
  H59      1.0000 0.98720  0.07860  0.95120  Biso   1.000  H
  H60      1.0000 0.01280  0.57860  0.04880  Biso   1.000  H
  C71      1.0000 0.88470  0.07850  0.86830  Biso   1.000  C
  C72      1.0000 0.11530  0.57850  0.13170  Biso   1.000  C
  C73      1.0000 0.86890  0.03420  0.81700  Biso   1.000  C
  C74      1.0000 0.13110  0.53420  0.18300  Biso   1.000  C
  H61      1.0000 0.81310  0.05410  0.78390  Biso   1.000  H
  H62      1.0000 0.18690  0.55410  0.21610  Biso   1.000  H
  C75      1.0000 0.93850  0.95930  0.81650  Biso   1.000  C
  C76      1.0000 0.06150  0.45930  0.18350  Biso   1.000  C
  C77      1.0000 0.01860  0.92990  0.86680  Biso   1.000  C
  C78      1.0000 0.98140  0.42990  0.13320  Biso   1.000  C
  H63      1.0000 0.05810  0.87910  0.86710  Biso   1.000  H
  H64      1.0000 0.94190  0.37910  0.13290  Biso   1.000  H
  C79      1.0000 0.81190  0.15640  0.86990  Biso   1.000  C
  C80      1.0000 0.18810  0.65640  0.13010  Biso   1.000  C
  O23      1.0000 0.45290  0.87120  0.12030  Biso   1.000  O
  O24      1.0000 0.54710  0.37120  0.87970  Biso   1.000  O
  O25      1.0000 0.12060  0.46660  0.48700  Biso   1.000  O
  O26      1.0000 0.87940  0.96660  0.51300  Biso   1.000  O
  O27      1.0000 0.39790  0.76590  0.01550  Biso   1.000  O
  O28      1.0000 0.60210  0.26590  0.98450  Biso   1.000  O
  O29      1.0000 0.90300  0.23700  0.32550  Biso   1.000  O
  O30      1.0000 0.09700  0.73700  0.67450  Biso   1.000  O
  C81      1.0000 0.84700  0.18800  0.35570  Biso   1.000  C
  C82      1.0000 0.15300  0.68800  0.64430  Biso   1.000  C
  H65      1.0000 0.89270  0.18290  0.39330  Biso   1.000  H
  H66      1.0000 0.10730  0.68290  0.60670  Biso   1.000  H
  N33      1.0000 0.72610  0.14160  0.33980  Biso   1.000  N
  N34      1.0000 0.27390  0.64160  0.66020  Biso   1.000  N
  C83      1.0000 0.65300  0.14630  0.28040  Biso   1.000  C
  C84      1.0000 0.34700  0.64630  0.71960  Biso   1.000  C
  H67      1.0000 0.70690  0.18350  0.25960  Biso   1.000  H
  H68      1.0000 0.29310  0.68350  0.74040  Biso   1.000  H
  H69      1.0000 0.54870  0.16300  0.28000  Biso   1.000  H
  H70      1.0000 0.45130  0.66300  0.72000  Biso   1.000  H
  H71      1.0000 0.65530  0.09550  0.26270  Biso   1.000  H
  H72      1.0000 0.34470  0.59550  0.73730  Biso   1.000  H
  C85      1.0000 0.67000  0.08650  0.37860  Biso   1.000  C
  C86      1.0000 0.33000  0.58650  0.62140  Biso   1.000  C
  H73      1.0000 0.72850  0.09090  0.41570  Biso   1.000  H
  H74      1.0000 0.27150  0.59090  0.58430  Biso   1.000  H
  H75      1.0000 0.67820  0.03410  0.36420  Biso   1.000  H
  H76      1.0000 0.32180  0.53410  0.63580  Biso   1.000  H
  H77      1.0000 0.56410  0.09790  0.38180  Biso   1.000  H
  H78      1.0000 0.43590  0.59790  0.61820  Biso   1.000  H
  O31      1.0000 0.44880  0.71200  0.86570  Biso   1.000  O
  O32      1.0000 0.55120  0.21200  0.13430  Biso   1.000  O
  C87      1.0000 0.41400  0.77990  0.86510  Biso   1.000  C
  C88      1.0000 0.58600  0.27990  0.13490  Biso   1.000  C
  H79      1.0000 0.31610  0.79280  0.87320  Biso   1.000  H
  H80      1.0000 0.68390  0.29280  0.12680  Biso   1.000  H
  N35      1.0000 0.50500  0.83780  0.85360  Biso   1.000  N
  N36      1.0000 0.49500  0.33780  0.14640  Biso   1.000  N
  C89      1.0000 0.65400  0.82200  0.83390  Biso   1.000  C
  C90      1.0000 0.34600  0.32200  0.16610  Biso   1.000  C
  H81      1.0000 0.68100  0.76770  0.84160  Biso   1.000  H
  H82      1.0000 0.31900  0.26770  0.15840  Biso   1.000  H
  H83      1.0000 0.73000  0.85540  0.85390  Biso   1.000  H
  H84      1.0000 0.27000  0.35540  0.14610  Biso   1.000  H
  H85      1.0000 0.64690  0.83150  0.79340  Biso   1.000  H
  H86      1.0000 0.35310  0.33150  0.20660  Biso   1.000  H
  C91      1.0000 0.44100  0.92150  0.84820  Biso   1.000  C
  C92      1.0000 0.55900  0.42150  0.15180  Biso   1.000  C
  H87      1.0000 0.34620  0.92360  0.86440  Biso   1.000  H
  H88      1.0000 0.65380  0.42360  0.13560  Biso   1.000  H
  H89      1.0000 0.42360  0.93600  0.80840  Biso   1.000  H
  H90      1.0000 0.57640  0.43600  0.19160  Biso   1.000  H
  H91      1.0000 0.51290  0.95730  0.86840  Biso   1.000  H
  H92      1.0000 0.48710  0.45730  0.13160  Biso   1.000  H
  O33      1.0000 0.73500  0.92920  0.28570  Biso   1.000  O
  O34      1.0000 0.26500  0.42920  0.71430  Biso   1.000  O
  C93      1.0000 0.79000  0.86340  0.28840  Biso   1.000  C
  C94      1.0000 0.21000  0.36340  0.71160  Biso   1.000  C
  H93      1.0000 0.75010  0.82730  0.26080  Biso   1.000  H
  H94      1.0000 0.24990  0.32730  0.73920  Biso   1.000  H
  N37      1.0000 0.89600  0.83990  0.32500  Biso   1.000  N
  N38      1.0000 0.10400  0.33990  0.67500  Biso   1.000  N
  C95      1.0000 0.95600  0.88500  0.37470  Biso   1.000  C
  C96      1.0000 0.04400  0.38500  0.62530  Biso   1.000  C
  H95      1.0000 0.90150  0.93400  0.37480  Biso   1.000  H
  H96      1.0000 0.09850  0.43400  0.62520  Biso   1.000  H
  H97      1.0000 0.06250  0.89510  0.37360  Biso   1.000  H
  H98      1.0000 0.93750  0.39510  0.62640  Biso   1.000  H
  H99      1.0000 0.94250  0.85600  0.40890  Biso   1.000  H
  H100     1.0000 0.05750  0.35600  0.59110  Biso   1.000  H
  C97      1.0000 0.95300  0.75900  0.32020  Biso   1.000  C
  C98      1.0000 0.04700  0.25900  0.67980  Biso   1.000  C
  H101     1.0000 0.90230  0.73500  0.28610  Biso   1.000  H
  H102     1.0000 0.09770  0.23500  0.71390  Biso   1.000  H
  H103     1.0000 0.93300  0.72910  0.35320  Biso   1.000  H
  H104     1.0000 0.06700  0.22910  0.64680  Biso   1.000  H
  H105     1.0000 0.06140  0.76030  0.31830  Biso   1.000  H
  H106     1.0000 0.93860  0.26030  0.68170  Biso   1.000  H
  O35      1.0000 0.58090  0.98650  0.18790  Biso   1.000  O
  O36      1.0000 0.41910  0.48650  0.81210  Biso   1.000  O
  O37      1.0000 0.25980  0.59020  0.87740  Biso   1.000  O
  O38      1.0000 0.74020  0.09020  0.12260  Biso   1.000  O
  O39      1.0000 0.95400  0.27480  0.21870  Biso   1.000  O
  O40      1.0000 0.04600  0.77480  0.78130  Biso   1.000  O
  O41      1.0000 0.36900  0.97170  0.28300  Biso   1.000  O
  O42      1.0000 0.63100  0.47170  0.71700  Biso   1.000  O
  O43      1.0000 0.33200  0.07950  0.15630  Biso   1.000  O
  O44      1.0000 0.66800  0.57950  0.84370  Biso   1.000  O
