data_image0
_cell_length_a       12.6109
_cell_length_b       18.0624
_cell_length_c       23.4208
_cell_angle_alpha    90
_cell_angle_beta     90
_cell_angle_gamma    90

_symmetry_space_group_name_H-M    "P 1"
_symmetry_int_tables_number       1

loop_
  _symmetry_equiv_pos_as_xyz
  'x, y, z'

loop_
  _atom_site_label
  _atom_site_occupancy
  _atom_site_fract_x
  _atom_site_fract_y
  _atom_site_fract_z
  _atom_site_thermal_displace_type
  _atom_site_B_iso_or_equiv
  _atom_site_type_symbol
  Cu1      1.0000 0.73725  0.05301  0.53864  Biso   1.000  Cu
  Cu2      1.0000 0.76275  0.94699  0.03864  Biso   1.000  Cu
  Cu3      1.0000 0.26275  0.55301  0.96136  Biso   1.000  Cu
  Cu4      1.0000 0.23725  0.44699  0.46136  Biso   1.000  Cu
  Cu5      1.0000 0.60076  0.04818  0.41362  Biso   1.000  Cu
  Cu6      1.0000 0.89924  0.95182  0.91362  Biso   1.000  Cu
  Cu7      1.0000 0.39924  0.54818  0.08638  Biso   1.000  Cu
  Cu8      1.0000 0.10076  0.45182  0.58638  Biso   1.000  Cu
  Cu9      1.0000 0.71895  0.20597  0.45616  Biso   1.000  Cu
  Cu10     1.0000 0.78105  0.79403  0.95616  Biso   1.000  Cu
  Cu11     1.0000 0.28105  0.70597  0.04384  Biso   1.000  Cu
  Cu12     1.0000 0.21895  0.29403  0.54384  Biso   1.000  Cu
  Cu13     1.0000 0.71167  0.07874  0.85861  Biso   1.000  Cu
  Cu14     1.0000 0.78833  0.92126  0.35861  Biso   1.000  Cu
  Cu15     1.0000 0.28833  0.57874  0.64139  Biso   1.000  Cu
  Cu16     1.0000 0.21167  0.42126  0.14139  Biso   1.000  Cu
  Cu17     1.0000 0.57460  0.07673  0.98457  Biso   1.000  Cu
  Cu18     1.0000 0.92540  0.92327  0.48457  Biso   1.000  Cu
  Cu19     1.0000 0.42540  0.57673  0.51543  Biso   1.000  Cu
  Cu20     1.0000 0.07460  0.42327  0.01543  Biso   1.000  Cu
  Cu21     1.0000 0.69600  0.23286  0.93863  Biso   1.000  Cu
  Cu22     1.0000 0.80400  0.76714  0.43863  Biso   1.000  Cu
  Cu23     1.0000 0.30400  0.73286  0.56137  Biso   1.000  Cu
  Cu24     1.0000 0.19600  0.26714  0.06137  Biso   1.000  Cu
  O1       1.0000 0.65370  0.10920  0.47900  Biso   1.000  O
  O2       1.0000 0.84630  0.89080  0.97900  Biso   1.000  O
  O3       1.0000 0.34630  0.60920  0.02100  Biso   1.000  O
  O4       1.0000 0.15370  0.39080  0.52100  Biso   1.000  O
  O5       1.0000 0.63150  0.13490  0.91810  Biso   1.000  O
  O6       1.0000 0.86850  0.86510  0.41810  Biso   1.000  O
  O7       1.0000 0.36850  0.63490  0.58190  Biso   1.000  O
  O8       1.0000 0.13150  0.36510  0.08190  Biso   1.000  O
  O9       1.0000 0.54830  0.98650  0.35030  Biso   1.000  O
  O10      1.0000 0.95170  0.01350  0.85030  Biso   1.000  O
  O11      1.0000 0.45170  0.48650  0.14970  Biso   1.000  O
  O12      1.0000 0.04830  0.51350  0.64970  Biso   1.000  O
  O13      1.0000 0.69780  0.97430  0.30010  Biso   1.000  O
  O14      1.0000 0.80220  0.02570  0.80010  Biso   1.000  O
  O15      1.0000 0.30220  0.47430  0.19990  Biso   1.000  O
  O16      1.0000 0.19780  0.52570  0.69990  Biso   1.000  O
  O17      1.0000 0.51480  0.02040  0.05010  Biso   1.000  O
  O18      1.0000 0.98520  0.97960  0.55010  Biso   1.000  O
  O19      1.0000 0.48520  0.52040  0.44990  Biso   1.000  O
  O20      1.0000 0.01480  0.47960  0.94990  Biso   1.000  O
  O21      1.0000 0.67140  0.00210  0.09300  Biso   1.000  O
  O22      1.0000 0.82860  0.99790  0.59300  Biso   1.000  O
  O23      1.0000 0.32860  0.50210  0.40700  Biso   1.000  O
  O24      1.0000 0.17140  0.49790  0.90700  Biso   1.000  O
  O25      1.0000 0.78400  0.29970  0.43420  Biso   1.000  O
  O26      1.0000 0.71600  0.70030  0.93420  Biso   1.000  O
  O27      1.0000 0.21600  0.79970  0.06580  Biso   1.000  O
  O28      1.0000 0.28400  0.20030  0.56580  Biso   1.000  O
  O29      1.0000 0.67970  0.37990  0.48090  Biso   1.000  O
  O30      1.0000 0.82030  0.62010  0.98090  Biso   1.000  O
  O31      1.0000 0.32030  0.87990  0.01910  Biso   1.000  O
  O32      1.0000 0.17970  0.12010  0.51910  Biso   1.000  O
  O33      1.0000 0.77920  0.65520  0.44920  Biso   1.000  O
  O34      1.0000 0.72080  0.34480  0.94920  Biso   1.000  O
  O35      1.0000 0.22080  0.15520  0.05080  Biso   1.000  O
  O36      1.0000 0.27920  0.84480  0.55080  Biso   1.000  O
  O37      1.0000 0.92620  0.67500  0.40080  Biso   1.000  O
  O38      1.0000 0.57380  0.32500  0.90080  Biso   1.000  O
  O39      1.0000 0.07380  0.17500  0.09920  Biso   1.000  O
  O40      1.0000 0.42620  0.82500  0.59920  Biso   1.000  O
  N1       1.0000 0.62560  0.95990  0.45890  Biso   1.000  N
  N2       1.0000 0.87440  0.04010  0.95890  Biso   1.000  N
  N3       1.0000 0.37440  0.45990  0.04110  Biso   1.000  N
  N4       1.0000 0.12560  0.54010  0.54110  Biso   1.000  N
  N5       1.0000 0.68110  0.96060  0.50890  Biso   1.000  N
  N6       1.0000 0.81890  0.03940  0.00890  Biso   1.000  N
  N7       1.0000 0.31890  0.46060  0.99110  Biso   1.000  N
  N8       1.0000 0.18110  0.53940  0.49110  Biso   1.000  N
  C1       1.0000 0.58940  0.89010  0.45100  Biso   1.000  C
  C2       1.0000 0.91060  0.10990  0.95100  Biso   1.000  C
  C3       1.0000 0.41060  0.39010  0.04900  Biso   1.000  C
  C4       1.0000 0.08940  0.60990  0.54900  Biso   1.000  C
  H1       1.0000 0.54720  0.87400  0.41980  Biso   1.000  H
  H2       1.0000 0.95280  0.12600  0.91980  Biso   1.000  H
  H3       1.0000 0.45280  0.37400  0.08020  Biso   1.000  H
  H4       1.0000 0.04720  0.62600  0.58020  Biso   1.000  H
  C5       1.0000 0.62340  0.84650  0.49520  Biso   1.000  C
  C6       1.0000 0.87660  0.15350  0.99520  Biso   1.000  C
  C7       1.0000 0.37660  0.34650  0.00480  Biso   1.000  C
  C8       1.0000 0.12340  0.65350  0.50480  Biso   1.000  C
  H5       1.0000 0.61130  0.79500  0.50020  Biso   1.000  H
  H6       1.0000 0.88870  0.20500  0.00020  Biso   1.000  H
  H7       1.0000 0.38870  0.29500  0.99980  Biso   1.000  H
  H8       1.0000 0.11130  0.70500  0.49980  Biso   1.000  H
  C9       1.0000 0.67900  0.89310  0.53070  Biso   1.000  C
  C10      1.0000 0.82100  0.10690  0.03070  Biso   1.000  C
  C11      1.0000 0.32100  0.39310  0.96930  Biso   1.000  C
  C12      1.0000 0.17900  0.60690  0.46930  Biso   1.000  C
  H9       1.0000 0.71110  0.87890  0.56580  Biso   1.000  H
  H10      1.0000 0.78890  0.12110  0.06580  Biso   1.000  H
  H11      1.0000 0.28890  0.37890  0.93420  Biso   1.000  H
  H12      1.0000 0.21110  0.62110  0.43420  Biso   1.000  H
  N9       1.0000 0.79610  0.20730  0.52790  Biso   1.000  N
  N10      1.0000 0.70390  0.79270  0.02790  Biso   1.000  N
  N11      1.0000 0.20390  0.70730  0.97210  Biso   1.000  N
  N12      1.0000 0.29610  0.29270  0.47210  Biso   1.000  N
  N13      1.0000 0.80460  0.14660  0.56150  Biso   1.000  N
  N14      1.0000 0.69540  0.85340  0.06150  Biso   1.000  N
  N15      1.0000 0.19540  0.64660  0.93850  Biso   1.000  N
  N16      1.0000 0.30460  0.35340  0.43850  Biso   1.000  N
  C13      1.0000 0.84050  0.26420  0.55610  Biso   1.000  C
  C14      1.0000 0.65950  0.73580  0.05610  Biso   1.000  C
  C15      1.0000 0.15950  0.76420  0.94390  Biso   1.000  C
  C16      1.0000 0.34050  0.23580  0.44390  Biso   1.000  C
  H13      1.0000 0.84460  0.31370  0.54260  Biso   1.000  H
  H14      1.0000 0.65540  0.68630  0.04260  Biso   1.000  H
  H15      1.0000 0.15540  0.81370  0.95740  Biso   1.000  H
  H16      1.0000 0.34460  0.18630  0.45740  Biso   1.000  H
  C17      1.0000 0.88010  0.23890  0.60920  Biso   1.000  C
  C18      1.0000 0.61990  0.76110  0.10920  Biso   1.000  C
  C19      1.0000 0.11990  0.73890  0.89080  Biso   1.000  C
  C20      1.0000 0.38010  0.26110  0.39080  Biso   1.000  C
  H17      1.0000 0.91660  0.26620  0.63770  Biso   1.000  H
  H18      1.0000 0.58340  0.73380  0.13770  Biso   1.000  H
  H19      1.0000 0.08340  0.76620  0.86230  Biso   1.000  H
  H20      1.0000 0.41660  0.23380  0.36230  Biso   1.000  H
  C21      1.0000 0.85320  0.16560  0.60940  Biso   1.000  C
  C22      1.0000 0.64680  0.83440  0.10940  Biso   1.000  C
  C23      1.0000 0.14680  0.66560  0.89060  Biso   1.000  C
  C24      1.0000 0.35320  0.33440  0.39060  Biso   1.000  C
  H21      1.0000 0.86750  0.13250  0.63990  Biso   1.000  H
  H22      1.0000 0.63250  0.86750  0.13990  Biso   1.000  H
  H23      1.0000 0.13250  0.63250  0.86010  Biso   1.000  H
  H24      1.0000 0.36750  0.36750  0.36010  Biso   1.000  H
  N17      1.0000 0.59800  0.13610  0.36560  Biso   1.000  N
  N18      1.0000 0.90200  0.86390  0.86560  Biso   1.000  N
  N19      1.0000 0.40200  0.63610  0.13440  Biso   1.000  N
  N20      1.0000 0.09800  0.36390  0.63440  Biso   1.000  N
  N21      1.0000 0.65080  0.19990  0.38300  Biso   1.000  N
  N22      1.0000 0.84920  0.80010  0.88300  Biso   1.000  N
  N23      1.0000 0.34920  0.69990  0.11700  Biso   1.000  N
  N24      1.0000 0.15080  0.30010  0.61700  Biso   1.000  N
  C25      1.0000 0.56110  0.14880  0.31340  Biso   1.000  C
  C26      1.0000 0.93890  0.85120  0.81340  Biso   1.000  C
  C27      1.0000 0.43890  0.64880  0.18660  Biso   1.000  C
  C28      1.0000 0.06110  0.35120  0.68660  Biso   1.000  C
  H25      1.0000 0.52060  0.11430  0.29190  Biso   1.000  H
  H26      1.0000 0.97940  0.88570  0.79190  Biso   1.000  H
  H27      1.0000 0.47940  0.61430  0.20810  Biso   1.000  H
  H28      1.0000 0.02060  0.38570  0.70810  Biso   1.000  H
  C29      1.0000 0.58940  0.21930  0.29430  Biso   1.000  C
  C30      1.0000 0.91060  0.78070  0.79430  Biso   1.000  C
  C31      1.0000 0.41060  0.71930  0.20570  Biso   1.000  C
  C32      1.0000 0.08940  0.28070  0.70570  Biso   1.000  C
  H29      1.0000 0.57320  0.24210  0.25880  Biso   1.000  H
  H30      1.0000 0.92680  0.75790  0.75880  Biso   1.000  H
  H31      1.0000 0.42680  0.74210  0.24120  Biso   1.000  H
  H32      1.0000 0.07320  0.25790  0.74120  Biso   1.000  H
  C33      1.0000 0.64670  0.24750  0.33950  Biso   1.000  C
  C34      1.0000 0.85330  0.75250  0.83950  Biso   1.000  C
  C35      1.0000 0.35330  0.74750  0.16050  Biso   1.000  C
  C36      1.0000 0.14670  0.25250  0.66050  Biso   1.000  C
  H33      1.0000 0.67920  0.29500  0.33960  Biso   1.000  H
  H34      1.0000 0.82080  0.70500  0.83960  Biso   1.000  H
  H35      1.0000 0.32080  0.79500  0.16040  Biso   1.000  H
  H36      1.0000 0.17920  0.20500  0.66040  Biso   1.000  H
  N25      1.0000 0.65440  0.98770  0.88970  Biso   1.000  N
  N26      1.0000 0.84560  0.01230  0.38970  Biso   1.000  N
  N27      1.0000 0.34560  0.48770  0.61030  Biso   1.000  N
  N28      1.0000 0.15440  0.51230  0.11030  Biso   1.000  N
  N29      1.0000 0.59490  0.98830  0.93900  Biso   1.000  N
  N30      1.0000 0.90510  0.01170  0.43900  Biso   1.000  N
  N31      1.0000 0.40510  0.48830  0.56100  Biso   1.000  N
  N32      1.0000 0.09490  0.51170  0.06100  Biso   1.000  N
  C37      1.0000 0.65210  0.91940  0.86850  Biso   1.000  C
  C38      1.0000 0.84790  0.08060  0.36850  Biso   1.000  C
  C39      1.0000 0.34790  0.41940  0.63150  Biso   1.000  C
  C40      1.0000 0.15210  0.58060  0.13150  Biso   1.000  C
  H37      1.0000 0.68630  0.90440  0.83420  Biso   1.000  H
  H38      1.0000 0.81370  0.09560  0.33420  Biso   1.000  H
  H39      1.0000 0.31370  0.40440  0.66580  Biso   1.000  H
  H40      1.0000 0.18630  0.59560  0.16580  Biso   1.000  H
  C41      1.0000 0.59240  0.87310  0.90340  Biso   1.000  C
  C42      1.0000 0.90760  0.12690  0.40340  Biso   1.000  C
  C43      1.0000 0.40760  0.37310  0.59660  Biso   1.000  C
  C44      1.0000 0.09240  0.62690  0.09660  Biso   1.000  C
  H41      1.0000 0.57820  0.82180  0.89870  Biso   1.000  H
  H42      1.0000 0.92180  0.17820  0.39870  Biso   1.000  H
  H43      1.0000 0.42180  0.32180  0.60130  Biso   1.000  H
  H44      1.0000 0.07820  0.67820  0.10130  Biso   1.000  H
  C45      1.0000 0.55830  0.91990  0.94690  Biso   1.000  C
  C46      1.0000 0.94170  0.08010  0.44690  Biso   1.000  C
  C47      1.0000 0.44170  0.41990  0.55310  Biso   1.000  C
  C48      1.0000 0.05830  0.58010  0.05310  Biso   1.000  C
  H45      1.0000 0.51490  0.90500  0.97800  Biso   1.000  H
  H46      1.0000 0.98510  0.09500  0.47800  Biso   1.000  H
  H47      1.0000 0.48510  0.40500  0.52200  Biso   1.000  H
  H48      1.0000 0.01490  0.59500  0.02200  Biso   1.000  H
  N33      1.0000 0.57570  0.16650  0.03050  Biso   1.000  N
  N34      1.0000 0.92430  0.83350  0.53050  Biso   1.000  N
  N35      1.0000 0.42430  0.66650  0.46950  Biso   1.000  N
  N36      1.0000 0.07570  0.33350  0.96950  Biso   1.000  N
  N37      1.0000 0.63350  0.22700  0.01450  Biso   1.000  N
  N38      1.0000 0.86650  0.77300  0.51450  Biso   1.000  N
  N39      1.0000 0.36650  0.72700  0.48550  Biso   1.000  N
  N40      1.0000 0.13350  0.27300  0.98550  Biso   1.000  N
  C49      1.0000 0.53760  0.18120  0.08370  Biso   1.000  C
  C50      1.0000 0.96240  0.81880  0.58370  Biso   1.000  C
  C51      1.0000 0.46240  0.68120  0.41630  Biso   1.000  C
  C52      1.0000 0.03760  0.31880  0.91630  Biso   1.000  C
  H49      1.0000 0.49400  0.14860  0.10530  Biso   1.000  H
  H50      1.0000 0.00600  0.85140  0.60530  Biso   1.000  H
  H51      1.0000 0.50600  0.64860  0.39470  Biso   1.000  H
  H52      1.0000 0.99400  0.35140  0.89470  Biso   1.000  H
  C53      1.0000 0.57070  0.24900  0.10180  Biso   1.000  C
  C54      1.0000 0.92930  0.75100  0.60180  Biso   1.000  C
  C55      1.0000 0.42930  0.74900  0.39820  Biso   1.000  C
  C56      1.0000 0.07070  0.25100  0.89820  Biso   1.000  C
  H53      1.0000 0.55630  0.27220  0.13740  Biso   1.000  H
  H54      1.0000 0.94370  0.72780  0.63740  Biso   1.000  H
  H55      1.0000 0.44370  0.77220  0.36260  Biso   1.000  H
  H56      1.0000 0.05630  0.22780  0.86260  Biso   1.000  H
  C57      1.0000 0.63000  0.27630  0.05670  Biso   1.000  C
  C58      1.0000 0.87000  0.72370  0.55670  Biso   1.000  C
  C59      1.0000 0.37000  0.77630  0.44330  Biso   1.000  C
  C60      1.0000 0.13000  0.22370  0.94330  Biso   1.000  C
  H57      1.0000 0.66330  0.32350  0.05590  Biso   1.000  H
  H58      1.0000 0.83670  0.67650  0.55590  Biso   1.000  H
  H59      1.0000 0.33670  0.82350  0.44410  Biso   1.000  H
  H60      1.0000 0.16330  0.17650  0.94410  Biso   1.000  H
  N41      1.0000 0.76810  0.23340  0.86560  Biso   1.000  N
  N42      1.0000 0.73190  0.76660  0.36560  Biso   1.000  N
  N43      1.0000 0.23190  0.73340  0.63440  Biso   1.000  N
  N44      1.0000 0.26810  0.26660  0.13440  Biso   1.000  N
  N45      1.0000 0.77170  0.17160  0.83250  Biso   1.000  N
  N46      1.0000 0.72830  0.82840  0.33250  Biso   1.000  N
  N47      1.0000 0.22830  0.67160  0.66750  Biso   1.000  N
  N48      1.0000 0.27170  0.32840  0.16750  Biso   1.000  N
  C61      1.0000 0.80480  0.29010  0.83490  Biso   1.000  C
  C62      1.0000 0.69520  0.70990  0.33490  Biso   1.000  C
  C63      1.0000 0.19520  0.79010  0.66510  Biso   1.000  C
  C64      1.0000 0.30480  0.20990  0.16510  Biso   1.000  C
  H61      1.0000 0.81050  0.33970  0.84800  Biso   1.000  H
  H62      1.0000 0.68950  0.66030  0.34800  Biso   1.000  H
  H63      1.0000 0.18950  0.83970  0.65200  Biso   1.000  H
  H64      1.0000 0.31050  0.16030  0.15200  Biso   1.000  H
  C65      1.0000 0.83340  0.26520  0.78080  Biso   1.000  C
  C66      1.0000 0.66660  0.73480  0.28080  Biso   1.000  C
  C67      1.0000 0.16660  0.76520  0.71920  Biso   1.000  C
  C68      1.0000 0.33340  0.23480  0.21920  Biso   1.000  C
  H65      1.0000 0.86300  0.29340  0.75050  Biso   1.000  H
  H66      1.0000 0.63700  0.70660  0.25050  Biso   1.000  H
  H67      1.0000 0.13700  0.79340  0.74950  Biso   1.000  H
  H68      1.0000 0.36300  0.20660  0.24950  Biso   1.000  H
  C69      1.0000 0.80920  0.19070  0.78100  Biso   1.000  C
  C70      1.0000 0.69080  0.80930  0.28100  Biso   1.000  C
  C71      1.0000 0.19080  0.69070  0.71900  Biso   1.000  C
  C72      1.0000 0.30920  0.30930  0.21900  Biso   1.000  C
  H69      1.0000 0.81790  0.15800  0.74960  Biso   1.000  H
  H70      1.0000 0.68210  0.84200  0.24960  Biso   1.000  H
  H71      1.0000 0.18210  0.65800  0.75040  Biso   1.000  H
  H72      1.0000 0.31790  0.34200  0.25040  Biso   1.000  H
  N49      1.0000 0.25230  0.95300  0.20850  Biso   1.000  N
  N50      1.0000 0.24770  0.04700  0.70850  Biso   1.000  N
  N51      1.0000 0.74770  0.45300  0.29150  Biso   1.000  N
  N52      1.0000 0.75230  0.54700  0.79150  Biso   1.000  N
  H73      1.0000 0.21550  0.94860  0.17670  Biso   1.000  H
  H74      1.0000 0.28450  0.05140  0.67670  Biso   1.000  H
  H75      1.0000 0.78450  0.44860  0.32330  Biso   1.000  H
  H76      1.0000 0.71550  0.55140  0.82330  Biso   1.000  H
  H77      1.0000 0.22130  0.94620  0.24170  Biso   1.000  H
  H78      1.0000 0.27870  0.05380  0.74170  Biso   1.000  H
  H79      1.0000 0.77870  0.44620  0.25830  Biso   1.000  H
  H80      1.0000 0.72130  0.55380  0.75830  Biso   1.000  H
  C73      1.0000 0.59760  0.97840  0.30390  Biso   1.000  C
  C74      1.0000 0.90240  0.02160  0.80390  Biso   1.000  C
  C75      1.0000 0.40240  0.47840  0.19610  Biso   1.000  C
  C76      1.0000 0.09760  0.52160  0.69610  Biso   1.000  C
  C77      1.0000 0.53360  0.97680  0.25100  Biso   1.000  C
  C78      1.0000 0.96640  0.02320  0.75100  Biso   1.000  C
  C79      1.0000 0.46640  0.47680  0.24900  Biso   1.000  C
  C80      1.0000 0.03360  0.52320  0.74900  Biso   1.000  C
  C81      1.0000 0.58040  0.99000  0.19830  Biso   1.000  C
  C82      1.0000 0.91960  0.01000  0.69830  Biso   1.000  C
  C83      1.0000 0.41960  0.49000  0.30170  Biso   1.000  C
  C84      1.0000 0.08040  0.51000  0.80170  Biso   1.000  C
  H81      1.0000 0.65500  0.99690  0.19580  Biso   1.000  H
  H82      1.0000 0.84500  0.00310  0.69580  Biso   1.000  H
  H83      1.0000 0.34500  0.49690  0.30420  Biso   1.000  H
  H84      1.0000 0.15500  0.50310  0.80420  Biso   1.000  H
  C85      1.0000 0.51910  0.99330  0.14920  Biso   1.000  C
  C86      1.0000 0.98090  0.00670  0.64920  Biso   1.000  C
  C87      1.0000 0.48090  0.49330  0.35080  Biso   1.000  C
  C88      1.0000 0.01910  0.50670  0.85080  Biso   1.000  C
  C89      1.0000 0.40970  0.98170  0.15330  Biso   1.000  C
  C90      1.0000 0.09030  0.01830  0.65330  Biso   1.000  C
  C91      1.0000 0.59030  0.48170  0.34670  Biso   1.000  C
  C92      1.0000 0.90970  0.51830  0.84670  Biso   1.000  C
  H85      1.0000 0.36760  0.98100  0.11970  Biso   1.000  H
  H86      1.0000 0.13240  0.01900  0.61970  Biso   1.000  H
  H87      1.0000 0.63240  0.48100  0.38030  Biso   1.000  H
  H88      1.0000 0.86760  0.51900  0.88030  Biso   1.000  H
  C93      1.0000 0.36220  0.97110  0.20600  Biso   1.000  C
  C94      1.0000 0.13780  0.02890  0.70600  Biso   1.000  C
  C95      1.0000 0.63780  0.47110  0.29400  Biso   1.000  C
  C96      1.0000 0.86220  0.52890  0.79400  Biso   1.000  C
  C97      1.0000 0.42510  0.96930  0.25480  Biso   1.000  C
  C98      1.0000 0.07490  0.03070  0.75480  Biso   1.000  C
  C99      1.0000 0.57490  0.46930  0.24520  Biso   1.000  C
  C100     1.0000 0.92510  0.53070  0.74520  Biso   1.000  C
  H89      1.0000 0.39300  0.96280  0.29120  Biso   1.000  H
  H90      1.0000 0.10700  0.03720  0.79120  Biso   1.000  H
  H91      1.0000 0.60700  0.46280  0.20880  Biso   1.000  H
  H92      1.0000 0.89300  0.53720  0.70880  Biso   1.000  H
  C101     1.0000 0.57190  0.00580  0.09310  Biso   1.000  C
  C102     1.0000 0.92810  0.99420  0.59310  Biso   1.000  C
  C103     1.0000 0.42810  0.50580  0.40690  Biso   1.000  C
  C104     1.0000 0.07190  0.49420  0.90690  Biso   1.000  C
  N53      1.0000 0.11270  0.43500  0.38140  Biso   1.000  N
  N54      1.0000 0.38730  0.56500  0.88140  Biso   1.000  N
  N55      1.0000 0.88730  0.93500  0.11860  Biso   1.000  N
  N56      1.0000 0.61270  0.06500  0.61860  Biso   1.000  N
  H93      1.0000 0.16030  0.46910  0.37370  Biso   1.000  H
  H94      1.0000 0.33970  0.53090  0.87370  Biso   1.000  H
  H95      1.0000 0.83970  0.96910  0.12630  Biso   1.000  H
  H96      1.0000 0.66030  0.03090  0.62630  Biso   1.000  H
  H97      1.0000 0.12980  0.38780  0.37920  Biso   1.000  H
  H98      1.0000 0.37020  0.61220  0.87920  Biso   1.000  H
  H99      1.0000 0.87020  0.88780  0.12080  Biso   1.000  H
  H100     1.0000 0.62980  0.11220  0.62080  Biso   1.000  H
  C105     1.0000 0.75770  0.36400  0.45080  Biso   1.000  C
  C106     1.0000 0.74230  0.63600  0.95080  Biso   1.000  C
  C107     1.0000 0.24230  0.86400  0.04920  Biso   1.000  C
  C108     1.0000 0.25770  0.13600  0.54920  Biso   1.000  C
  C109     1.0000 0.83530  0.42310  0.43280  Biso   1.000  C
  C110     1.0000 0.66470  0.57690  0.93280  Biso   1.000  C
  C111     1.0000 0.16470  0.92310  0.06720  Biso   1.000  C
  C112     1.0000 0.33530  0.07690  0.56720  Biso   1.000  C
  C113     1.0000 0.80970  0.49910  0.43930  Biso   1.000  C
  C114     1.0000 0.69030  0.50090  0.93930  Biso   1.000  C
  C115     1.0000 0.19030  0.99910  0.06070  Biso   1.000  C
  C116     1.0000 0.30970  0.00090  0.56070  Biso   1.000  C
  H101     1.0000 0.74380  0.51380  0.45530  Biso   1.000  H
  H102     1.0000 0.75620  0.48620  0.95530  Biso   1.000  H
  H103     1.0000 0.25620  0.01380  0.04470  Biso   1.000  H
  H104     1.0000 0.24380  0.98620  0.54470  Biso   1.000  H
  C117     1.0000 0.88340  0.55120  0.42160  Biso   1.000  C
  C118     1.0000 0.61660  0.44880  0.92160  Biso   1.000  C
  C119     1.0000 0.11660  0.05120  0.07840  Biso   1.000  C
  C120     1.0000 0.38340  0.94880  0.57840  Biso   1.000  C
  C121     1.0000 0.98330  0.52880  0.40050  Biso   1.000  C
  C122     1.0000 0.51670  0.47120  0.90050  Biso   1.000  C
  C123     1.0000 0.01670  0.02880  0.09950  Biso   1.000  C
  C124     1.0000 0.48330  0.97120  0.59950  Biso   1.000  C
  H105     1.0000 0.03310  0.56500  0.38840  Biso   1.000  H
  H106     1.0000 0.46690  0.43500  0.88840  Biso   1.000  H
  H107     1.0000 0.96690  0.06500  0.11160  Biso   1.000  H
  H108     1.0000 0.53310  0.93500  0.61160  Biso   1.000  H
  C125     1.0000 0.00850  0.45590  0.39730  Biso   1.000  C
  C126     1.0000 0.49150  0.54410  0.89730  Biso   1.000  C
  C127     1.0000 0.99150  0.95590  0.10270  Biso   1.000  C
  C128     1.0000 0.50850  0.04410  0.60270  Biso   1.000  C
  C129     1.0000 0.93370  0.40290  0.41220  Biso   1.000  C
  C130     1.0000 0.56630  0.59710  0.91220  Biso   1.000  C
  C131     1.0000 0.06630  0.90290  0.08780  Biso   1.000  C
  C132     1.0000 0.43370  0.09710  0.58780  Biso   1.000  C
  H109     1.0000 0.95050  0.35190  0.40830  Biso   1.000  H
  H110     1.0000 0.54950  0.64810  0.90830  Biso   1.000  H
  H111     1.0000 0.04950  0.85190  0.09170  Biso   1.000  H
  H112     1.0000 0.45050  0.14810  0.59170  Biso   1.000  H
  C133     1.0000 0.86250  0.63270  0.42470  Biso   1.000  C
  C134     1.0000 0.63750  0.36730  0.92470  Biso   1.000  C
  C135     1.0000 0.13750  0.13270  0.07530  Biso   1.000  C
  C136     1.0000 0.36250  0.86730  0.57530  Biso   1.000  C
  O41      1.0000 0.42750  0.05520  0.44550  Biso   1.000  O
  O42      1.0000 0.07250  0.94480  0.94550  Biso   1.000  O
  O43      1.0000 0.57250  0.55520  0.05450  Biso   1.000  O
  O44      1.0000 0.92750  0.44480  0.55450  Biso   1.000  O
  H113     1.0000 0.38790  0.03170  0.42310  Biso   1.000  H
  H114     1.0000 0.11210  0.96830  0.92310  Biso   1.000  H
  H115     1.0000 0.61210  0.53170  0.07690  Biso   1.000  H
  H116     1.0000 0.88790  0.46830  0.57690  Biso   1.000  H
  O45      1.0000 0.56290  0.26160  0.50980  Biso   1.000  O
  O46      1.0000 0.93710  0.73840  0.00980  Biso   1.000  O
  O47      1.0000 0.43710  0.76160  0.99020  Biso   1.000  O
  O48      1.0000 0.06290  0.23840  0.49020  Biso   1.000  O
  O49      1.0000 0.56740  0.08180  0.78860  Biso   1.000  O
  O50      1.0000 0.93260  0.91820  0.28860  Biso   1.000  O
  O51      1.0000 0.43260  0.58180  0.71140  Biso   1.000  O
  O52      1.0000 0.06740  0.41820  0.21140  Biso   1.000  O
  O53      1.0000 0.37220  0.10240  0.96390  Biso   1.000  O
  O54      1.0000 0.12780  0.89760  0.46390  Biso   1.000  O
  O55      1.0000 0.62780  0.60240  0.53610  Biso   1.000  O
  O56      1.0000 0.87220  0.39760  0.03610  Biso   1.000  O
  O57      1.0000 0.51800  0.22460  0.73200  Biso   1.000  O
  O58      1.0000 0.98200  0.77540  0.23200  Biso   1.000  O
  O59      1.0000 0.48200  0.72460  0.76800  Biso   1.000  O
  O60      1.0000 0.01800  0.27540  0.26800  Biso   1.000  O
  O61      1.0000 0.26250  0.32530  0.82160  Biso   1.000  O
  O62      1.0000 0.23750  0.67470  0.32160  Biso   1.000  O
  O63      1.0000 0.73750  0.82530  0.67840  Biso   1.000  O
  O64      1.0000 0.76250  0.17470  0.17840  Biso   1.000  O
  O65      1.0000 0.53560  0.36140  0.77530  Biso   1.000  O
  O66      1.0000 0.96440  0.63860  0.27530  Biso   1.000  O
  O67      1.0000 0.46440  0.86140  0.72470  Biso   1.000  O
  O68      1.0000 0.03560  0.13860  0.22470  Biso   1.000  O
  O69      1.0000 0.33000  0.19290  0.77600  Biso   1.000  O
  O70      1.0000 0.17000  0.80710  0.27600  Biso   1.000  O
  O71      1.0000 0.67000  0.69290  0.72400  Biso   1.000  O
  O72      1.0000 0.83000  0.30710  0.22400  Biso   1.000  O
  O73      1.0000 0.60400  0.48720  0.69980  Biso   1.000  O
  O74      1.0000 0.89600  0.51280  0.19980  Biso   1.000  O
  O75      1.0000 0.39600  0.98720  0.80020  Biso   1.000  O
  O76      1.0000 0.10400  0.01280  0.30020  Biso   1.000  O
  O77      1.0000 0.61210  0.23900  0.62640  Biso   1.000  O
  O78      1.0000 0.88790  0.76100  0.12640  Biso   1.000  O
  O79      1.0000 0.38790  0.73900  0.87360  Biso   1.000  O
  O80      1.0000 0.11210  0.26100  0.37360  Biso   1.000  O
  O81      1.0000 0.21030  0.02960  0.41900  Biso   1.000  O
  O82      1.0000 0.28970  0.97040  0.91900  Biso   1.000  O
  O83      1.0000 0.78970  0.52960  0.08100  Biso   1.000  O
  O84      1.0000 0.71030  0.47040  0.58100  Biso   1.000  O
  O85      1.0000 0.34760  0.45520  0.78520  Biso   1.000  O
  O86      1.0000 0.15240  0.54480  0.28520  Biso   1.000  O
  O87      1.0000 0.65240  0.95520  0.71480  Biso   1.000  O
  O88      1.0000 0.84760  0.04480  0.21480  Biso   1.000  O
  O89      1.0000 0.44070  0.19960  0.88320  Biso   1.000  O
  O90      1.0000 0.05930  0.80040  0.38320  Biso   1.000  O
  O91      1.0000 0.55930  0.69960  0.61680  Biso   1.000  O
  O92      1.0000 0.94070  0.30040  0.11680  Biso   1.000  O
