data_image0
_cell_length_a       18.6338
_cell_length_b       18.6338
_cell_length_c       6.7814
_cell_angle_alpha    90
_cell_angle_beta     90
_cell_angle_gamma    120

_symmetry_space_group_name_H-M    "P 1"
_symmetry_int_tables_number       1

loop_
  _symmetry_equiv_pos_as_xyz
  'x, y, z'

loop_
  _atom_site_label
  _atom_site_occupancy
  _atom_site_fract_x
  _atom_site_fract_y
  _atom_site_fract_z
  _atom_site_thermal_displace_type
  _atom_site_B_iso_or_equiv
  _atom_site_type_symbol
  Cu1      1.0000 0.52308  0.04616  0.84464  Biso   1.000  Cu
  Cu2      1.0000 0.95384  0.47692  0.84464  Biso   1.000  Cu
  Cu3      1.0000 0.52308  0.47692  0.84464  Biso   1.000  Cu
  Cu4      1.0000 0.04616  0.52308  0.15536  Biso   1.000  Cu
  Cu5      1.0000 0.47692  0.52308  0.15536  Biso   1.000  Cu
  Cu6      1.0000 0.47692  0.95384  0.15536  Biso   1.000  Cu
  S1       1.0000 0.84597  0.15403  0.74090  Biso   1.000  S
  S2       1.0000 0.84597  0.69194  0.74090  Biso   1.000  S
  S3       1.0000 0.30806  0.15403  0.74090  Biso   1.000  S
  S4       1.0000 0.15403  0.84597  0.25910  Biso   1.000  S
  S5       1.0000 0.15403  0.30806  0.25910  Biso   1.000  S
  S6       1.0000 0.69194  0.84597  0.25910  Biso   1.000  S
  O1       1.0000 0.55974  0.11950  0.58390  Biso   1.000  O
  O2       1.0000 0.88050  0.44024  0.58390  Biso   1.000  O
  O3       1.0000 0.55976  0.44026  0.58390  Biso   1.000  O
  O4       1.0000 0.11950  0.55974  0.41610  Biso   1.000  O
  O5       1.0000 0.44026  0.55976  0.41610  Biso   1.000  O
  O6       1.0000 0.44024  0.88050  0.41610  Biso   1.000  O
  O7       1.0000 0.62820  0.10950  0.98380  Biso   1.000  O
  O8       1.0000 0.89050  0.51870  0.98380  Biso   1.000  O
  O9       1.0000 0.48130  0.37180  0.98380  Biso   1.000  O
  O10      1.0000 0.10950  0.62820  0.01620  Biso   1.000  O
  O11      1.0000 0.37180  0.48130  0.01620  Biso   1.000  O
  O12      1.0000 0.51870  0.89050  0.01620  Biso   1.000  O
  O13      1.0000 0.37180  0.89050  0.01620  Biso   1.000  O
  O14      1.0000 0.10950  0.48130  0.01620  Biso   1.000  O
  O15      1.0000 0.51870  0.62820  0.01620  Biso   1.000  O
  O16      1.0000 0.89050  0.37180  0.98380  Biso   1.000  O
  O17      1.0000 0.62820  0.51870  0.98380  Biso   1.000  O
  O18      1.0000 0.48130  0.10950  0.98380  Biso   1.000  O
  O19      1.0000 0.58920  0.03110  0.24980  Biso   1.000  O
  O20      1.0000 0.96890  0.55810  0.24980  Biso   1.000  O
  O21      1.0000 0.44190  0.41080  0.24980  Biso   1.000  O
  O22      1.0000 0.03110  0.58920  0.75020  Biso   1.000  O
  O23      1.0000 0.41080  0.44190  0.75020  Biso   1.000  O
  O24      1.0000 0.55810  0.96890  0.75020  Biso   1.000  O
  O25      1.0000 0.41080  0.96890  0.75020  Biso   1.000  O
  O26      1.0000 0.03110  0.44190  0.75020  Biso   1.000  O
  O27      1.0000 0.55810  0.58920  0.75020  Biso   1.000  O
  O28      1.0000 0.96890  0.41080  0.24980  Biso   1.000  O
  O29      1.0000 0.58920  0.55810  0.24980  Biso   1.000  O
  O30      1.0000 0.44190  0.03110  0.24980  Biso   1.000  O
  C1       1.0000 0.72250  0.14880  0.24620  Biso   1.000  C
  C2       1.0000 0.85120  0.57370  0.24620  Biso   1.000  C
  C3       1.0000 0.42630  0.27750  0.24620  Biso   1.000  C
  C4       1.0000 0.14880  0.72250  0.75380  Biso   1.000  C
  C5       1.0000 0.27750  0.42630  0.75380  Biso   1.000  C
  C6       1.0000 0.57370  0.85120  0.75380  Biso   1.000  C
  C7       1.0000 0.27750  0.85120  0.75380  Biso   1.000  C
  C8       1.0000 0.14880  0.42630  0.75380  Biso   1.000  C
  C9       1.0000 0.57370  0.72250  0.75380  Biso   1.000  C
  C10      1.0000 0.85120  0.27750  0.24620  Biso   1.000  C
  C11      1.0000 0.72250  0.57370  0.24620  Biso   1.000  C
  C12      1.0000 0.42630  0.14880  0.24620  Biso   1.000  C
  C13      1.0000 0.64060  0.09210  0.15240  Biso   1.000  C
  C14      1.0000 0.90790  0.54850  0.15240  Biso   1.000  C
  C15      1.0000 0.45150  0.35940  0.15240  Biso   1.000  C
  C16      1.0000 0.09210  0.64060  0.84760  Biso   1.000  C
  C17      1.0000 0.35940  0.45150  0.84760  Biso   1.000  C
  C18      1.0000 0.54850  0.90790  0.84760  Biso   1.000  C
  C19      1.0000 0.35940  0.90790  0.84760  Biso   1.000  C
  C20      1.0000 0.09210  0.45150  0.84760  Biso   1.000  C
  C21      1.0000 0.54850  0.64060  0.84760  Biso   1.000  C
  C22      1.0000 0.90790  0.35940  0.15240  Biso   1.000  C
  C23      1.0000 0.64060  0.54850  0.15240  Biso   1.000  C
  C24      1.0000 0.45150  0.09210  0.15240  Biso   1.000  C
  C25      1.0000 0.77730  0.22270  0.15370  Biso   1.000  C
  C26      1.0000 0.77730  0.55460  0.15370  Biso   1.000  C
  C27      1.0000 0.44540  0.22270  0.15370  Biso   1.000  C
  C28      1.0000 0.22270  0.77730  0.84630  Biso   1.000  C
  C29      1.0000 0.22270  0.44540  0.84630  Biso   1.000  C
  C30      1.0000 0.55460  0.77730  0.84630  Biso   1.000  C
  H1       1.0000 0.76440  0.23560  0.02790  Biso   1.000  H
  H2       1.0000 0.76440  0.52880  0.02790  Biso   1.000  H
  H3       1.0000 0.47120  0.23560  0.02790  Biso   1.000  H
  H4       1.0000 0.23560  0.76440  0.97210  Biso   1.000  H
  H5       1.0000 0.23560  0.47120  0.97210  Biso   1.000  H
  H6       1.0000 0.52880  0.76440  0.97210  Biso   1.000  H
  C31      1.0000 0.74250  0.12790  0.42710  Biso   1.000  C
  C32      1.0000 0.87210  0.61460  0.42710  Biso   1.000  C
  C33      1.0000 0.38540  0.25750  0.42710  Biso   1.000  C
  C34      1.0000 0.12790  0.74250  0.57290  Biso   1.000  C
  C35      1.0000 0.25750  0.38540  0.57290  Biso   1.000  C
  C36      1.0000 0.61460  0.87210  0.57290  Biso   1.000  C
  C37      1.0000 0.25750  0.87210  0.57290  Biso   1.000  C
  C38      1.0000 0.12790  0.38540  0.57290  Biso   1.000  C
  C39      1.0000 0.61460  0.74250  0.57290  Biso   1.000  C
  C40      1.0000 0.87210  0.25750  0.42710  Biso   1.000  C
  C41      1.0000 0.74250  0.61460  0.42710  Biso   1.000  C
  C42      1.0000 0.38540  0.12790  0.42710  Biso   1.000  C
  H7       1.0000 0.70460  0.07720  0.48940  Biso   1.000  H
  H8       1.0000 0.92280  0.62740  0.48940  Biso   1.000  H
  H9       1.0000 0.37260  0.29540  0.48940  Biso   1.000  H
  H10      1.0000 0.07720  0.70460  0.51060  Biso   1.000  H
  H11      1.0000 0.29540  0.37260  0.51060  Biso   1.000  H
  H12      1.0000 0.62740  0.92280  0.51060  Biso   1.000  H
  H13      1.0000 0.29540  0.92280  0.51060  Biso   1.000  H
  H14      1.0000 0.07720  0.37260  0.51060  Biso   1.000  H
  H15      1.0000 0.62740  0.70460  0.51060  Biso   1.000  H
  H16      1.0000 0.92280  0.29540  0.48940  Biso   1.000  H
  H17      1.0000 0.70460  0.62740  0.48940  Biso   1.000  H
  H18      1.0000 0.37260  0.07720  0.48940  Biso   1.000  H
  C43      1.0000 0.81840  0.18160  0.51690  Biso   1.000  C
  C44      1.0000 0.81840  0.63680  0.51690  Biso   1.000  C
  C45      1.0000 0.36320  0.18160  0.51690  Biso   1.000  C
  C46      1.0000 0.18160  0.81840  0.48310  Biso   1.000  C
  C47      1.0000 0.18160  0.36320  0.48310  Biso   1.000  C
  C48      1.0000 0.63680  0.81840  0.48310  Biso   1.000  C
  C49      1.0000 0.78120  0.06260  0.80020  Biso   1.000  C
  C50      1.0000 0.93740  0.71860  0.80020  Biso   1.000  C
  C51      1.0000 0.28140  0.21880  0.80020  Biso   1.000  C
  C52      1.0000 0.06260  0.78120  0.19980  Biso   1.000  C
  C53      1.0000 0.21880  0.28140  0.19980  Biso   1.000  C
  C54      1.0000 0.71860  0.93740  0.19980  Biso   1.000  C
  C55      1.0000 0.21880  0.93740  0.19980  Biso   1.000  C
  C56      1.0000 0.06260  0.28140  0.19980  Biso   1.000  C
  C57      1.0000 0.71860  0.78120  0.19980  Biso   1.000  C
  C58      1.0000 0.93740  0.21880  0.80020  Biso   1.000  C
  C59      1.0000 0.78120  0.71860  0.80020  Biso   1.000  C
  C60      1.0000 0.28140  0.06260  0.80020  Biso   1.000  C
  H19      1.0000 0.72970  0.04440  0.72630  Biso   1.000  H
  H20      1.0000 0.95560  0.68530  0.72630  Biso   1.000  H
  H21      1.0000 0.31470  0.27030  0.72630  Biso   1.000  H
  H22      1.0000 0.04440  0.72970  0.27370  Biso   1.000  H
  H23      1.0000 0.27030  0.31470  0.27370  Biso   1.000  H
  H24      1.0000 0.68530  0.95560  0.27370  Biso   1.000  H
  H25      1.0000 0.27030  0.95560  0.27370  Biso   1.000  H
  H26      1.0000 0.04440  0.31470  0.27370  Biso   1.000  H
  H27      1.0000 0.68530  0.72970  0.27370  Biso   1.000  H
  H28      1.0000 0.95560  0.27030  0.72630  Biso   1.000  H
  H29      1.0000 0.72970  0.68530  0.72630  Biso   1.000  H
  H30      1.0000 0.31470  0.04440  0.72630  Biso   1.000  H
  H31      1.0000 0.80360  0.02630  0.76930  Biso   1.000  H
  H32      1.0000 0.97370  0.77730  0.76930  Biso   1.000  H
  H33      1.0000 0.22270  0.19640  0.76930  Biso   1.000  H
  H34      1.0000 0.02630  0.80360  0.23070  Biso   1.000  H
  H35      1.0000 0.19640  0.22270  0.23070  Biso   1.000  H
  H36      1.0000 0.77730  0.97370  0.23070  Biso   1.000  H
  H37      1.0000 0.19640  0.97370  0.23070  Biso   1.000  H
  H38      1.0000 0.02630  0.22270  0.23070  Biso   1.000  H
  H39      1.0000 0.77730  0.80360  0.23070  Biso   1.000  H
  H40      1.0000 0.97370  0.19640  0.76930  Biso   1.000  H
  H41      1.0000 0.80360  0.77730  0.76930  Biso   1.000  H
  H42      1.0000 0.22270  0.02630  0.76930  Biso   1.000  H
  H43      1.0000 0.76980  0.06010  0.94180  Biso   1.000  H
  H44      1.0000 0.93990  0.70970  0.94180  Biso   1.000  H
  H45      1.0000 0.29030  0.23020  0.94180  Biso   1.000  H
  H46      1.0000 0.06010  0.76980  0.05820  Biso   1.000  H
  H47      1.0000 0.23020  0.29030  0.05820  Biso   1.000  H
  H48      1.0000 0.70970  0.93990  0.05820  Biso   1.000  H
  H49      1.0000 0.23020  0.93990  0.05820  Biso   1.000  H
  H50      1.0000 0.06010  0.29030  0.05820  Biso   1.000  H
  H51      1.0000 0.70970  0.76980  0.05820  Biso   1.000  H
  H52      1.0000 0.93990  0.23020  0.94180  Biso   1.000  H
  H53      1.0000 0.76980  0.70970  0.94180  Biso   1.000  H
  H54      1.0000 0.29030  0.06010  0.94180  Biso   1.000  H
