data_image0
_cell_length_a       18.84
_cell_length_b       18.84
_cell_length_c       10.81
_cell_angle_alpha    90
_cell_angle_beta     90
_cell_angle_gamma    120

_symmetry_space_group_name_H-M    "P 1"
_symmetry_int_tables_number       1

loop_
  _symmetry_equiv_pos_as_xyz
  'x, y, z'

loop_
  _atom_site_label
  _atom_site_occupancy
  _atom_site_fract_x
  _atom_site_fract_y
  _atom_site_fract_z
  _atom_site_thermal_displace_type
  _atom_site_B_iso_or_equiv
  _atom_site_type_symbol
  Cu1      1.0000 0.52360  0.47640  0.90093  Biso   1.000  Cu
  Cu2      1.0000 0.52360  0.04720  0.90093  Biso   1.000  Cu
  Cu3      1.0000 0.95280  0.47640  0.90093  Biso   1.000  Cu
  Cu4      1.0000 0.47640  0.52360  0.09907  Biso   1.000  Cu
  Cu5      1.0000 0.47640  0.95280  0.09907  Biso   1.000  Cu
  Cu6      1.0000 0.04720  0.52360  0.09907  Biso   1.000  Cu
  S1       1.0000 0.68700  0.84350  0.52080  Biso   1.000  S
  S2       1.0000 0.15650  0.84350  0.52080  Biso   1.000  S
  S3       1.0000 0.15650  0.31300  0.52080  Biso   1.000  S
  S4       1.0000 0.84350  0.68700  0.47920  Biso   1.000  S
  S5       1.0000 0.31300  0.15650  0.47920  Biso   1.000  S
  S6       1.0000 0.84350  0.15650  0.47920  Biso   1.000  S
  O1       1.0000 0.55940  0.58880  0.83410  Biso   1.000  O
  O2       1.0000 0.41120  0.97060  0.83410  Biso   1.000  O
  O3       1.0000 0.02940  0.44060  0.83410  Biso   1.000  O
  O4       1.0000 0.58880  0.55940  0.16590  Biso   1.000  O
  O5       1.0000 0.44060  0.02940  0.16590  Biso   1.000  O
  O6       1.0000 0.97060  0.41120  0.16590  Biso   1.000  O
  O7       1.0000 0.44060  0.41120  0.16590  Biso   1.000  O
  O8       1.0000 0.58880  0.02940  0.16590  Biso   1.000  O
  O9       1.0000 0.97060  0.55940  0.16590  Biso   1.000  O
  O10      1.0000 0.41120  0.44060  0.83410  Biso   1.000  O
  O11      1.0000 0.55940  0.97060  0.83410  Biso   1.000  O
  O12      1.0000 0.02940  0.58880  0.83410  Biso   1.000  O
  O13      1.0000 0.51960  0.62890  0.01140  Biso   1.000  O
  O14      1.0000 0.37110  0.89070  0.01140  Biso   1.000  O
  O15      1.0000 0.10930  0.48040  0.01140  Biso   1.000  O
  O16      1.0000 0.62890  0.51960  0.98860  Biso   1.000  O
  O17      1.0000 0.48040  0.10930  0.98860  Biso   1.000  O
  O18      1.0000 0.89070  0.37110  0.98860  Biso   1.000  O
  O19      1.0000 0.48040  0.37110  0.98860  Biso   1.000  O
  O20      1.0000 0.62890  0.10930  0.98860  Biso   1.000  O
  O21      1.0000 0.89070  0.51960  0.98860  Biso   1.000  O
  O22      1.0000 0.37110  0.48040  0.01140  Biso   1.000  O
  O23      1.0000 0.51960  0.89070  0.01140  Biso   1.000  O
  O24      1.0000 0.10930  0.62890  0.01140  Biso   1.000  O
  O25      1.0000 0.56290  0.43710  0.73740  Biso   1.000  O
  O26      1.0000 0.56290  0.12580  0.73740  Biso   1.000  O
  O27      1.0000 0.87420  0.43710  0.73740  Biso   1.000  O
  O28      1.0000 0.43710  0.56290  0.26260  Biso   1.000  O
  O29      1.0000 0.43710  0.87420  0.26260  Biso   1.000  O
  O30      1.0000 0.12580  0.56290  0.26260  Biso   1.000  O
  C1       1.0000 0.54920  0.63910  0.90510  Biso   1.000  C
  C2       1.0000 0.36090  0.91010  0.90510  Biso   1.000  C
  C3       1.0000 0.08990  0.45080  0.90510  Biso   1.000  C
  C4       1.0000 0.63910  0.54920  0.09490  Biso   1.000  C
  C5       1.0000 0.45080  0.08990  0.09490  Biso   1.000  C
  C6       1.0000 0.91010  0.36090  0.09490  Biso   1.000  C
  C7       1.0000 0.45080  0.36090  0.09490  Biso   1.000  C
  C8       1.0000 0.63910  0.08990  0.09490  Biso   1.000  C
  C9       1.0000 0.91010  0.54920  0.09490  Biso   1.000  C
  C10      1.0000 0.36090  0.45080  0.90510  Biso   1.000  C
  C11      1.0000 0.54920  0.91010  0.90510  Biso   1.000  C
  C12      1.0000 0.08990  0.63910  0.90510  Biso   1.000  C
  C13      1.0000 0.57560  0.72330  0.83750  Biso   1.000  C
  C14      1.0000 0.27670  0.85230  0.83750  Biso   1.000  C
  C15      1.0000 0.14770  0.42440  0.83750  Biso   1.000  C
  C16      1.0000 0.72330  0.57560  0.16250  Biso   1.000  C
  C17      1.0000 0.42440  0.14770  0.16250  Biso   1.000  C
  C18      1.0000 0.85230  0.27670  0.16250  Biso   1.000  C
  C19      1.0000 0.42440  0.27670  0.16250  Biso   1.000  C
  C20      1.0000 0.72330  0.14770  0.16250  Biso   1.000  C
  C21      1.0000 0.85230  0.57560  0.16250  Biso   1.000  C
  C22      1.0000 0.27670  0.42440  0.83750  Biso   1.000  C
  C23      1.0000 0.57560  0.85230  0.83750  Biso   1.000  C
  C24      1.0000 0.14770  0.72330  0.83750  Biso   1.000  C
  C25      1.0000 0.55520  0.77760  0.90580  Biso   1.000  C
  C26      1.0000 0.22240  0.77760  0.90580  Biso   1.000  C
  C27      1.0000 0.22240  0.44480  0.90580  Biso   1.000  C
  C28      1.0000 0.77760  0.55520  0.09420  Biso   1.000  C
  C29      1.0000 0.44480  0.22240  0.09420  Biso   1.000  C
  C30      1.0000 0.77760  0.22240  0.09420  Biso   1.000  C
  H1       1.0000 0.53140  0.76570  0.98600  Biso   1.000  H
  H2       1.0000 0.23430  0.76570  0.98600  Biso   1.000  H
  H3       1.0000 0.23430  0.46860  0.98600  Biso   1.000  H
  H4       1.0000 0.76570  0.53140  0.01400  Biso   1.000  H
  H5       1.0000 0.46860  0.23430  0.01400  Biso   1.000  H
  H6       1.0000 0.76570  0.23430  0.01400  Biso   1.000  H
  C31      1.0000 0.61900  0.74590  0.72950  Biso   1.000  C
  C32      1.0000 0.25410  0.87310  0.72950  Biso   1.000  C
  C33      1.0000 0.12690  0.38100  0.72950  Biso   1.000  C
  C34      1.0000 0.74590  0.61900  0.27050  Biso   1.000  C
  C35      1.0000 0.38100  0.12690  0.27050  Biso   1.000  C
  C36      1.0000 0.87310  0.25410  0.27050  Biso   1.000  C
  C37      1.0000 0.38100  0.25410  0.27050  Biso   1.000  C
  C38      1.0000 0.74590  0.12690  0.27050  Biso   1.000  C
  C39      1.0000 0.87310  0.61900  0.27050  Biso   1.000  C
  C40      1.0000 0.25410  0.38100  0.72950  Biso   1.000  C
  C41      1.0000 0.61900  0.87310  0.72950  Biso   1.000  C
  C42      1.0000 0.12690  0.74590  0.72950  Biso   1.000  C
  H7       1.0000 0.63740  0.71180  0.69360  Biso   1.000  H
  H8       1.0000 0.28820  0.92560  0.69360  Biso   1.000  H
  H9       1.0000 0.07440  0.36260  0.69360  Biso   1.000  H
  H10      1.0000 0.71180  0.63740  0.30640  Biso   1.000  H
  H11      1.0000 0.36260  0.07440  0.30640  Biso   1.000  H
  H12      1.0000 0.92560  0.28820  0.30640  Biso   1.000  H
  H13      1.0000 0.36260  0.28820  0.30640  Biso   1.000  H
  H14      1.0000 0.71180  0.07440  0.30640  Biso   1.000  H
  H15      1.0000 0.92560  0.63740  0.30640  Biso   1.000  H
  H16      1.0000 0.28820  0.36260  0.69360  Biso   1.000  H
  H17      1.0000 0.63740  0.92560  0.69360  Biso   1.000  H
  H18      1.0000 0.07440  0.71180  0.69360  Biso   1.000  H
  C43      1.0000 0.63610  0.81800  0.67290  Biso   1.000  C
  C44      1.0000 0.18200  0.81810  0.67290  Biso   1.000  C
  C45      1.0000 0.18190  0.36390  0.67290  Biso   1.000  C
  C46      1.0000 0.81800  0.63610  0.32710  Biso   1.000  C
  C47      1.0000 0.36390  0.18190  0.32710  Biso   1.000  C
  C48      1.0000 0.81810  0.18200  0.32710  Biso   1.000  C
  C49      1.0000 0.67300  0.75700  0.41400  Biso   1.000  C
  C50      1.0000 0.24300  0.91600  0.41400  Biso   1.000  C
  C51      1.0000 0.08400  0.32700  0.41400  Biso   1.000  C
  C52      1.0000 0.75700  0.67300  0.58600  Biso   1.000  C
  C53      1.0000 0.32700  0.08400  0.58600  Biso   1.000  C
  C54      1.0000 0.91600  0.24300  0.58600  Biso   1.000  C
  C55      1.0000 0.32700  0.24300  0.58600  Biso   1.000  C
  C56      1.0000 0.75700  0.08400  0.58600  Biso   1.000  C
  C57      1.0000 0.91600  0.67300  0.58600  Biso   1.000  C
  C58      1.0000 0.24300  0.32700  0.41400  Biso   1.000  C
  C59      1.0000 0.67300  0.91600  0.41400  Biso   1.000  C
  C60      1.0000 0.08400  0.75700  0.41400  Biso   1.000  C
  H19      1.0000 0.70330  0.77960  0.33720  Biso   1.000  H
  H20      1.0000 0.22040  0.92370  0.33720  Biso   1.000  H
  H21      1.0000 0.07630  0.29670  0.33720  Biso   1.000  H
  H22      1.0000 0.77960  0.70330  0.66280  Biso   1.000  H
  H23      1.0000 0.29670  0.07630  0.66280  Biso   1.000  H
  H24      1.0000 0.92370  0.22040  0.66280  Biso   1.000  H
  H25      1.0000 0.29670  0.22040  0.66280  Biso   1.000  H
  H26      1.0000 0.77960  0.07630  0.66280  Biso   1.000  H
  H27      1.0000 0.92370  0.70330  0.66280  Biso   1.000  H
  H28      1.0000 0.22040  0.29670  0.33720  Biso   1.000  H
  H29      1.0000 0.70330  0.92370  0.33720  Biso   1.000  H
  H30      1.0000 0.07630  0.77960  0.33720  Biso   1.000  H
  H31      1.0000 0.69320  0.72390  0.45520  Biso   1.000  H
  H32      1.0000 0.27610  0.96930  0.45520  Biso   1.000  H
  H33      1.0000 0.03070  0.30680  0.45520  Biso   1.000  H
  H34      1.0000 0.72390  0.69320  0.54480  Biso   1.000  H
  H35      1.0000 0.30680  0.03070  0.54480  Biso   1.000  H
  H36      1.0000 0.96930  0.27610  0.54480  Biso   1.000  H
  H37      1.0000 0.30680  0.27610  0.54480  Biso   1.000  H
  H38      1.0000 0.72390  0.03070  0.54480  Biso   1.000  H
  H39      1.0000 0.96930  0.69320  0.54480  Biso   1.000  H
  H40      1.0000 0.27610  0.30680  0.45520  Biso   1.000  H
  H41      1.0000 0.69320  0.96930  0.45520  Biso   1.000  H
  H42      1.0000 0.03070  0.72390  0.45520  Biso   1.000  H
  H43      1.0000 0.61440  0.72160  0.39510  Biso   1.000  H
  H44      1.0000 0.27840  0.89280  0.39510  Biso   1.000  H
  H45      1.0000 0.10720  0.38560  0.39510  Biso   1.000  H
  H46      1.0000 0.72160  0.61440  0.60490  Biso   1.000  H
  H47      1.0000 0.38560  0.10720  0.60490  Biso   1.000  H
  H48      1.0000 0.89280  0.27840  0.60490  Biso   1.000  H
  H49      1.0000 0.38560  0.27840  0.60490  Biso   1.000  H
  H50      1.0000 0.72160  0.10720  0.60490  Biso   1.000  H
  H51      1.0000 0.89280  0.61440  0.60490  Biso   1.000  H
  H52      1.0000 0.27840  0.38560  0.39510  Biso   1.000  H
  H53      1.0000 0.61440  0.89280  0.39510  Biso   1.000  H
  H54      1.0000 0.10720  0.72160  0.39510  Biso   1.000  H
