data_image0
_cell_length_a       18.961
_cell_length_b       18.961
_cell_length_c       17.073
_cell_angle_alpha    90
_cell_angle_beta     90
_cell_angle_gamma    120

_symmetry_space_group_name_H-M    "P 1"
_symmetry_int_tables_number       1

loop_
  _symmetry_equiv_pos_as_xyz
  'x, y, z'

loop_
  _atom_site_label
  _atom_site_occupancy
  _atom_site_fract_x
  _atom_site_fract_y
  _atom_site_fract_z
  _atom_site_thermal_displace_type
  _atom_site_B_iso_or_equiv
  _atom_site_type_symbol
  Cu1      1.0000 0.95270  0.47635  0.63932  Biso   1.000  Cu
  Cu2      1.0000 0.52365  0.47635  0.63932  Biso   1.000  Cu
  Cu3      1.0000 0.52365  0.04730  0.63932  Biso   1.000  Cu
  Cu4      1.0000 0.47635  0.95270  0.36068  Biso   1.000  Cu
  Cu5      1.0000 0.04730  0.52365  0.36068  Biso   1.000  Cu
  Cu6      1.0000 0.47635  0.52365  0.36068  Biso   1.000  Cu
  Cu7      1.0000 0.04570  0.52285  0.76611  Biso   1.000  Cu
  Cu8      1.0000 0.47715  0.52285  0.76611  Biso   1.000  Cu
  Cu9      1.0000 0.47715  0.95430  0.76611  Biso   1.000  Cu
  Cu10     1.0000 0.52285  0.04570  0.23389  Biso   1.000  Cu
  Cu11     1.0000 0.95430  0.47715  0.23389  Biso   1.000  Cu
  Cu12     1.0000 0.52285  0.47715  0.23389  Biso   1.000  Cu
  S1       1.0000 0.84080  0.15920  0.00650  Biso   1.000  S
  S2       1.0000 0.84080  0.68160  0.00650  Biso   1.000  S
  S3       1.0000 0.31840  0.15920  0.00650  Biso   1.000  S
  S4       1.0000 0.15920  0.84080  0.99350  Biso   1.000  S
  S5       1.0000 0.15920  0.31840  0.99350  Biso   1.000  S
  S6       1.0000 0.68160  0.84080  0.99350  Biso   1.000  S
  S7       1.0000 0.15190  0.30380  0.40568  Biso   1.000  S
  S8       1.0000 0.69620  0.84810  0.40568  Biso   1.000  S
  S9       1.0000 0.15190  0.84810  0.40568  Biso   1.000  S
  S10      1.0000 0.30380  0.15190  0.59432  Biso   1.000  S
  S11      1.0000 0.84810  0.15190  0.59432  Biso   1.000  S
  S12      1.0000 0.84810  0.69620  0.59432  Biso   1.000  S
  O1       1.0000 0.12390  0.56190  0.87190  Biso   1.000  O
  O2       1.0000 0.43810  0.56200  0.87190  Biso   1.000  O
  O3       1.0000 0.43800  0.87610  0.87190  Biso   1.000  O
  O4       1.0000 0.56190  0.12390  0.12810  Biso   1.000  O
  O5       1.0000 0.87610  0.43800  0.12810  Biso   1.000  O
  O6       1.0000 0.56200  0.43810  0.12810  Biso   1.000  O
  O7       1.0000 0.88400  0.44200  0.53230  Biso   1.000  O
  O8       1.0000 0.55800  0.44200  0.53230  Biso   1.000  O
  O9       1.0000 0.55800  0.11600  0.53230  Biso   1.000  O
  O10      1.0000 0.44200  0.88400  0.46770  Biso   1.000  O
  O11      1.0000 0.11600  0.55800  0.46770  Biso   1.000  O
  O12      1.0000 0.44200  0.55800  0.46770  Biso   1.000  O
  O13      1.0000 0.03120  0.44160  0.60070  Biso   1.000  O
  O14      1.0000 0.55840  0.58960  0.60070  Biso   1.000  O
  O15      1.0000 0.41040  0.96880  0.60070  Biso   1.000  O
  O16      1.0000 0.44160  0.03120  0.39930  Biso   1.000  O
  O17      1.0000 0.96880  0.41040  0.39930  Biso   1.000  O
  O18      1.0000 0.58960  0.55840  0.39930  Biso   1.000  O
  O19      1.0000 0.96880  0.55840  0.39930  Biso   1.000  O
  O20      1.0000 0.44160  0.41040  0.39930  Biso   1.000  O
  O21      1.0000 0.58960  0.03120  0.39930  Biso   1.000  O
  O22      1.0000 0.55840  0.96880  0.60070  Biso   1.000  O
  O23      1.0000 0.03120  0.58960  0.60070  Biso   1.000  O
  O24      1.0000 0.41040  0.44160  0.60070  Biso   1.000  O
  O25      1.0000 0.10960  0.48070  0.71060  Biso   1.000  O
  O26      1.0000 0.51930  0.62890  0.71060  Biso   1.000  O
  O27      1.0000 0.37110  0.89040  0.71060  Biso   1.000  O
  O28      1.0000 0.48070  0.10960  0.28940  Biso   1.000  O
  O29      1.0000 0.89040  0.37110  0.28940  Biso   1.000  O
  O30      1.0000 0.62890  0.51930  0.28940  Biso   1.000  O
  O31      1.0000 0.89040  0.51930  0.28940  Biso   1.000  O
  O32      1.0000 0.48070  0.37110  0.28940  Biso   1.000  O
  O33      1.0000 0.62890  0.10960  0.28940  Biso   1.000  O
  O34      1.0000 0.51930  0.89040  0.71060  Biso   1.000  O
  O35      1.0000 0.10960  0.62890  0.71060  Biso   1.000  O
  O36      1.0000 0.37110  0.48070  0.71060  Biso   1.000  O
  O37      1.0000 0.96970  0.41180  0.80600  Biso   1.000  O
  O38      1.0000 0.58820  0.55790  0.80600  Biso   1.000  O
  O39      1.0000 0.44210  0.03030  0.80600  Biso   1.000  O
  O40      1.0000 0.41180  0.96970  0.19400  Biso   1.000  O
  O41      1.0000 0.03030  0.44210  0.19400  Biso   1.000  O
  O42      1.0000 0.55790  0.58820  0.19400  Biso   1.000  O
  O43      1.0000 0.03030  0.58820  0.19400  Biso   1.000  O
  O44      1.0000 0.41180  0.44210  0.19400  Biso   1.000  O
  O45      1.0000 0.55790  0.96970  0.19400  Biso   1.000  O
  O46      1.0000 0.58820  0.03030  0.80600  Biso   1.000  O
  O47      1.0000 0.96970  0.55790  0.80600  Biso   1.000  O
  O48      1.0000 0.44210  0.41180  0.80600  Biso   1.000  O
  O49      1.0000 0.89030  0.37140  0.69500  Biso   1.000  O
  O50      1.0000 0.62860  0.51890  0.69500  Biso   1.000  O
  O51      1.0000 0.48110  0.10970  0.69500  Biso   1.000  O
  O52      1.0000 0.37140  0.89030  0.30500  Biso   1.000  O
  O53      1.0000 0.10970  0.48110  0.30500  Biso   1.000  O
  O54      1.0000 0.51890  0.62860  0.30500  Biso   1.000  O
  O55      1.0000 0.10970  0.62860  0.30500  Biso   1.000  O
  O56      1.0000 0.37140  0.48110  0.30500  Biso   1.000  O
  O57      1.0000 0.51890  0.89030  0.30500  Biso   1.000  O
  O58      1.0000 0.62860  0.10970  0.69500  Biso   1.000  O
  O59      1.0000 0.89030  0.51890  0.69500  Biso   1.000  O
  O60      1.0000 0.48110  0.37140  0.69500  Biso   1.000  O
  C1       1.0000 0.90880  0.35920  0.76510  Biso   1.000  C
  C2       1.0000 0.64080  0.54960  0.76510  Biso   1.000  C
  C3       1.0000 0.45040  0.09120  0.76510  Biso   1.000  C
  C4       1.0000 0.35920  0.90880  0.23490  Biso   1.000  C
  C5       1.0000 0.09120  0.45040  0.23490  Biso   1.000  C
  C6       1.0000 0.54960  0.64080  0.23490  Biso   1.000  C
  C7       1.0000 0.09120  0.64080  0.23490  Biso   1.000  C
  C8       1.0000 0.35920  0.45040  0.23490  Biso   1.000  C
  C9       1.0000 0.54960  0.90880  0.23490  Biso   1.000  C
  C10      1.0000 0.64080  0.09120  0.76510  Biso   1.000  C
  C11      1.0000 0.90880  0.54960  0.76510  Biso   1.000  C
  C12      1.0000 0.45040  0.35920  0.76510  Biso   1.000  C
  C13      1.0000 0.77830  0.22170  0.76470  Biso   1.000  C
  C14      1.0000 0.77830  0.55660  0.76470  Biso   1.000  C
  C15      1.0000 0.44340  0.22170  0.76470  Biso   1.000  C
  C16      1.0000 0.22170  0.77830  0.23530  Biso   1.000  C
  C17      1.0000 0.22170  0.44340  0.23530  Biso   1.000  C
  C18      1.0000 0.55660  0.77830  0.23530  Biso   1.000  C
  H1       1.0000 0.76530  0.23470  0.71490  Biso   1.000  H
  H2       1.0000 0.76530  0.53060  0.71490  Biso   1.000  H
  H3       1.0000 0.46940  0.23470  0.71490  Biso   1.000  H
  H4       1.0000 0.23470  0.76530  0.28510  Biso   1.000  H
  H5       1.0000 0.23470  0.46940  0.28510  Biso   1.000  H
  H6       1.0000 0.53060  0.76530  0.28510  Biso   1.000  H
  C19      1.0000 0.85320  0.27770  0.80110  Biso   1.000  C
  C20      1.0000 0.72230  0.57550  0.80110  Biso   1.000  C
  C21      1.0000 0.42450  0.14680  0.80110  Biso   1.000  C
  C22      1.0000 0.27770  0.85320  0.19890  Biso   1.000  C
  C23      1.0000 0.14680  0.42450  0.19890  Biso   1.000  C
  C24      1.0000 0.57550  0.72230  0.19890  Biso   1.000  C
  C25      1.0000 0.14680  0.72230  0.19890  Biso   1.000  C
  C26      1.0000 0.27770  0.42450  0.19890  Biso   1.000  C
  C27      1.0000 0.57550  0.85320  0.19890  Biso   1.000  C
  C28      1.0000 0.72230  0.14680  0.80110  Biso   1.000  C
  C29      1.0000 0.85320  0.57550  0.80110  Biso   1.000  C
  C30      1.0000 0.42450  0.27770  0.80110  Biso   1.000  C
  C31      1.0000 0.87410  0.25690  0.87390  Biso   1.000  C
  C32      1.0000 0.74310  0.61720  0.87390  Biso   1.000  C
  C33      1.0000 0.38280  0.12590  0.87390  Biso   1.000  C
  C34      1.0000 0.25690  0.87410  0.12610  Biso   1.000  C
  C35      1.0000 0.12590  0.38280  0.12610  Biso   1.000  C
  C36      1.0000 0.61720  0.74310  0.12610  Biso   1.000  C
  C37      1.0000 0.12590  0.74310  0.12610  Biso   1.000  C
  C38      1.0000 0.25690  0.38280  0.12610  Biso   1.000  C
  C39      1.0000 0.61720  0.87410  0.12610  Biso   1.000  C
  C40      1.0000 0.74310  0.12590  0.87390  Biso   1.000  C
  C41      1.0000 0.87410  0.61720  0.87390  Biso   1.000  C
  C42      1.0000 0.38280  0.25690  0.87390  Biso   1.000  C
  H7       1.0000 0.92480  0.29250  0.89800  Biso   1.000  H
  H8       1.0000 0.70750  0.63230  0.89800  Biso   1.000  H
  H9       1.0000 0.36770  0.07520  0.89800  Biso   1.000  H
  H10      1.0000 0.29250  0.92480  0.10200  Biso   1.000  H
  H11      1.0000 0.07520  0.36770  0.10200  Biso   1.000  H
  H12      1.0000 0.63230  0.70750  0.10200  Biso   1.000  H
  H13      1.0000 0.07520  0.70750  0.10200  Biso   1.000  H
  H14      1.0000 0.29250  0.36770  0.10200  Biso   1.000  H
  H15      1.0000 0.63230  0.92480  0.10200  Biso   1.000  H
  H16      1.0000 0.70750  0.07520  0.89800  Biso   1.000  H
  H17      1.0000 0.92480  0.63230  0.89800  Biso   1.000  H
  H18      1.0000 0.36770  0.29250  0.89800  Biso   1.000  H
  C43      1.0000 0.81800  0.18200  0.91040  Biso   1.000  C
  C44      1.0000 0.81800  0.63600  0.91040  Biso   1.000  C
  C45      1.0000 0.36400  0.18200  0.91040  Biso   1.000  C
  C46      1.0000 0.18200  0.81800  0.08960  Biso   1.000  C
  C47      1.0000 0.18200  0.36400  0.08960  Biso   1.000  C
  C48      1.0000 0.63600  0.81800  0.08960  Biso   1.000  C
  C49      1.0000 0.09340  0.45240  0.64500  Biso   1.000  C
  C50      1.0000 0.54760  0.64100  0.64500  Biso   1.000  C
  C51      1.0000 0.35900  0.90660  0.64500  Biso   1.000  C
  C52      1.0000 0.45240  0.09340  0.35500  Biso   1.000  C
  C53      1.0000 0.90660  0.35900  0.35500  Biso   1.000  C
  C54      1.0000 0.64100  0.54760  0.35500  Biso   1.000  C
  C55      1.0000 0.90660  0.54760  0.35500  Biso   1.000  C
  C56      1.0000 0.45240  0.35900  0.35500  Biso   1.000  C
  C57      1.0000 0.64100  0.09340  0.35500  Biso   1.000  C
  C58      1.0000 0.54760  0.90660  0.64500  Biso   1.000  C
  C59      1.0000 0.09340  0.64100  0.64500  Biso   1.000  C
  C60      1.0000 0.35900  0.45240  0.64500  Biso   1.000  C
  C61      1.0000 0.22320  0.44640  0.63840  Biso   1.000  C
  C62      1.0000 0.55360  0.77680  0.63840  Biso   1.000  C
  C63      1.0000 0.22320  0.77680  0.63840  Biso   1.000  C
  C64      1.0000 0.44640  0.22320  0.36160  Biso   1.000  C
  C65      1.0000 0.77680  0.22320  0.36160  Biso   1.000  C
  C66      1.0000 0.77680  0.55360  0.36160  Biso   1.000  C
  H19      1.0000 0.23700  0.47390  0.68730  Biso   1.000  H
  H20      1.0000 0.52610  0.76310  0.68730  Biso   1.000  H
  H21      1.0000 0.23690  0.76300  0.68730  Biso   1.000  H
  H22      1.0000 0.47390  0.23700  0.31270  Biso   1.000  H
  H23      1.0000 0.76300  0.23690  0.31270  Biso   1.000  H
  H24      1.0000 0.76310  0.52610  0.31270  Biso   1.000  H
  C67      1.0000 0.14840  0.42640  0.60290  Biso   1.000  C
  C68      1.0000 0.57360  0.72200  0.60290  Biso   1.000  C
  C69      1.0000 0.27800  0.85160  0.60290  Biso   1.000  C
  C70      1.0000 0.42640  0.14840  0.39710  Biso   1.000  C
  C71      1.0000 0.85160  0.27800  0.39710  Biso   1.000  C
  C72      1.0000 0.72200  0.57360  0.39710  Biso   1.000  C
  C73      1.0000 0.85160  0.57360  0.39710  Biso   1.000  C
  C74      1.0000 0.42640  0.27800  0.39710  Biso   1.000  C
  C75      1.0000 0.72200  0.14840  0.39710  Biso   1.000  C
  C76      1.0000 0.57360  0.85160  0.60290  Biso   1.000  C
  C77      1.0000 0.14840  0.72200  0.60290  Biso   1.000  C
  C78      1.0000 0.27800  0.42640  0.60290  Biso   1.000  C
  C79      1.0000 0.12840  0.38440  0.53130  Biso   1.000  C
  C80      1.0000 0.61560  0.74400  0.53130  Biso   1.000  C
  C81      1.0000 0.25600  0.87160  0.53130  Biso   1.000  C
  C82      1.0000 0.38440  0.12840  0.46870  Biso   1.000  C
  C83      1.0000 0.87160  0.25600  0.46870  Biso   1.000  C
  C84      1.0000 0.74400  0.61560  0.46870  Biso   1.000  C
  C85      1.0000 0.87160  0.61560  0.46870  Biso   1.000  C
  C86      1.0000 0.38440  0.25600  0.46870  Biso   1.000  C
  C87      1.0000 0.74400  0.12840  0.46870  Biso   1.000  C
  C88      1.0000 0.61560  0.87160  0.53130  Biso   1.000  C
  C89      1.0000 0.12840  0.74400  0.53130  Biso   1.000  C
  C90      1.0000 0.25600  0.38440  0.53130  Biso   1.000  C
  H25      1.0000 0.07880  0.37160  0.50600  Biso   1.000  H
  H26      1.0000 0.62840  0.70720  0.50600  Biso   1.000  H
  H27      1.0000 0.29280  0.92120  0.50600  Biso   1.000  H
  H28      1.0000 0.37160  0.07880  0.49400  Biso   1.000  H
  H29      1.0000 0.92120  0.29280  0.49400  Biso   1.000  H
  H30      1.0000 0.70720  0.62840  0.49400  Biso   1.000  H
  H31      1.0000 0.92120  0.62840  0.49400  Biso   1.000  H
  H32      1.0000 0.37160  0.29280  0.49400  Biso   1.000  H
  H33      1.0000 0.70720  0.07880  0.49400  Biso   1.000  H
  H34      1.0000 0.62840  0.92120  0.50600  Biso   1.000  H
  H35      1.0000 0.07880  0.70720  0.50600  Biso   1.000  H
  H36      1.0000 0.29280  0.37160  0.50600  Biso   1.000  H
  C91      1.0000 0.18050  0.36100  0.49670  Biso   1.000  C
  C92      1.0000 0.63900  0.81950  0.49670  Biso   1.000  C
  C93      1.0000 0.18050  0.81950  0.49670  Biso   1.000  C
  C94      1.0000 0.36100  0.18050  0.50330  Biso   1.000  C
  C95      1.0000 0.81950  0.18050  0.50330  Biso   1.000  C
  C96      1.0000 0.81950  0.63900  0.50330  Biso   1.000  C
  C97      1.0000 0.21740  0.27750  0.37960  Biso   1.000  C
  C98      1.0000 0.72250  0.93990  0.37960  Biso   1.000  C
  C99      1.0000 0.06010  0.78260  0.37960  Biso   1.000  C
  C100     1.0000 0.27750  0.21740  0.62040  Biso   1.000  C
  C101     1.0000 0.78260  0.06010  0.62040  Biso   1.000  C
  C102     1.0000 0.93990  0.72250  0.62040  Biso   1.000  C
  C103     1.0000 0.78260  0.72250  0.62040  Biso   1.000  C
  C104     1.0000 0.27750  0.06010  0.62040  Biso   1.000  C
  C105     1.0000 0.93990  0.21740  0.62040  Biso   1.000  C
  C106     1.0000 0.72250  0.78260  0.37960  Biso   1.000  C
  C107     1.0000 0.21740  0.93990  0.37960  Biso   1.000  C
  C108     1.0000 0.06010  0.27750  0.37960  Biso   1.000  C
  H37      1.0000 0.26740  0.30840  0.41020  Biso   1.000  H
  H38      1.0000 0.69160  0.95900  0.41020  Biso   1.000  H
  H39      1.0000 0.04100  0.73260  0.41020  Biso   1.000  H
  H40      1.0000 0.30840  0.26740  0.58980  Biso   1.000  H
  H41      1.0000 0.73260  0.04100  0.58980  Biso   1.000  H
  H42      1.0000 0.95900  0.69160  0.58980  Biso   1.000  H
  H43      1.0000 0.73260  0.69160  0.58980  Biso   1.000  H
  H44      1.0000 0.30840  0.04100  0.58980  Biso   1.000  H
  H45      1.0000 0.95900  0.26740  0.58980  Biso   1.000  H
  H46      1.0000 0.69160  0.73260  0.41020  Biso   1.000  H
  H47      1.0000 0.26740  0.95900  0.41020  Biso   1.000  H
  H48      1.0000 0.04100  0.30840  0.41020  Biso   1.000  H
  H49      1.0000 0.19470  0.21910  0.38910  Biso   1.000  H
  H50      1.0000 0.78090  0.97560  0.38910  Biso   1.000  H
  H51      1.0000 0.02440  0.80530  0.38910  Biso   1.000  H
  H52      1.0000 0.21910  0.19470  0.61090  Biso   1.000  H
  H53      1.0000 0.80530  0.02440  0.61090  Biso   1.000  H
  H54      1.0000 0.97560  0.78090  0.61090  Biso   1.000  H
  H55      1.0000 0.80530  0.78090  0.61090  Biso   1.000  H
  H56      1.0000 0.21910  0.02440  0.61090  Biso   1.000  H
  H57      1.0000 0.97560  0.19470  0.61090  Biso   1.000  H
  H58      1.0000 0.78090  0.80530  0.38910  Biso   1.000  H
  H59      1.0000 0.19470  0.97560  0.38910  Biso   1.000  H
  H60      1.0000 0.02440  0.21910  0.38910  Biso   1.000  H
  H61      1.0000 0.22970  0.28900  0.32380  Biso   1.000  H
  H62      1.0000 0.71100  0.94070  0.32380  Biso   1.000  H
  H63      1.0000 0.05930  0.77030  0.32380  Biso   1.000  H
  H64      1.0000 0.28900  0.22970  0.67620  Biso   1.000  H
  H65      1.0000 0.77030  0.05930  0.67620  Biso   1.000  H
  H66      1.0000 0.94070  0.71100  0.67620  Biso   1.000  H
  H67      1.0000 0.77030  0.71100  0.67620  Biso   1.000  H
  H68      1.0000 0.28900  0.05930  0.67620  Biso   1.000  H
  H69      1.0000 0.94070  0.22970  0.67620  Biso   1.000  H
  H70      1.0000 0.71100  0.77030  0.32380  Biso   1.000  H
  H71      1.0000 0.22970  0.94070  0.32380  Biso   1.000  H
  H72      1.0000 0.05930  0.28900  0.32380  Biso   1.000  H
  C109     1.0000 0.93140  0.23500  0.03890  Biso   1.000  C
  C110     1.0000 0.76500  0.69640  0.03890  Biso   1.000  C
  C111     1.0000 0.30360  0.06860  0.03890  Biso   1.000  C
  C112     1.0000 0.23500  0.93140  0.96110  Biso   1.000  C
  C113     1.0000 0.06860  0.30360  0.96110  Biso   1.000  C
  C114     1.0000 0.69640  0.76500  0.96110  Biso   1.000  C
  C115     1.0000 0.06860  0.76500  0.96110  Biso   1.000  C
  C116     1.0000 0.23500  0.30360  0.96110  Biso   1.000  C
  C117     1.0000 0.69640  0.93140  0.96110  Biso   1.000  C
  C118     1.0000 0.76500  0.06860  0.03890  Biso   1.000  C
  C119     1.0000 0.93140  0.69640  0.03890  Biso   1.000  C
  C120     1.0000 0.30360  0.23500  0.03890  Biso   1.000  C
  H73      1.0000 0.95580  0.27760  0.99880  Biso   1.000  H
  H74      1.0000 0.72240  0.67820  0.99880  Biso   1.000  H
  H75      1.0000 0.32180  0.04420  0.99880  Biso   1.000  H
  H76      1.0000 0.27760  0.95580  0.00120  Biso   1.000  H
  H77      1.0000 0.04420  0.32180  0.00120  Biso   1.000  H
  H78      1.0000 0.67820  0.72240  0.00120  Biso   1.000  H
  H79      1.0000 0.04420  0.72240  0.00120  Biso   1.000  H
  H80      1.0000 0.27760  0.32180  0.00120  Biso   1.000  H
  H81      1.0000 0.67820  0.95580  0.00120  Biso   1.000  H
  H82      1.0000 0.72240  0.04420  0.99880  Biso   1.000  H
  H83      1.0000 0.95580  0.67820  0.99880  Biso   1.000  H
  H84      1.0000 0.32180  0.27760  0.99880  Biso   1.000  H
  H85      1.0000 0.92320  0.25810  0.08710  Biso   1.000  H
  H86      1.0000 0.74190  0.66510  0.08710  Biso   1.000  H
  H87      1.0000 0.33490  0.07680  0.08710  Biso   1.000  H
  H88      1.0000 0.25810  0.92320  0.91290  Biso   1.000  H
  H89      1.0000 0.07680  0.33490  0.91290  Biso   1.000  H
  H90      1.0000 0.66510  0.74190  0.91290  Biso   1.000  H
  H91      1.0000 0.07680  0.74190  0.91290  Biso   1.000  H
  H92      1.0000 0.25810  0.33490  0.91290  Biso   1.000  H
  H93      1.0000 0.66510  0.92320  0.91290  Biso   1.000  H
  H94      1.0000 0.74190  0.07680  0.08710  Biso   1.000  H
  H95      1.0000 0.92320  0.66510  0.08710  Biso   1.000  H
  H96      1.0000 0.33490  0.25810  0.08710  Biso   1.000  H
  H97      1.0000 0.96780  0.21340  0.04950  Biso   1.000  H
  H98      1.0000 0.78660  0.75440  0.04950  Biso   1.000  H
  H99      1.0000 0.24560  0.03220  0.04950  Biso   1.000  H
  H100     1.0000 0.21340  0.96780  0.95050  Biso   1.000  H
  H101     1.0000 0.03220  0.24560  0.95050  Biso   1.000  H
  H102     1.0000 0.75440  0.78660  0.95050  Biso   1.000  H
  H103     1.0000 0.03220  0.78660  0.95050  Biso   1.000  H
  H104     1.0000 0.21340  0.24560  0.95050  Biso   1.000  H
  H105     1.0000 0.75440  0.96780  0.95050  Biso   1.000  H
  H106     1.0000 0.78660  0.03220  0.04950  Biso   1.000  H
  H107     1.0000 0.96780  0.75440  0.04950  Biso   1.000  H
  H108     1.0000 0.24560  0.21340  0.04950  Biso   1.000  H
