data_image0
_cell_length_a       18.98
_cell_length_b       18.98
_cell_length_c       11.795
_cell_angle_alpha    90
_cell_angle_beta     90
_cell_angle_gamma    120

_symmetry_space_group_name_H-M    "P 1"
_symmetry_int_tables_number       1

loop_
  _symmetry_equiv_pos_as_xyz
  'x, y, z'

loop_
  _atom_site_label
  _atom_site_occupancy
  _atom_site_fract_x
  _atom_site_fract_y
  _atom_site_fract_z
  _atom_site_thermal_displace_type
  _atom_site_B_iso_or_equiv
  _atom_site_type_symbol
  Cu1      1.0000 0.52448  0.04895  0.09165  Biso   1.000  Cu
  Cu2      1.0000 0.95105  0.47553  0.09165  Biso   1.000  Cu
  Cu3      1.0000 0.52447  0.47552  0.09165  Biso   1.000  Cu
  Cu4      1.0000 0.04895  0.52448  0.90835  Biso   1.000  Cu
  Cu5      1.0000 0.47552  0.52447  0.90835  Biso   1.000  Cu
  Cu6      1.0000 0.47553  0.95105  0.90835  Biso   1.000  Cu
  S1       1.0000 0.30760  0.15380  0.54780  Biso   1.000  S
  S2       1.0000 0.84620  0.15380  0.54780  Biso   1.000  S
  S3       1.0000 0.84620  0.69240  0.54780  Biso   1.000  S
  S4       1.0000 0.15380  0.30760  0.45220  Biso   1.000  S
  S5       1.0000 0.69240  0.84620  0.45220  Biso   1.000  S
  S6       1.0000 0.15380  0.84620  0.45220  Biso   1.000  S
  O1       1.0000 0.56860  0.13720  0.23910  Biso   1.000  O
  O2       1.0000 0.86280  0.43140  0.23910  Biso   1.000  O
  O3       1.0000 0.56860  0.43140  0.23910  Biso   1.000  O
  O4       1.0000 0.13720  0.56860  0.76090  Biso   1.000  O
  O5       1.0000 0.43140  0.56860  0.76090  Biso   1.000  O
  O6       1.0000 0.43140  0.86280  0.76090  Biso   1.000  O
  O7       1.0000 0.43620  0.02410  0.84670  Biso   1.000  O
  O8       1.0000 0.97590  0.41210  0.84670  Biso   1.000  O
  O9       1.0000 0.58790  0.56380  0.84670  Biso   1.000  O
  O10      1.0000 0.02410  0.43620  0.15330  Biso   1.000  O
  O11      1.0000 0.56380  0.58790  0.15330  Biso   1.000  O
  O12      1.0000 0.41210  0.97590  0.15330  Biso   1.000  O
  O13      1.0000 0.56380  0.97590  0.15330  Biso   1.000  O
  O14      1.0000 0.02410  0.58790  0.15330  Biso   1.000  O
  O15      1.0000 0.41210  0.43620  0.15330  Biso   1.000  O
  O16      1.0000 0.97590  0.56380  0.84670  Biso   1.000  O
  O17      1.0000 0.43620  0.41210  0.84670  Biso   1.000  O
  O18      1.0000 0.58790  0.02410  0.84670  Biso   1.000  O
  O19      1.0000 0.47910  0.10850  0.00740  Biso   1.000  O
  O20      1.0000 0.89150  0.37060  0.00740  Biso   1.000  O
  O21      1.0000 0.62940  0.52090  0.00740  Biso   1.000  O
  O22      1.0000 0.10850  0.47910  0.99260  Biso   1.000  O
  O23      1.0000 0.52090  0.62940  0.99260  Biso   1.000  O
  O24      1.0000 0.37060  0.89150  0.99260  Biso   1.000  O
  O25      1.0000 0.52090  0.89150  0.99260  Biso   1.000  O
  O26      1.0000 0.10850  0.62940  0.99260  Biso   1.000  O
  O27      1.0000 0.37060  0.47910  0.99260  Biso   1.000  O
  O28      1.0000 0.89150  0.52090  0.00740  Biso   1.000  O
  O29      1.0000 0.47910  0.37060  0.00740  Biso   1.000  O
  O30      1.0000 0.62940  0.10850  0.00740  Biso   1.000  O
  C1       1.0000 0.36280  0.18140  0.68880  Biso   1.000  C
  C2       1.0000 0.81860  0.18140  0.68880  Biso   1.000  C
  C3       1.0000 0.81860  0.63720  0.68880  Biso   1.000  C
  C4       1.0000 0.18140  0.36280  0.31120  Biso   1.000  C
  C5       1.0000 0.63720  0.81860  0.31120  Biso   1.000  C
  C6       1.0000 0.18140  0.81860  0.31120  Biso   1.000  C
  C7       1.0000 0.44180  0.22090  0.89880  Biso   1.000  C
  C8       1.0000 0.77910  0.22090  0.89880  Biso   1.000  C
  C9       1.0000 0.77910  0.55820  0.89880  Biso   1.000  C
  C10      1.0000 0.22090  0.44180  0.10120  Biso   1.000  C
  C11      1.0000 0.55820  0.77910  0.10120  Biso   1.000  C
  C12      1.0000 0.22090  0.77910  0.10120  Biso   1.000  C
  H1       1.0000 0.46850  0.23420  0.97020  Biso   1.000  H
  H2       1.0000 0.76580  0.23430  0.97020  Biso   1.000  H
  H3       1.0000 0.76570  0.53150  0.97020  Biso   1.000  H
  H4       1.0000 0.23420  0.46850  0.02980  Biso   1.000  H
  H5       1.0000 0.53150  0.76570  0.02980  Biso   1.000  H
  H6       1.0000 0.23430  0.76580  0.02980  Biso   1.000  H
  C13      1.0000 0.42110  0.14410  0.84320  Biso   1.000  C
  C14      1.0000 0.85590  0.27700  0.84320  Biso   1.000  C
  C15      1.0000 0.72300  0.57890  0.84320  Biso   1.000  C
  C16      1.0000 0.14410  0.42110  0.15680  Biso   1.000  C
  C17      1.0000 0.57890  0.72300  0.15680  Biso   1.000  C
  C18      1.0000 0.27700  0.85590  0.15680  Biso   1.000  C
  C19      1.0000 0.57890  0.85590  0.15680  Biso   1.000  C
  C20      1.0000 0.14410  0.72300  0.15680  Biso   1.000  C
  C21      1.0000 0.27700  0.42110  0.15680  Biso   1.000  C
  C22      1.0000 0.85590  0.57890  0.84320  Biso   1.000  C
  C23      1.0000 0.42110  0.27700  0.84320  Biso   1.000  C
  C24      1.0000 0.72300  0.14410  0.84320  Biso   1.000  C
  C25      1.0000 0.45090  0.08950  0.90710  Biso   1.000  C
  C26      1.0000 0.91050  0.36140  0.90710  Biso   1.000  C
  C27      1.0000 0.63860  0.54910  0.90710  Biso   1.000  C
  C28      1.0000 0.08950  0.45090  0.09290  Biso   1.000  C
  C29      1.0000 0.54910  0.63860  0.09290  Biso   1.000  C
  C30      1.0000 0.36140  0.91050  0.09290  Biso   1.000  C
  C31      1.0000 0.54910  0.91050  0.09290  Biso   1.000  C
  C32      1.0000 0.08950  0.63860  0.09290  Biso   1.000  C
  C33      1.0000 0.36140  0.45090  0.09290  Biso   1.000  C
  C34      1.0000 0.91050  0.54910  0.90710  Biso   1.000  C
  C35      1.0000 0.45090  0.36140  0.90710  Biso   1.000  C
  C36      1.0000 0.63860  0.08950  0.90710  Biso   1.000  C
  C37      1.0000 0.37960  0.12410  0.74030  Biso   1.000  C
  C38      1.0000 0.87590  0.25550  0.74030  Biso   1.000  C
  C39      1.0000 0.74450  0.62040  0.74030  Biso   1.000  C
  C40      1.0000 0.12410  0.37960  0.25970  Biso   1.000  C
  C41      1.0000 0.62040  0.74450  0.25970  Biso   1.000  C
  C42      1.0000 0.25550  0.87590  0.25970  Biso   1.000  C
  C43      1.0000 0.62040  0.87590  0.25970  Biso   1.000  C
  C44      1.0000 0.12410  0.74450  0.25970  Biso   1.000  C
  C45      1.0000 0.25550  0.37960  0.25970  Biso   1.000  C
  C46      1.0000 0.87590  0.62040  0.74030  Biso   1.000  C
  C47      1.0000 0.37960  0.25550  0.74030  Biso   1.000  C
  C48      1.0000 0.74450  0.12410  0.74030  Biso   1.000  C
  H7       1.0000 0.36280  0.07300  0.70550  Biso   1.000  H
  H8       1.0000 0.92700  0.28980  0.70550  Biso   1.000  H
  H9       1.0000 0.71020  0.63720  0.70550  Biso   1.000  H
  H10      1.0000 0.07300  0.36280  0.29450  Biso   1.000  H
  H11      1.0000 0.63720  0.71020  0.29450  Biso   1.000  H
  H12      1.0000 0.28980  0.92700  0.29450  Biso   1.000  H
  H13      1.0000 0.63720  0.92700  0.29450  Biso   1.000  H
  H14      1.0000 0.07300  0.71020  0.29450  Biso   1.000  H
  H15      1.0000 0.28980  0.36280  0.29450  Biso   1.000  H
  H16      1.0000 0.92700  0.63720  0.70550  Biso   1.000  H
  H17      1.0000 0.36280  0.28980  0.70550  Biso   1.000  H
  H18      1.0000 0.71020  0.07300  0.70550  Biso   1.000  H
  C49      1.0000 0.29500  0.23100  0.49400  Biso   1.000  C
  C50      1.0000 0.76900  0.06400  0.49400  Biso   1.000  C
  C51      1.0000 0.93600  0.70500  0.49400  Biso   1.000  C
  C52      1.0000 0.23100  0.29500  0.50600  Biso   1.000  C
  C53      1.0000 0.70500  0.93600  0.50600  Biso   1.000  C
  C54      1.0000 0.06400  0.76900  0.50600  Biso   1.000  C
  C55      1.0000 0.70500  0.76900  0.50600  Biso   1.000  C
  C56      1.0000 0.23100  0.93600  0.50600  Biso   1.000  C
  C57      1.0000 0.06400  0.29500  0.50600  Biso   1.000  C
  C58      1.0000 0.76900  0.70500  0.49400  Biso   1.000  C
  C59      1.0000 0.29500  0.06400  0.49400  Biso   1.000  C
  C60      1.0000 0.93600  0.23100  0.49400  Biso   1.000  C
  H19      1.0000 0.30860  0.27290  0.55210  Biso   1.000  H
  H20      1.0000 0.72710  0.03570  0.55210  Biso   1.000  H
  H21      1.0000 0.96430  0.69140  0.55210  Biso   1.000  H
  H22      1.0000 0.27290  0.30860  0.44790  Biso   1.000  H
  H23      1.0000 0.69140  0.96430  0.44790  Biso   1.000  H
  H24      1.0000 0.03570  0.72710  0.44790  Biso   1.000  H
  H25      1.0000 0.69140  0.72710  0.44790  Biso   1.000  H
  H26      1.0000 0.27290  0.96430  0.44790  Biso   1.000  H
  H27      1.0000 0.03570  0.30860  0.44790  Biso   1.000  H
  H28      1.0000 0.72710  0.69140  0.55210  Biso   1.000  H
  H29      1.0000 0.30860  0.03570  0.55210  Biso   1.000  H
  H30      1.0000 0.96430  0.27290  0.55210  Biso   1.000  H
  H31      1.0000 0.33140  0.25590  0.42840  Biso   1.000  H
  H32      1.0000 0.74410  0.07550  0.42840  Biso   1.000  H
  H33      1.0000 0.92450  0.66860  0.42840  Biso   1.000  H
  H34      1.0000 0.25590  0.33140  0.57160  Biso   1.000  H
  H35      1.0000 0.66860  0.92450  0.57160  Biso   1.000  H
  H36      1.0000 0.07550  0.74410  0.57160  Biso   1.000  H
  H37      1.0000 0.66860  0.74410  0.57160  Biso   1.000  H
  H38      1.0000 0.25590  0.92450  0.57160  Biso   1.000  H
  H39      1.0000 0.07550  0.33140  0.57160  Biso   1.000  H
  H40      1.0000 0.74410  0.66860  0.42840  Biso   1.000  H
  H41      1.0000 0.33140  0.07550  0.42840  Biso   1.000  H
  H42      1.0000 0.92450  0.25590  0.42840  Biso   1.000  H
  H43      1.0000 0.23870  0.20950  0.46960  Biso   1.000  H
  H44      1.0000 0.79050  0.02920  0.46960  Biso   1.000  H
  H45      1.0000 0.97080  0.76130  0.46960  Biso   1.000  H
  H46      1.0000 0.20950  0.23870  0.53040  Biso   1.000  H
  H47      1.0000 0.76130  0.97080  0.53040  Biso   1.000  H
  H48      1.0000 0.02920  0.79050  0.53040  Biso   1.000  H
  H49      1.0000 0.76130  0.79050  0.53040  Biso   1.000  H
  H50      1.0000 0.20950  0.97080  0.53040  Biso   1.000  H
  H51      1.0000 0.02920  0.23870  0.53040  Biso   1.000  H
  H52      1.0000 0.79050  0.76130  0.46960  Biso   1.000  H
  H53      1.0000 0.23870  0.02920  0.46960  Biso   1.000  H
  H54      1.0000 0.97080  0.20950  0.46960  Biso   1.000  H
