data_image0
_cell_length_a       8.4928
_cell_length_b       9.6404
_cell_length_c       12.5967
_cell_angle_alpha    68.102
_cell_angle_beta     71.434
_cell_angle_gamma    64.579

_symmetry_space_group_name_H-M    "P 1"
_symmetry_int_tables_number       1

loop_
  _symmetry_equiv_pos_as_xyz
  'x, y, z'

loop_
  _atom_site_label
  _atom_site_occupancy
  _atom_site_fract_x
  _atom_site_fract_y
  _atom_site_fract_z
  _atom_site_thermal_displace_type
  _atom_site_B_iso_or_equiv
  _atom_site_type_symbol
  Cu1      1.0000 0.00000  0.00000  0.00000  Biso   1.000  Cu
  C1       1.0000 0.93270  0.91960  0.72080  Biso   1.000  C
  C2       1.0000 0.06730  0.08040  0.27920  Biso   1.000  C
  C3       1.0000 0.02560  0.80930  0.65720  Biso   1.000  C
  C4       1.0000 0.97440  0.19070  0.34280  Biso   1.000  C
  H1       1.0000 0.13590  0.73400  0.67200  Biso   1.000  H
  H2       1.0000 0.86410  0.26600  0.32800  Biso   1.000  H
  C5       1.0000 0.95540  0.81020  0.57170  Biso   1.000  C
  C6       1.0000 0.04460  0.18980  0.42830  Biso   1.000  C
  C7       1.0000 0.78980  0.92100  0.55060  Biso   1.000  C
  C8       1.0000 0.21020  0.07900  0.44940  Biso   1.000  C
  H3       1.0000 0.74100  0.92060  0.49430  Biso   1.000  H
  H4       1.0000 0.25900  0.07940  0.50570  Biso   1.000  H
  C9       1.0000 0.69760  0.03250  0.61390  Biso   1.000  C
  C10      1.0000 0.30240  0.96750  0.38610  Biso   1.000  C
  C11      1.0000 0.76760  0.03390  0.69820  Biso   1.000  C
  C12      1.0000 0.23240  0.96610  0.30180  Biso   1.000  C
  H5       1.0000 0.70580  0.11000  0.73950  Biso   1.000  H
  H6       1.0000 0.29420  0.89000  0.26050  Biso   1.000  H
  C13      1.0000 0.00550  0.91550  0.81730  Biso   1.000  C
  C14      1.0000 0.99450  0.08450  0.18270  Biso   1.000  C
  C15      1.0000 0.06330  0.69450  0.50060  Biso   1.000  C
  C16      1.0000 0.93670  0.30550  0.49940  Biso   1.000  C
  C17      1.0000 0.43660  0.26360  0.63760  Biso   1.000  C
  C18      1.0000 0.56340  0.73640  0.36240  Biso   1.000  C
  H7       1.0000 0.34900  0.34570  0.59170  Biso   1.000  H
  H8       1.0000 0.65100  0.65430  0.40830  Biso   1.000  H
  H9       1.0000 0.51590  0.31070  0.63940  Biso   1.000  H
  H10      1.0000 0.48410  0.68930  0.36060  Biso   1.000  H
  C19      1.0000 0.29580  0.12870  0.93690  Biso   1.000  C
  C20      1.0000 0.70420  0.87130  0.06310  Biso   1.000  C
  H11      1.0000 0.30080  0.10440  0.01470  Biso   1.000  H
  H12      1.0000 0.69920  0.89560  0.98530  Biso   1.000  H
  C21      1.0000 0.21680  0.15210  0.78830  Biso   1.000  C
  C22      1.0000 0.78320  0.84790  0.21170  Biso   1.000  C
  H13      1.0000 0.15910  0.15010  0.73760  Biso   1.000  H
  H14      1.0000 0.84090  0.84990  0.26240  Biso   1.000  H
  N1       1.0000 0.34740  0.20660  0.75591  Biso   1.000  N
  N2       1.0000 0.65260  0.79340  0.24409  Biso   1.000  N
  N3       1.0000 0.40090  0.19260  0.85190  Biso   1.000  N
  N4       1.0000 0.59910  0.80740  0.14810  Biso   1.000  N
  N5       1.0000 0.17880  0.10040  0.90315  Biso   1.000  N
  N6       1.0000 0.82120  0.89960  0.09685  Biso   1.000  N
  O1       1.0000 0.91760  0.03200  0.86268  Biso   1.000  O
  O2       1.0000 0.08240  0.96800  0.13732  Biso   1.000  O
  O3       1.0000 0.13780  0.80490  0.84848  Biso   1.000  O
  O4       1.0000 0.86220  0.19510  0.15152  Biso   1.000  O
  O5       1.0000 0.21630  0.61020  0.50643  Biso   1.000  O
  O6       1.0000 0.78370  0.38980  0.49357  Biso   1.000  O
  O7       1.0000 0.97690  0.69620  0.42950  Biso   1.000  O
  O8       1.0000 0.02310  0.30380  0.57050  Biso   1.000  O
  H15      1.0000 0.04200  0.63090  0.39270  Biso   1.000  H
  H16      1.0000 0.95800  0.36910  0.60730  Biso   1.000  H
  O9       1.0000 0.53450  0.13790  0.58462  Biso   1.000  O
  O10      1.0000 0.46550  0.86210  0.41538  Biso   1.000  O
  C23      1.0000 0.56980  0.61070  0.70260  Biso   1.000  C
  C24      1.0000 0.43020  0.38930  0.29740  Biso   1.000  C
  H17      1.0000 0.60530  0.56780  0.63760  Biso   1.000  H
  H18      1.0000 0.39470  0.43220  0.36240  Biso   1.000  H
  H19      1.0000 0.53050  0.72520  0.67570  Biso   1.000  H
  H20      1.0000 0.46950  0.27480  0.32430  Biso   1.000  H
  H21      1.0000 0.47460  0.57870  0.75690  Biso   1.000  H
  H22      1.0000 0.52540  0.42130  0.24310  Biso   1.000  H
  C25      1.0000 0.72440  0.54890  0.76160  Biso   1.000  C
  C26      1.0000 0.27560  0.45110  0.23840  Biso   1.000  C
  C27      1.0000 0.53800  0.70280  0.90190  Biso   1.000  C
  C28      1.0000 0.46200  0.29720  0.09810  Biso   1.000  C
  H23      1.0000 0.54740  0.80680  0.87410  Biso   1.000  H
  H24      1.0000 0.45260  0.19320  0.12590  Biso   1.000  H
  H25      1.0000 0.51910  0.66910  0.98540  Biso   1.000  H
  H26      1.0000 0.48090  0.33090  0.01460  Biso   1.000  H
  H27      1.0000 0.43990  0.70740  0.87680  Biso   1.000  H
  H28      1.0000 0.56010  0.29260  0.12320  Biso   1.000  H
  C29      1.0000 0.85410  0.52950  0.91210  Biso   1.000  C
  C30      1.0000 0.14590  0.47050  0.08790  Biso   1.000  C
  H29      1.0000 0.95750  0.46840  0.86760  Biso   1.000  H
  H30      1.0000 0.04250  0.53160  0.13240  Biso   1.000  H
  H31      1.0000 0.83040  0.46280  0.98940  Biso   1.000  H
  H32      1.0000 0.16960  0.53720  0.01060  Biso   1.000  H
  H33      1.0000 0.87440  0.61780  0.91610  Biso   1.000  H
  H34      1.0000 0.12560  0.38220  0.08390  Biso   1.000  H
  N7       1.0000 0.70040  0.59010  0.85560  Biso   1.000  N
  N8       1.0000 0.29960  0.40990  0.14440  Biso   1.000  N
  O11      1.0000 0.87450  0.45850  0.72338  Biso   1.000  O
  O12      1.0000 0.12550  0.54150  0.27662  Biso   1.000  O
