data_image0
_cell_length_a       7.348
_cell_length_b       11.388
_cell_length_c       24.295
_cell_angle_alpha    90
_cell_angle_beta     90
_cell_angle_gamma    90

_symmetry_space_group_name_H-M    "P 1"
_symmetry_int_tables_number       1

loop_
  _symmetry_equiv_pos_as_xyz
  'x, y, z'

loop_
  _atom_site_label
  _atom_site_occupancy
  _atom_site_fract_x
  _atom_site_fract_y
  _atom_site_fract_z
  _atom_site_thermal_displace_type
  _atom_site_B_iso_or_equiv
  _atom_site_type_symbol
  Cu1      1.0000 0.02189  0.52327  0.85226  Biso   1.000  Cu
  Cu2      1.0000 0.47811  0.47673  0.35226  Biso   1.000  Cu
  Cu3      1.0000 0.97811  0.02327  0.64774  Biso   1.000  Cu
  Cu4      1.0000 0.52189  0.97673  0.14774  Biso   1.000  Cu
  Cu5      1.0000 0.02626  0.38940  0.95733  Biso   1.000  Cu
  Cu6      1.0000 0.47374  0.61060  0.45733  Biso   1.000  Cu
  Cu7      1.0000 0.97374  0.88940  0.54267  Biso   1.000  Cu
  Cu8      1.0000 0.52626  0.11060  0.04267  Biso   1.000  Cu
  O1       1.0000 0.13830  0.38410  0.88538  Biso   1.000  O
  O2       1.0000 0.36170  0.61590  0.38538  Biso   1.000  O
  O3       1.0000 0.86170  0.88410  0.61462  Biso   1.000  O
  O4       1.0000 0.63830  0.11590  0.11462  Biso   1.000  O
  O5       1.0000 0.99360  0.68680  0.83179  Biso   1.000  O
  O6       1.0000 0.50640  0.31320  0.33179  Biso   1.000  O
  O7       1.0000 0.00640  0.18680  0.66821  Biso   1.000  O
  O8       1.0000 0.49360  0.81320  0.16821  Biso   1.000  O
  O9       1.0000 0.09600  0.82070  0.77278  Biso   1.000  O
  O10      1.0000 0.40400  0.17930  0.27278  Biso   1.000  O
  O11      1.0000 0.90400  0.32070  0.72722  Biso   1.000  O
  O12      1.0000 0.59600  0.67930  0.22722  Biso   1.000  O
  O13      1.0000 0.77580  0.41100  0.82426  Biso   1.000  O
  O14      1.0000 0.72420  0.58900  0.32426  Biso   1.000  O
  O15      1.0000 0.22420  0.91100  0.67574  Biso   1.000  O
  O16      1.0000 0.27580  0.08900  0.17574  Biso   1.000  O
  H1       1.0000 0.79000  0.36400  0.79920  Biso   1.000  H
  H2       1.0000 0.71000  0.63600  0.29920  Biso   1.000  H
  H3       1.0000 0.21000  0.86400  0.70080  Biso   1.000  H
  H4       1.0000 0.29000  0.13600  0.20080  Biso   1.000  H
  H5       1.0000 0.75400  0.36600  0.84940  Biso   1.000  H
  H6       1.0000 0.74600  0.63400  0.34940  Biso   1.000  H
  H7       1.0000 0.24600  0.86600  0.65060  Biso   1.000  H
  H8       1.0000 0.25400  0.13400  0.15060  Biso   1.000  H
  N1       1.0000 0.15860  0.50680  0.78169  Biso   1.000  N
  N2       1.0000 0.34140  0.49320  0.28169  Biso   1.000  N
  N3       1.0000 0.84140  0.00680  0.71831  Biso   1.000  N
  N4       1.0000 0.65860  0.99320  0.21831  Biso   1.000  N
  H9       1.0000 0.10500  0.47300  0.76120  Biso   1.000  H
  H10      1.0000 0.39500  0.52700  0.26120  Biso   1.000  H
  H11      1.0000 0.89500  0.97300  0.73880  Biso   1.000  H
  H12      1.0000 0.60500  0.02700  0.23880  Biso   1.000  H
  C1       1.0000 0.18230  0.28990  0.85361  Biso   1.000  C
  C2       1.0000 0.31770  0.71010  0.35361  Biso   1.000  C
  C3       1.0000 0.81770  0.78990  0.64639  Biso   1.000  C
  C4       1.0000 0.68230  0.21010  0.14639  Biso   1.000  C
  C5       1.0000 0.13340  0.17580  0.86761  Biso   1.000  C
  C6       1.0000 0.36660  0.82420  0.36761  Biso   1.000  C
  C7       1.0000 0.86660  0.67580  0.63239  Biso   1.000  C
  C8       1.0000 0.63340  0.32420  0.13239  Biso   1.000  C
  H13      1.0000 0.06950  0.16190  0.90000  Biso   1.000  H
  H14      1.0000 0.43050  0.83810  0.40000  Biso   1.000  H
  H15      1.0000 0.93050  0.66190  0.60000  Biso   1.000  H
  H16      1.0000 0.56950  0.33810  0.10000  Biso   1.000  H
  C9       1.0000 0.17900  0.08310  0.83365  Biso   1.000  C
  C10      1.0000 0.32100  0.91690  0.33365  Biso   1.000  C
  C11      1.0000 0.82100  0.58310  0.66635  Biso   1.000  C
  C12      1.0000 0.67900  0.41690  0.16635  Biso   1.000  C
  H17      1.0000 0.14510  0.00710  0.84320  Biso   1.000  H
  H18      1.0000 0.35490  0.99290  0.34320  Biso   1.000  H
  H19      1.0000 0.85490  0.50710  0.65680  Biso   1.000  H
  H20      1.0000 0.64510  0.49290  0.15680  Biso   1.000  H
  C13      1.0000 0.27380  0.10260  0.78615  Biso   1.000  C
  C14      1.0000 0.22620  0.89740  0.28615  Biso   1.000  C
  C15      1.0000 0.72620  0.60260  0.71385  Biso   1.000  C
  C16      1.0000 0.77380  0.39740  0.21385  Biso   1.000  C
  H21      1.0000 0.30610  0.03980  0.76380  Biso   1.000  H
  H22      1.0000 0.19390  0.96020  0.26380  Biso   1.000  H
  H23      1.0000 0.69390  0.53980  0.73620  Biso   1.000  H
  H24      1.0000 0.80610  0.46020  0.23620  Biso   1.000  H
  C17      1.0000 0.32180  0.21540  0.77134  Biso   1.000  C
  C18      1.0000 0.17820  0.78460  0.27134  Biso   1.000  C
  C19      1.0000 0.67820  0.71540  0.72866  Biso   1.000  C
  C20      1.0000 0.82180  0.28460  0.22866  Biso   1.000  C
  H25      1.0000 0.38460  0.22780  0.73860  Biso   1.000  H
  H26      1.0000 0.11540  0.77220  0.23860  Biso   1.000  H
  H27      1.0000 0.61540  0.72780  0.76140  Biso   1.000  H
  H28      1.0000 0.88460  0.27220  0.26140  Biso   1.000  H
  C21      1.0000 0.27790  0.31040  0.80449  Biso   1.000  C
  C22      1.0000 0.22210  0.68960  0.30449  Biso   1.000  C
  C23      1.0000 0.72210  0.81040  0.69551  Biso   1.000  C
  C24      1.0000 0.77790  0.18960  0.19551  Biso   1.000  C
  C25      1.0000 0.32430  0.43350  0.78800  Biso   1.000  C
  C26      1.0000 0.17570  0.56650  0.28800  Biso   1.000  C
  C27      1.0000 0.67570  0.93350  0.71200  Biso   1.000  C
  C28      1.0000 0.82430  0.06650  0.21200  Biso   1.000  C
  H29      1.0000 0.40280  0.46820  0.81570  Biso   1.000  H
  H30      1.0000 0.09720  0.53180  0.31570  Biso   1.000  H
  H31      1.0000 0.59720  0.96820  0.68430  Biso   1.000  H
  H32      1.0000 0.90280  0.03180  0.18430  Biso   1.000  H
  H33      1.0000 0.39050  0.43210  0.75350  Biso   1.000  H
  H34      1.0000 0.10950  0.56790  0.25350  Biso   1.000  H
  H35      1.0000 0.60950  0.93210  0.74650  Biso   1.000  H
  H36      1.0000 0.89050  0.06790  0.24650  Biso   1.000  H
  C29      1.0000 0.19580  0.62590  0.76067  Biso   1.000  C
  C30      1.0000 0.30420  0.37410  0.26067  Biso   1.000  C
  C31      1.0000 0.80420  0.12590  0.73933  Biso   1.000  C
  C32      1.0000 0.69580  0.87410  0.23933  Biso   1.000  C
  H37      1.0000 0.16770  0.62850  0.72170  Biso   1.000  H
  H38      1.0000 0.33230  0.37150  0.22170  Biso   1.000  H
  H39      1.0000 0.83230  0.12850  0.77830  Biso   1.000  H
  H40      1.0000 0.66770  0.87150  0.27830  Biso   1.000  H
  H41      1.0000 0.32440  0.64290  0.76500  Biso   1.000  H
  H42      1.0000 0.17560  0.35710  0.26500  Biso   1.000  H
  H43      1.0000 0.67560  0.14290  0.73500  Biso   1.000  H
  H44      1.0000 0.82440  0.85710  0.23500  Biso   1.000  H
  C33      1.0000 0.08680  0.71890  0.78998  Biso   1.000  C
  C34      1.0000 0.41320  0.28110  0.28998  Biso   1.000  C
  C35      1.0000 0.91320  0.21890  0.71002  Biso   1.000  C
  C36      1.0000 0.58680  0.78110  0.21002  Biso   1.000  C
  O17      1.0000 0.93050  0.53740  0.92745  Biso   1.000  O
  O18      1.0000 0.56950  0.46260  0.42745  Biso   1.000  O
  O19      1.0000 0.06950  0.03740  0.57255  Biso   1.000  O
  O20      1.0000 0.43050  0.96260  0.07255  Biso   1.000  O
  O21      1.0000 0.17670  0.27050  0.99261  Biso   1.000  O
  O22      1.0000 0.32330  0.72950  0.49261  Biso   1.000  O
  O23      1.0000 0.82330  0.77050  0.50739  Biso   1.000  O
  O24      1.0000 0.67670  0.22950  0.00739  Biso   1.000  O
  O25      1.0000 0.27600  0.21240  0.07413  Biso   1.000  O
  O26      1.0000 0.22400  0.78760  0.57413  Biso   1.000  O
  O27      1.0000 0.72400  0.71240  0.42587  Biso   1.000  O
  O28      1.0000 0.77600  0.28760  0.92587  Biso   1.000  O
  N5       1.0000 0.93610  0.41970  0.03275  Biso   1.000  N
  N6       1.0000 0.56390  0.58030  0.53275  Biso   1.000  N
  N7       1.0000 0.06390  0.91970  0.46725  Biso   1.000  N
  N8       1.0000 0.43610  0.08030  0.96725  Biso   1.000  N
  H45      1.0000 0.85300  0.38200  0.03460  Biso   1.000  H
  H46      1.0000 0.64700  0.61800  0.53460  Biso   1.000  H
  H47      1.0000 0.14700  0.88200  0.46540  Biso   1.000  H
  H48      1.0000 0.35300  0.11800  0.96540  Biso   1.000  H
  C37      1.0000 0.76400  0.57410  0.94572  Biso   1.000  C
  C38      1.0000 0.73600  0.42590  0.44572  Biso   1.000  C
  C39      1.0000 0.23600  0.07410  0.55428  Biso   1.000  C
  C40      1.0000 0.26400  0.92590  0.05428  Biso   1.000  C
  C41      1.0000 0.62740  0.60860  0.90919  Biso   1.000  C
  C42      1.0000 0.87260  0.39140  0.40919  Biso   1.000  C
  C43      1.0000 0.37260  0.10860  0.59081  Biso   1.000  C
  C44      1.0000 0.12740  0.89140  0.09081  Biso   1.000  C
  H49      1.0000 0.65010  0.60920  0.87150  Biso   1.000  H
  H50      1.0000 0.84990  0.39080  0.37150  Biso   1.000  H
  H51      1.0000 0.34990  0.10920  0.62850  Biso   1.000  H
  H52      1.0000 0.15010  0.89080  0.12850  Biso   1.000  H
  C45      1.0000 0.45790  0.64190  0.92890  Biso   1.000  C
  C46      1.0000 0.04210  0.35810  0.42890  Biso   1.000  C
  C47      1.0000 0.54210  0.14190  0.57110  Biso   1.000  C
  C48      1.0000 0.95790  0.85810  0.07110  Biso   1.000  C
  H53      1.0000 0.36670  0.66390  0.90440  Biso   1.000  H
  H54      1.0000 0.13330  0.33610  0.40440  Biso   1.000  H
  H55      1.0000 0.63330  0.16390  0.59560  Biso   1.000  H
  H56      1.0000 0.86670  0.83610  0.09560  Biso   1.000  H
  C49      1.0000 0.42520  0.64230  0.98430  Biso   1.000  C
  C50      1.0000 0.07480  0.35770  0.48430  Biso   1.000  C
  C51      1.0000 0.57480  0.14230  0.51570  Biso   1.000  C
  C52      1.0000 0.92520  0.85770  0.01570  Biso   1.000  C
  H57      1.0000 0.31150  0.66460  0.99740  Biso   1.000  H
  H58      1.0000 0.18850  0.33540  0.49740  Biso   1.000  H
  H59      1.0000 0.68850  0.16460  0.50260  Biso   1.000  H
  H60      1.0000 0.81150  0.83540  0.00260  Biso   1.000  H
  C53      1.0000 0.55960  0.60990  0.02075  Biso   1.000  C
  C54      1.0000 0.94040  0.39010  0.52075  Biso   1.000  C
  C55      1.0000 0.44040  0.10990  0.47925  Biso   1.000  C
  C56      1.0000 0.05960  0.89010  0.97925  Biso   1.000  C
  H61      1.0000 0.53520  0.61050  0.05830  Biso   1.000  H
  H62      1.0000 0.96480  0.38950  0.55830  Biso   1.000  H
  H63      1.0000 0.46480  0.11050  0.44170  Biso   1.000  H
  H64      1.0000 0.03520  0.88950  0.94170  Biso   1.000  H
  C57      1.0000 0.73160  0.57630  0.00236  Biso   1.000  C
  C58      1.0000 0.76840  0.42370  0.50236  Biso   1.000  C
  C59      1.0000 0.26840  0.07630  0.49764  Biso   1.000  C
  C60      1.0000 0.23160  0.92370  0.99764  Biso   1.000  C
  C61      1.0000 0.88030  0.54300  0.04130  Biso   1.000  C
  C62      1.0000 0.61970  0.45700  0.54130  Biso   1.000  C
  C63      1.0000 0.11970  0.04300  0.45870  Biso   1.000  C
  C64      1.0000 0.38030  0.95700  0.95870  Biso   1.000  C
  H65      1.0000 0.98420  0.59420  0.03570  Biso   1.000  H
  H66      1.0000 0.51580  0.40580  0.53570  Biso   1.000  H
  H67      1.0000 0.01580  0.09420  0.46430  Biso   1.000  H
  H68      1.0000 0.48420  0.90580  0.96430  Biso   1.000  H
  H69      1.0000 0.83850  0.55320  0.07890  Biso   1.000  H
  H70      1.0000 0.66150  0.44680  0.57890  Biso   1.000  H
  H71      1.0000 0.16150  0.05320  0.42110  Biso   1.000  H
  H72      1.0000 0.33850  0.94680  0.92110  Biso   1.000  H
  C65      1.0000 0.07170  0.37360  0.07162  Biso   1.000  C
  C66      1.0000 0.42830  0.62640  0.57162  Biso   1.000  C
  C67      1.0000 0.92830  0.87360  0.42838  Biso   1.000  C
  C68      1.0000 0.57170  0.12640  0.92838  Biso   1.000  C
  H73      1.0000 0.01040  0.34290  0.10390  Biso   1.000  H
  H74      1.0000 0.48960  0.65710  0.60390  Biso   1.000  H
  H75      1.0000 0.98960  0.84290  0.39610  Biso   1.000  H
  H76      1.0000 0.51040  0.15710  0.89610  Biso   1.000  H
  H77      1.0000 0.15160  0.43660  0.08330  Biso   1.000  H
  H78      1.0000 0.34840  0.56340  0.58330  Biso   1.000  H
  H79      1.0000 0.84840  0.93660  0.41670  Biso   1.000  H
  H80      1.0000 0.65160  0.06340  0.91670  Biso   1.000  H
  C69      1.0000 0.18280  0.27740  0.04520  Biso   1.000  C
  C70      1.0000 0.31720  0.72260  0.54520  Biso   1.000  C
  C71      1.0000 0.81720  0.77740  0.45480  Biso   1.000  C
  C72      1.0000 0.68280  0.22260  0.95480  Biso   1.000  C
  O29      1.0000 0.75980  0.88830  0.85890  Biso   1.000  O
  O30      1.0000 0.74020  0.11170  0.35890  Biso   1.000  O
  O31      1.0000 0.24020  0.38830  0.64110  Biso   1.000  O
  O32      1.0000 0.25980  0.61170  0.14110  Biso   1.000  O
  H81      1.0000 0.66700  0.86400  0.84110  Biso   1.000  H
  H82      1.0000 0.83300  0.13600  0.34110  Biso   1.000  H
  H83      1.0000 0.33300  0.36400  0.65890  Biso   1.000  H
  H84      1.0000 0.16700  0.63600  0.15890  Biso   1.000  H
  H85      1.0000 0.82900  0.83200  0.84870  Biso   1.000  H
  H86      1.0000 0.67100  0.16800  0.34870  Biso   1.000  H
  H87      1.0000 0.17100  0.33200  0.65130  Biso   1.000  H
  H88      1.0000 0.32900  0.66800  0.15130  Biso   1.000  H
