data_image0
_cell_length_a       11.357
_cell_length_b       24.304
_cell_length_c       7.317
_cell_angle_alpha    90
_cell_angle_beta     90
_cell_angle_gamma    90

_symmetry_space_group_name_H-M    "P 1"
_symmetry_int_tables_number       1

loop_
  _symmetry_equiv_pos_as_xyz
  'x, y, z'

loop_
  _atom_site_label
  _atom_site_occupancy
  _atom_site_fract_x
  _atom_site_fract_y
  _atom_site_fract_z
  _atom_site_thermal_displace_type
  _atom_site_B_iso_or_equiv
  _atom_site_type_symbol
  Cu1      1.0000 0.88958  0.04283  0.02540  Biso   1.000  Cu
  Cu2      1.0000 0.38958  0.45717  0.97460  Biso   1.000  Cu
  Cu3      1.0000 0.11042  0.54283  0.47460  Biso   1.000  Cu
  Cu4      1.0000 0.61042  0.95717  0.52540  Biso   1.000  Cu
  Cu5      1.0000 0.02250  0.14799  0.02105  Biso   1.000  Cu
  Cu6      1.0000 0.52250  0.35201  0.97895  Biso   1.000  Cu
  Cu7      1.0000 0.97750  0.64799  0.47895  Biso   1.000  Cu
  Cu8      1.0000 0.47750  0.85201  0.52105  Biso   1.000  Cu
  O1       1.0000 0.76990  0.00720  0.17470  Biso   1.000  O
  O2       1.0000 0.26990  0.49280  0.82530  Biso   1.000  O
  O3       1.0000 0.23010  0.50720  0.32530  Biso   1.000  O
  O4       1.0000 0.73010  0.99280  0.67470  Biso   1.000  O
  C1       1.0000 0.77700  0.95510  0.18140  Biso   1.000  C
  C2       1.0000 0.27700  0.54490  0.81860  Biso   1.000  C
  C3       1.0000 0.22300  0.45510  0.31860  Biso   1.000  C
  C4       1.0000 0.72300  0.04490  0.68140  Biso   1.000  C
  O5       1.0000 0.71210  0.92550  0.27410  Biso   1.000  O
  O6       1.0000 0.21210  0.57450  0.72590  Biso   1.000  O
  O7       1.0000 0.28790  0.42550  0.22590  Biso   1.000  O
  O8       1.0000 0.78790  0.07450  0.77410  Biso   1.000  O
  C5       1.0000 0.87480  0.92850  0.07140  Biso   1.000  C
  C6       1.0000 0.37480  0.57150  0.92860  Biso   1.000  C
  C7       1.0000 0.12520  0.42850  0.42860  Biso   1.000  C
  C8       1.0000 0.62520  0.07150  0.57140  Biso   1.000  C
  N1       1.0000 0.91980  0.96750  0.93410  Biso   1.000  N
  N2       1.0000 0.41980  0.53250  0.06590  Biso   1.000  N
  N3       1.0000 0.08020  0.46750  0.56590  Biso   1.000  N
  N4       1.0000 0.58020  0.03250  0.43410  Biso   1.000  N
  C9       1.0000 0.04430  0.95900  0.87830  Biso   1.000  C
  C10      1.0000 0.54430  0.54100  0.12170  Biso   1.000  C
  C11      1.0000 0.95570  0.45900  0.62170  Biso   1.000  C
  C12      1.0000 0.45570  0.04100  0.37830  Biso   1.000  C
  C13      1.0000 0.07700  0.99800  0.72960  Biso   1.000  C
  C14      1.0000 0.57700  0.50200  0.27040  Biso   1.000  C
  C15      1.0000 0.92300  0.49800  0.77040  Biso   1.000  C
  C16      1.0000 0.42300  0.00200  0.22960  Biso   1.000  C
  C17      1.0000 0.10980  0.97970  0.55760  Biso   1.000  C
  C18      1.0000 0.60980  0.52030  0.44240  Biso   1.000  C
  C19      1.0000 0.89020  0.47970  0.94240  Biso   1.000  C
  C20      1.0000 0.39020  0.02030  0.05760  Biso   1.000  C
  C21      1.0000 0.14260  0.01550  0.42230  Biso   1.000  C
  C22      1.0000 0.64260  0.48450  0.57770  Biso   1.000  C
  C23      1.0000 0.85740  0.51550  0.07770  Biso   1.000  C
  C24      1.0000 0.35740  0.98450  0.92230  Biso   1.000  C
  C25      1.0000 0.14150  0.07140  0.45560  Biso   1.000  C
  C26      1.0000 0.64150  0.42860  0.54440  Biso   1.000  C
  C27      1.0000 0.85850  0.57140  0.04440  Biso   1.000  C
  C28      1.0000 0.35850  0.92860  0.95560  Biso   1.000  C
  C29      1.0000 0.10740  0.09110  0.62600  Biso   1.000  C
  C30      1.0000 0.60740  0.40890  0.37400  Biso   1.000  C
  C31      1.0000 0.89260  0.59110  0.87400  Biso   1.000  C
  C32      1.0000 0.39260  0.90890  0.12600  Biso   1.000  C
  C33      1.0000 0.07400  0.05520  0.76250  Biso   1.000  C
  C34      1.0000 0.57400  0.44480  0.23750  Biso   1.000  C
  C35      1.0000 0.92600  0.55520  0.73750  Biso   1.000  C
  C36      1.0000 0.42600  0.94480  0.26250  Biso   1.000  C
  O9       1.0000 0.03750  0.07300  0.92900  Biso   1.000  O
  O10      1.0000 0.53750  0.42700  0.07100  Biso   1.000  O
  O11      1.0000 0.96250  0.57300  0.57100  Biso   1.000  O
  O12      1.0000 0.46250  0.92700  0.42900  Biso   1.000  O
  O13      1.0000 0.18620  0.16880  0.99390  Biso   1.000  O
  O14      1.0000 0.68620  0.33120  0.00610  Biso   1.000  O
  O15      1.0000 0.81380  0.66880  0.50610  Biso   1.000  O
  O16      1.0000 0.31380  0.83120  0.49390  Biso   1.000  O
  C37      1.0000 0.21790  0.21050  0.08700  Biso   1.000  C
  C38      1.0000 0.71790  0.28950  0.91300  Biso   1.000  C
  C39      1.0000 0.78210  0.71050  0.41300  Biso   1.000  C
  C40      1.0000 0.28210  0.78950  0.58700  Biso   1.000  C
  O17      1.0000 0.32040  0.22740  0.09690  Biso   1.000  O
  O18      1.0000 0.82040  0.27260  0.90310  Biso   1.000  O
  O19      1.0000 0.67960  0.72740  0.40310  Biso   1.000  O
  O20      1.0000 0.17960  0.77260  0.59690  Biso   1.000  O
  C41      1.0000 0.12480  0.23970  0.19630  Biso   1.000  C
  C42      1.0000 0.62480  0.26030  0.80370  Biso   1.000  C
  C43      1.0000 0.87520  0.73970  0.30370  Biso   1.000  C
  C44      1.0000 0.37520  0.76030  0.69630  Biso   1.000  C
  N5       1.0000 0.00530  0.21850  0.15800  Biso   1.000  N
  N6       1.0000 0.50530  0.28150  0.84200  Biso   1.000  N
  N7       1.0000 0.99470  0.71850  0.34200  Biso   1.000  N
  N8       1.0000 0.49470  0.78150  0.65800  Biso   1.000  N
  C45      1.0000 0.93180  0.21200  0.32470  Biso   1.000  C
  C46      1.0000 0.43180  0.28800  0.67530  Biso   1.000  C
  C47      1.0000 0.06820  0.71200  0.17530  Biso   1.000  C
  C48      1.0000 0.56820  0.78800  0.82470  Biso   1.000  C
  C49      1.0000 0.80830  0.19520  0.27810  Biso   1.000  C
  C50      1.0000 0.30830  0.30480  0.72190  Biso   1.000  C
  C51      1.0000 0.19170  0.69520  0.22190  Biso   1.000  C
  C52      1.0000 0.69170  0.80480  0.77810  Biso   1.000  C
  C53      1.0000 0.71300  0.22820  0.31990  Biso   1.000  C
  C54      1.0000 0.21300  0.27180  0.68010  Biso   1.000  C
  C55      1.0000 0.28700  0.72820  0.18010  Biso   1.000  C
  C56      1.0000 0.78700  0.77180  0.81990  Biso   1.000  C
  C57      1.0000 0.60000  0.21400  0.27390  Biso   1.000  C
  C58      1.0000 0.10000  0.28600  0.72610  Biso   1.000  C
  C59      1.0000 0.40000  0.71400  0.22610  Biso   1.000  C
  C60      1.0000 0.90000  0.78600  0.77390  Biso   1.000  C
  C61      1.0000 0.58130  0.16600  0.17660  Biso   1.000  C
  C62      1.0000 0.08130  0.33400  0.82340  Biso   1.000  C
  C63      1.0000 0.41870  0.66600  0.32340  Biso   1.000  C
  C64      1.0000 0.91870  0.83400  0.67660  Biso   1.000  C
  C65      1.0000 0.67520  0.13190  0.13140  Biso   1.000  C
  C66      1.0000 0.17520  0.36810  0.86860  Biso   1.000  C
  C67      1.0000 0.32480  0.63190  0.36860  Biso   1.000  C
  C68      1.0000 0.82480  0.86810  0.63140  Biso   1.000  C
  C69      1.0000 0.78930  0.14620  0.18140  Biso   1.000  C
  C70      1.0000 0.28930  0.35380  0.81860  Biso   1.000  C
  C71      1.0000 0.21070  0.64620  0.31860  Biso   1.000  C
  C72      1.0000 0.71070  0.85380  0.68140  Biso   1.000  C
  O21      1.0000 0.88310  0.11480  0.13790  Biso   1.000  O
  O22      1.0000 0.38310  0.38520  0.86210  Biso   1.000  O
  O23      1.0000 0.11690  0.61480  0.36210  Biso   1.000  O
  O24      1.0000 0.61690  0.88520  0.63790  Biso   1.000  O
  O25      1.0000 0.91010  0.17570  0.77360  Biso   1.000  O
  O26      1.0000 0.41010  0.32430  0.22640  Biso   1.000  O
  O27      1.0000 0.08990  0.67570  0.72640  Biso   1.000  O
  O28      1.0000 0.58990  0.82430  0.27360  Biso   1.000  O
  O29      1.0000 0.38480  0.14200  0.75270  Biso   1.000  O
  O30      1.0000 0.88480  0.35800  0.24730  Biso   1.000  O
  O31      1.0000 0.61520  0.64200  0.74730  Biso   1.000  O
  O32      1.0000 0.11520  0.85800  0.25270  Biso   1.000  O
  H1       1.0000 0.84400  0.89600  0.01000  Biso   1.000  H
  H2       1.0000 0.34400  0.60400  0.99000  Biso   1.000  H
  H3       1.0000 0.15600  0.39600  0.49000  Biso   1.000  H
  H4       1.0000 0.65600  0.10400  0.51000  Biso   1.000  H
  H5       1.0000 0.93700  0.91700  0.14900  Biso   1.000  H
  H6       1.0000 0.43700  0.58300  0.85100  Biso   1.000  H
  H7       1.0000 0.06300  0.41700  0.35100  Biso   1.000  H
  H8       1.0000 0.56300  0.08300  0.64900  Biso   1.000  H
  H9       1.0000 0.86100  0.97300  0.83200  Biso   1.000  H
  H10      1.0000 0.36100  0.52700  0.16800  Biso   1.000  H
  H11      1.0000 0.13900  0.47300  0.66800  Biso   1.000  H
  H12      1.0000 0.63900  0.02700  0.33200  Biso   1.000  H
  H13      1.0000 0.05600  0.92100  0.83700  Biso   1.000  H
  H14      1.0000 0.55600  0.57900  0.16300  Biso   1.000  H
  H15      1.0000 0.94400  0.42100  0.66300  Biso   1.000  H
  H16      1.0000 0.44400  0.07900  0.33700  Biso   1.000  H
  H17      1.0000 0.09500  0.96400  0.98200  Biso   1.000  H
  H18      1.0000 0.59500  0.53600  0.01800  Biso   1.000  H
  H19      1.0000 0.90500  0.46400  0.51800  Biso   1.000  H
  H20      1.0000 0.40500  0.03600  0.48200  Biso   1.000  H
  H21      1.0000 0.11100  0.94000  0.53400  Biso   1.000  H
  H22      1.0000 0.61100  0.56000  0.46600  Biso   1.000  H
  H23      1.0000 0.88900  0.44000  0.96600  Biso   1.000  H
  H24      1.0000 0.38900  0.06000  0.03400  Biso   1.000  H
  H25      1.0000 0.16600  0.00200  0.30500  Biso   1.000  H
  H26      1.0000 0.66600  0.49800  0.69500  Biso   1.000  H
  H27      1.0000 0.83400  0.50200  0.19500  Biso   1.000  H
  H28      1.0000 0.33400  0.99800  0.80500  Biso   1.000  H
  H29      1.0000 0.16200  0.09800  0.35800  Biso   1.000  H
  H30      1.0000 0.66200  0.40200  0.64200  Biso   1.000  H
  H31      1.0000 0.83800  0.59800  0.14200  Biso   1.000  H
  H32      1.0000 0.33800  0.90200  0.85800  Biso   1.000  H
  H33      1.0000 0.10900  0.13000  0.65200  Biso   1.000  H
  H34      1.0000 0.60900  0.37000  0.34800  Biso   1.000  H
  H35      1.0000 0.89100  0.63000  0.84800  Biso   1.000  H
  H36      1.0000 0.39100  0.87000  0.15200  Biso   1.000  H
  H37      1.0000 0.12700  0.27900  0.16900  Biso   1.000  H
  H38      1.0000 0.62700  0.22100  0.83100  Biso   1.000  H
  H39      1.0000 0.87300  0.77900  0.33100  Biso   1.000  H
  H40      1.0000 0.37300  0.72100  0.66900  Biso   1.000  H
  H41      1.0000 0.14000  0.23500  0.32400  Biso   1.000  H
  H42      1.0000 0.64000  0.26500  0.67600  Biso   1.000  H
  H43      1.0000 0.86000  0.73500  0.17600  Biso   1.000  H
  H44      1.0000 0.36000  0.76500  0.82400  Biso   1.000  H
  H45      1.0000 0.96600  0.23800  0.09500  Biso   1.000  H
  H46      1.0000 0.46600  0.26200  0.90500  Biso   1.000  H
  H47      1.0000 0.03400  0.73800  0.40500  Biso   1.000  H
  H48      1.0000 0.53400  0.76200  0.59500  Biso   1.000  H
  H49      1.0000 0.96600  0.18600  0.40200  Biso   1.000  H
  H50      1.0000 0.46600  0.31400  0.59800  Biso   1.000  H
  H51      1.0000 0.03400  0.68600  0.09800  Biso   1.000  H
  H52      1.0000 0.53400  0.81400  0.90200  Biso   1.000  H
  H53      1.0000 0.92900  0.24700  0.38900  Biso   1.000  H
  H54      1.0000 0.42900  0.25300  0.61100  Biso   1.000  H
  H55      1.0000 0.07100  0.74700  0.11100  Biso   1.000  H
  H56      1.0000 0.57100  0.75300  0.88900  Biso   1.000  H
  H57      1.0000 0.72400  0.26300  0.38400  Biso   1.000  H
  H58      1.0000 0.22400  0.23700  0.61600  Biso   1.000  H
  H59      1.0000 0.27600  0.76300  0.11600  Biso   1.000  H
  H60      1.0000 0.77600  0.73700  0.88400  Biso   1.000  H
  H61      1.0000 0.53600  0.23800  0.30900  Biso   1.000  H
  H62      1.0000 0.03600  0.26200  0.69100  Biso   1.000  H
  H63      1.0000 0.46400  0.73800  0.19100  Biso   1.000  H
  H64      1.0000 0.96400  0.76200  0.80900  Biso   1.000  H
  H65      1.0000 0.50200  0.15700  0.14100  Biso   1.000  H
  H66      1.0000 0.00200  0.34300  0.85900  Biso   1.000  H
  H67      1.0000 0.49800  0.65700  0.35900  Biso   1.000  H
  H68      1.0000 0.99800  0.84300  0.64100  Biso   1.000  H
  H69      1.0000 0.66000  0.09800  0.06600  Biso   1.000  H
  H70      1.0000 0.16000  0.40200  0.93400  Biso   1.000  H
  H71      1.0000 0.34000  0.59800  0.43400  Biso   1.000  H
  H72      1.0000 0.84000  0.90200  0.56600  Biso   1.000  H
  H73      1.0000 0.87700  0.15100  0.76500  Biso   1.000  H
  H74      1.0000 0.37700  0.34900  0.23500  Biso   1.000  H
  H75      1.0000 0.12300  0.65100  0.73500  Biso   1.000  H
  H76      1.0000 0.62300  0.84900  0.26500  Biso   1.000  H
  H77      1.0000 0.86100  0.20200  0.79900  Biso   1.000  H
  H78      1.0000 0.36100  0.29800  0.20100  Biso   1.000  H
  H79      1.0000 0.13900  0.70200  0.70100  Biso   1.000  H
  H80      1.0000 0.63900  0.79800  0.29900  Biso   1.000  H
  H81      1.0000 0.33500  0.15100  0.82600  Biso   1.000  H
  H82      1.0000 0.83500  0.34900  0.17400  Biso   1.000  H
  H83      1.0000 0.66500  0.65100  0.67400  Biso   1.000  H
  H84      1.0000 0.16500  0.84900  0.32600  Biso   1.000  H
