data_image0
_cell_length_a       7.983
_cell_length_b       10.067
_cell_length_c       16.564
_cell_angle_alpha    84.801
_cell_angle_beta     87.554
_cell_angle_gamma    88.938

_symmetry_space_group_name_H-M    "P 1"
_symmetry_int_tables_number       1

loop_
  _symmetry_equiv_pos_as_xyz
  'x, y, z'

loop_
  _atom_site_label
  _atom_site_occupancy
  _atom_site_fract_x
  _atom_site_fract_y
  _atom_site_fract_z
  _atom_site_thermal_displace_type
  _atom_site_B_iso_or_equiv
  _atom_site_type_symbol
  Cu1      1.0000 0.70118  0.78663  0.72000  Biso   1.000  Cu
  Cu2      1.0000 0.29882  0.21337  0.28000  Biso   1.000  Cu
  N1       1.0000 0.49650  0.75230  0.65930  Biso   1.000  N
  N2       1.0000 0.50350  0.24770  0.34070  Biso   1.000  N
  N3       1.0000 0.87910  0.39310  0.71870  Biso   1.000  N
  N4       1.0000 0.12090  0.60690  0.28130  Biso   1.000  N
  N5       1.0000 0.79220  0.60150  0.69530  Biso   1.000  N
  N6       1.0000 0.20780  0.39850  0.30470  Biso   1.000  N
  N7       1.0000 0.49530  0.16850  0.74690  Biso   1.000  N
  N8       1.0000 0.50470  0.83150  0.25310  Biso   1.000  N
  N9       1.0000 0.59870  0.96430  0.75300  Biso   1.000  N
  N10      1.0000 0.40130  0.03570  0.24700  Biso   1.000  N
  N11      1.0000 0.06270  0.84060  0.88510  Biso   1.000  N
  N12      1.0000 0.93730  0.15940  0.11490  Biso   1.000  N
  N13      1.0000 0.90050  0.82040  0.78300  Biso   1.000  N
  N14      1.0000 0.09950  0.17960  0.21700  Biso   1.000  N
  O1       1.0000 0.51110  0.67380  0.82010  Biso   1.000  O
  O2       1.0000 0.48890  0.32620  0.17990  Biso   1.000  O
  O3       1.0000 0.25760  0.58070  0.82120  Biso   1.000  O
  O4       1.0000 0.74240  0.41930  0.17880  Biso   1.000  O
  O5       1.0000 0.76300  0.88080  0.58990  Biso   1.000  O
  O6       1.0000 0.23700  0.11920  0.41010  Biso   1.000  O
  O7       1.0000 0.65710  0.88370  0.46660  Biso   1.000  O
  O8       1.0000 0.34290  0.11630  0.53340  Biso   1.000  O
  O9       1.0000 0.97790  0.10780  0.58120  Biso   1.000  O
  O10      1.0000 0.02210  0.89220  0.41880  Biso   1.000  O
  H1       1.0000 0.94190  0.02910  0.57960  Biso   1.000  H
  H2       1.0000 0.05810  0.97090  0.42040  Biso   1.000  H
  H3       1.0000 0.07490  0.10810  0.55790  Biso   1.000  H
  H4       1.0000 0.92510  0.89190  0.44210  Biso   1.000  H
  O11      1.0000 0.16810  0.47940  0.97480  Biso   1.000  O
  O12      1.0000 0.83190  0.52060  0.02520  Biso   1.000  O
  H5       1.0000 0.21160  0.53110  0.93650  Biso   1.000  H
  H6       1.0000 0.78840  0.46890  0.06350  Biso   1.000  H
  H7       1.0000 0.06690  0.50590  0.98020  Biso   1.000  H
  H8       1.0000 0.93310  0.49410  0.01980  Biso   1.000  H
  O13      1.0000 0.56770  0.73370  0.98090  Biso   1.000  O
  O14      1.0000 0.43230  0.26630  0.01910  Biso   1.000  O
  H9       1.0000 0.54910  0.69700  0.93730  Biso   1.000  H
  H10      1.0000 0.45090  0.30300  0.06270  Biso   1.000  H
  H11      1.0000 0.50980  0.68780  0.01720  Biso   1.000  H
  H12      1.0000 0.49020  0.31220  0.98280  Biso   1.000  H
  O15      1.0000 0.61790  0.42310  0.91190  Biso   1.000  O
  O16      1.0000 0.38210  0.57690  0.08810  Biso   1.000  O
  H13      1.0000 0.59070  0.48470  0.87610  Biso   1.000  H
  H14      1.0000 0.40930  0.51530  0.12390  Biso   1.000  H
  H15      1.0000 0.65460  0.46360  0.95020  Biso   1.000  H
  H16      1.0000 0.34540  0.53640  0.04980  Biso   1.000  H
  C1       1.0000 0.37900  0.64490  0.78780  Biso   1.000  C
  C2       1.0000 0.62100  0.35510  0.21220  Biso   1.000  C
  C3       1.0000 0.36380  0.68930  0.69770  Biso   1.000  C
  C4       1.0000 0.63620  0.31070  0.30230  Biso   1.000  C
  C5       1.0000 0.21950  0.66930  0.65780  Biso   1.000  C
  C6       1.0000 0.78050  0.33070  0.34220  Biso   1.000  C
  H17      1.0000 0.12950  0.62490  0.68490  Biso   1.000  H
  H18      1.0000 0.87050  0.37510  0.31510  Biso   1.000  H
  C7       1.0000 0.21050  0.71630  0.57670  Biso   1.000  C
  C8       1.0000 0.78950  0.28370  0.42330  Biso   1.000  C
  H19      1.0000 0.11290  0.70670  0.54920  Biso   1.000  H
  H20      1.0000 0.88710  0.29330  0.45080  Biso   1.000  H
  C9       1.0000 0.34860  0.77740  0.53740  Biso   1.000  C
  C10      1.0000 0.65140  0.22260  0.46260  Biso   1.000  C
  H21      1.0000 0.34590  0.80710  0.48270  Biso   1.000  H
  H22      1.0000 0.65410  0.19290  0.51730  Biso   1.000  H
  C11      1.0000 0.49080  0.79410  0.58010  Biso   1.000  C
  C12      1.0000 0.50920  0.20590  0.41990  Biso   1.000  C
  C13      1.0000 0.65030  0.85890  0.54180  Biso   1.000  C
  C14      1.0000 0.34970  0.14110  0.45820  Biso   1.000  C
  C15      1.0000 0.84140  0.50870  0.75120  Biso   1.000  C
  C16      1.0000 0.15860  0.49130  0.24880  Biso   1.000  C
  H23      1.0000 0.84910  0.52140  0.80580  Biso   1.000  H
  H24      1.0000 0.15090  0.47860  0.19420  Biso   1.000  H
  C17      1.0000 0.80070  0.54170  0.62350  Biso   1.000  C
  C18      1.0000 0.19930  0.45830  0.37650  Biso   1.000  C
  H25      1.0000 0.77380  0.58310  0.57310  Biso   1.000  H
  H26      1.0000 0.22620  0.41690  0.42690  Biso   1.000  H
  C19      1.0000 0.85400  0.41420  0.63740  Biso   1.000  C
  C20      1.0000 0.14600  0.58580  0.36260  Biso   1.000  C
  H27      1.0000 0.87040  0.35250  0.59920  Biso   1.000  H
  H28      1.0000 0.12960  0.64750  0.40080  Biso   1.000  H
  C21      1.0000 0.54170  0.06560  0.70430  Biso   1.000  C
  C22      1.0000 0.45830  0.93440  0.29570  Biso   1.000  C
  H29      1.0000 0.53490  0.06540  0.64840  Biso   1.000  H
  H30      1.0000 0.46510  0.93460  0.35160  Biso   1.000  H
  C23      1.0000 0.58690  0.00530  0.82960  Biso   1.000  C
  C24      1.0000 0.41310  0.99470  0.17040  Biso   1.000  C
  H31      1.0000 0.61700  0.95430  0.87660  Biso   1.000  H
  H32      1.0000 0.38300  0.04570  0.12340  Biso   1.000  H
  C25      1.0000 0.52420  0.13220  0.82640  Biso   1.000  C
  C26      1.0000 0.47580  0.86780  0.17360  Biso   1.000  C
  H33      1.0000 0.50480  0.18380  0.86980  Biso   1.000  H
  H34      1.0000 0.49520  0.81620  0.13020  Biso   1.000  H
  C27      1.0000 0.94330  0.26960  0.76310  Biso   1.000  C
  C28      1.0000 0.05670  0.73040  0.23690  Biso   1.000  C
  H35      1.0000 0.92370  0.19430  0.73240  Biso   1.000  H
  H36      1.0000 0.07630  0.80570  0.26760  Biso   1.000  H
  H37      1.0000 0.88250  0.25490  0.81500  Biso   1.000  H
  H38      1.0000 0.11750  0.74510  0.18500  Biso   1.000  H
  C29      1.0000 0.13060  0.27770  0.77720  Biso   1.000  C
  C30      1.0000 0.86940  0.72230  0.22280  Biso   1.000  C
  H39      1.0000 0.14940  0.35380  0.80750  Biso   1.000  H
  H40      1.0000 0.85060  0.64620  0.19250  Biso   1.000  H
  H41      1.0000 0.16530  0.19810  0.81010  Biso   1.000  H
  H42      1.0000 0.83470  0.80190  0.18990  Biso   1.000  H
  C31      1.0000 0.23770  0.29070  0.70020  Biso   1.000  C
  C32      1.0000 0.76230  0.70930  0.29980  Biso   1.000  C
  H43      1.0000 0.20300  0.37080  0.66780  Biso   1.000  H
  H44      1.0000 0.79700  0.62920  0.33220  Biso   1.000  H
  H45      1.0000 0.21700  0.21530  0.66970  Biso   1.000  H
  H46      1.0000 0.78300  0.78470  0.33030  Biso   1.000  H
  C33      1.0000 0.42400  0.29740  0.71190  Biso   1.000  C
  C34      1.0000 0.57600  0.70260  0.28810  Biso   1.000  C
  H47      1.0000 0.48070  0.32240  0.66000  Biso   1.000  H
  H48      1.0000 0.51930  0.67760  0.34000  Biso   1.000  H
  H49      1.0000 0.44460  0.36600  0.74770  Biso   1.000  H
  H50      1.0000 0.55540  0.63400  0.25230  Biso   1.000  H
  C35      1.0000 0.92330  0.78790  0.86130  Biso   1.000  C
  C36      1.0000 0.07670  0.21210  0.13870  Biso   1.000  C
  H51      1.0000 0.85090  0.73480  0.89520  Biso   1.000  H
  H52      1.0000 0.14910  0.26520  0.10480  Biso   1.000  H
  C37      1.0000 0.03440  0.89860  0.75620  Biso   1.000  C
  C38      1.0000 0.96560  0.10140  0.24380  Biso   1.000  C
  H53      1.0000 0.05350  0.93670  0.70340  Biso   1.000  H
  H54      1.0000 0.94650  0.06330  0.29660  Biso   1.000  H
  C39      1.0000 0.13380  0.91110  0.81890  Biso   1.000  C
  C40      1.0000 0.86620  0.08890  0.18110  Biso   1.000  C
  H55      1.0000 0.23250  0.95910  0.81710  Biso   1.000  H
  H56      1.0000 0.76750  0.04090  0.18290  Biso   1.000  H
  C41      1.0000 0.11470  0.83700  0.96920  Biso   1.000  C
  C42      1.0000 0.88530  0.16300  0.03080  Biso   1.000  C
  H57      1.0000 0.23290  0.81360  0.97120  Biso   1.000  H
  H58      1.0000 0.76710  0.18640  0.02880  Biso   1.000  H
  H59      1.0000 0.05260  0.76870  0.00230  Biso   1.000  H
  H60      1.0000 0.94740  0.23130  0.99770  Biso   1.000  H
  C43      1.0000 0.08450  0.97000  0.00350  Biso   1.000  C
  C44      1.0000 0.91550  0.03000  0.99650  Biso   1.000  C
  H61      1.0000 0.10950  0.95930  0.06050  Biso   1.000  H
  H62      1.0000 0.89050  0.04070  0.93950  Biso   1.000  H
  H63      1.0000 0.16410  0.03290  0.97670  Biso   1.000  H
  H64      1.0000 0.83590  0.96710  0.02330  Biso   1.000  H
