data_image0
_cell_length_a       5.778
_cell_length_b       22.023
_cell_length_c       9.199
_cell_angle_alpha    90
_cell_angle_beta     93.92
_cell_angle_gamma    90

_symmetry_space_group_name_H-M    "P 1"
_symmetry_int_tables_number       1

loop_
  _symmetry_equiv_pos_as_xyz
  'x, y, z'

loop_
  _atom_site_label
  _atom_site_occupancy
  _atom_site_fract_x
  _atom_site_fract_y
  _atom_site_fract_z
  _atom_site_thermal_displace_type
  _atom_site_B_iso_or_equiv
  _atom_site_type_symbol
  Cu1      1.0000 0.25940  0.02370  0.04840  Biso   1.000  Cu
  Cu2      1.0000 0.74060  0.52370  0.45160  Biso   1.000  Cu
  Cu3      1.0000 0.74060  0.97630  0.95160  Biso   1.000  Cu
  Cu4      1.0000 0.25940  0.47630  0.54840  Biso   1.000  Cu
  N1       1.0000 0.53930  0.98030  0.12680  Biso   1.000  N
  N2       1.0000 0.46070  0.48030  0.37320  Biso   1.000  N
  N3       1.0000 0.46070  0.01970  0.87320  Biso   1.000  N
  N4       1.0000 0.53930  0.51970  0.62680  Biso   1.000  N
  N5       1.0000 0.56230  0.95750  0.24620  Biso   1.000  N
  N6       1.0000 0.43770  0.45750  0.25380  Biso   1.000  N
  N7       1.0000 0.43770  0.04250  0.75380  Biso   1.000  N
  N8       1.0000 0.56230  0.54250  0.74620  Biso   1.000  N
  N9       1.0000 0.58550  0.93610  0.35950  Biso   1.000  N
  N10      1.0000 0.41450  0.43610  0.14050  Biso   1.000  N
  N11      1.0000 0.41450  0.06390  0.64050  Biso   1.000  N
  N12      1.0000 0.58550  0.56390  0.85950  Biso   1.000  N
  N13      1.0000 0.01440  0.94220  0.06290  Biso   1.000  N
  N14      1.0000 0.98560  0.44220  0.43710  Biso   1.000  N
  N15      1.0000 0.98560  0.05780  0.93710  Biso   1.000  N
  N16      1.0000 0.01440  0.55780  0.56290  Biso   1.000  N
  N17      1.0000 0.06940  0.88970  0.05300  Biso   1.000  N
  N18      1.0000 0.93060  0.38970  0.44700  Biso   1.000  N
  N19      1.0000 0.93060  0.11030  0.94700  Biso   1.000  N
  N20      1.0000 0.06940  0.61030  0.55300  Biso   1.000  N
  N21      1.0000 0.12380  0.83930  0.04570  Biso   1.000  N
  N22      1.0000 0.87620  0.33930  0.45430  Biso   1.000  N
  N23      1.0000 0.87620  0.16070  0.95430  Biso   1.000  N
  N24      1.0000 0.12380  0.66070  0.54570  Biso   1.000  N
  N25      1.0000 0.18530  0.06590  0.23380  Biso   1.000  N
  N26      1.0000 0.81470  0.56590  0.26620  Biso   1.000  N
  N27      1.0000 0.81470  0.93410  0.76620  Biso   1.000  N
  N28      1.0000 0.18530  0.43410  0.73380  Biso   1.000  N
  C1       1.0000 0.01450  0.04510  0.31250  Biso   1.000  C
  C2       1.0000 0.98550  0.54510  0.18750  Biso   1.000  C
  C3       1.0000 0.98550  0.95490  0.68750  Biso   1.000  C
  C4       1.0000 0.01450  0.45490  0.81250  Biso   1.000  C
  C5       1.0000 0.91200  0.07580  0.42330  Biso   1.000  C
  C6       1.0000 0.08800  0.57580  0.07670  Biso   1.000  C
  C7       1.0000 0.08800  0.92420  0.57670  Biso   1.000  C
  C8       1.0000 0.91200  0.42420  0.92330  Biso   1.000  C
  C9       1.0000 0.98610  0.13430  0.45590  Biso   1.000  C
  C10      1.0000 0.01390  0.63430  0.04410  Biso   1.000  C
  C11      1.0000 0.01390  0.86570  0.54410  Biso   1.000  C
  C12      1.0000 0.98610  0.36570  0.95590  Biso   1.000  C
  C13      1.0000 0.25390  0.21830  0.39720  Biso   1.000  C
  C14      1.0000 0.74610  0.71830  0.10280  Biso   1.000  C
  C15      1.0000 0.74610  0.78170  0.60280  Biso   1.000  C
  C16      1.0000 0.25390  0.28170  0.89720  Biso   1.000  C
  C17      1.0000 0.45650  0.23970  0.32150  Biso   1.000  C
  C18      1.0000 0.54350  0.73970  0.17850  Biso   1.000  C
  C19      1.0000 0.54350  0.76030  0.67850  Biso   1.000  C
  C20      1.0000 0.45650  0.26030  0.82150  Biso   1.000  C
  C21      1.0000 0.52360  0.20290  0.21270  Biso   1.000  C
  C22      1.0000 0.47640  0.70290  0.28730  Biso   1.000  C
  C23      1.0000 0.47640  0.79710  0.78730  Biso   1.000  C
  C24      1.0000 0.52360  0.29710  0.71270  Biso   1.000  C
  C25      1.0000 0.44560  0.14580  0.18270  Biso   1.000  C
  C26      1.0000 0.55440  0.64580  0.31730  Biso   1.000  C
  C27      1.0000 0.55440  0.85420  0.81730  Biso   1.000  C
  C28      1.0000 0.44560  0.35420  0.68270  Biso   1.000  C
  C29      1.0000 0.25680  0.12270  0.26730  Biso   1.000  C
  C30      1.0000 0.74320  0.62270  0.23270  Biso   1.000  C
  C31      1.0000 0.74320  0.87730  0.73270  Biso   1.000  C
  C32      1.0000 0.25680  0.37730  0.76730  Biso   1.000  C
  C33      1.0000 0.16810  0.15970  0.37040  Biso   1.000  C
  C34      1.0000 0.83190  0.65970  0.12960  Biso   1.000  C
  C35      1.0000 0.83190  0.84030  0.62960  Biso   1.000  C
  C36      1.0000 0.16810  0.34030  0.87040  Biso   1.000  C
  C37      1.0000 0.87760  0.16860  0.56800  Biso   1.000  C
  C38      1.0000 0.12240  0.66860  0.93200  Biso   1.000  C
  C39      1.0000 0.12240  0.83140  0.43200  Biso   1.000  C
  C40      1.0000 0.87760  0.33140  0.06800  Biso   1.000  C
  H1       1.0000 0.95100  0.00000  0.28700  Biso   1.000  H
  H2       1.0000 0.04900  0.50000  0.21300  Biso   1.000  H
  H3       1.0000 0.04900  0.00000  0.71300  Biso   1.000  H
  H4       1.0000 0.95100  0.50000  0.78700  Biso   1.000  H
  H5       1.0000 0.77800  0.05500  0.48200  Biso   1.000  H
  H6       1.0000 0.22200  0.55500  0.01800  Biso   1.000  H
  H7       1.0000 0.22200  0.94500  0.51800  Biso   1.000  H
  H8       1.0000 0.77800  0.44500  0.98200  Biso   1.000  H
  H9       1.0000 0.18100  0.24600  0.47900  Biso   1.000  H
  H10      1.0000 0.81900  0.74600  0.02100  Biso   1.000  H
  H11      1.0000 0.81900  0.75400  0.52100  Biso   1.000  H
  H12      1.0000 0.18100  0.25400  0.97900  Biso   1.000  H
  H13      1.0000 0.66200  0.22100  0.15300  Biso   1.000  H
  H14      1.0000 0.33800  0.72100  0.34700  Biso   1.000  H
  H15      1.0000 0.33800  0.77900  0.84700  Biso   1.000  H
  H16      1.0000 0.66200  0.27900  0.65300  Biso   1.000  H
  H17      1.0000 0.51900  0.11800  0.10000  Biso   1.000  H
  H18      1.0000 0.48100  0.61800  0.40000  Biso   1.000  H
  H19      1.0000 0.48100  0.88200  0.90000  Biso   1.000  H
  H20      1.0000 0.51900  0.38200  0.60000  Biso   1.000  H
  H21      1.0000 0.75400  0.14000  0.61800  Biso   1.000  H
  H22      1.0000 0.24600  0.64000  0.88200  Biso   1.000  H
  H23      1.0000 0.24600  0.86000  0.38200  Biso   1.000  H
  H24      1.0000 0.75400  0.36000  0.11800  Biso   1.000  H
  H25      1.0000 0.02700  0.17500  0.64500  Biso   1.000  H
  H26      1.0000 0.97300  0.67500  0.85500  Biso   1.000  H
  H27      1.0000 0.97300  0.82500  0.35500  Biso   1.000  H
  H28      1.0000 0.02700  0.32500  0.14500  Biso   1.000  H
  H29      1.0000 0.79700  0.21300  0.55000  Biso   1.000  H
  H30      1.0000 0.20300  0.71300  0.95000  Biso   1.000  H
  H31      1.0000 0.20300  0.78700  0.45000  Biso   1.000  H
  H32      1.0000 0.79700  0.28700  0.05000  Biso   1.000  H
