data_image0
_cell_length_a       8.237
_cell_length_b       13.038
_cell_length_c       8.953
_cell_angle_alpha    90
_cell_angle_beta     112.23
_cell_angle_gamma    90

_symmetry_space_group_name_H-M    "P 1"
_symmetry_int_tables_number       1

loop_
  _symmetry_equiv_pos_as_xyz
  'x, y, z'

loop_
  _atom_site_label
  _atom_site_occupancy
  _atom_site_fract_x
  _atom_site_fract_y
  _atom_site_fract_z
  _atom_site_thermal_displace_type
  _atom_site_B_iso_or_equiv
  _atom_site_type_symbol
  Cu1      1.0000 0.09260  0.09910  0.08550  Biso   1.000  Cu
  Cu2      1.0000 0.40740  0.59910  0.91450  Biso   1.000  Cu
  Cu3      1.0000 0.90740  0.90090  0.91450  Biso   1.000  Cu
  Cu4      1.0000 0.59260  0.40090  0.08550  Biso   1.000  Cu
  N1       1.0000 0.04630  0.95360  0.13640  Biso   1.000  N
  N2       1.0000 0.45370  0.45360  0.86360  Biso   1.000  N
  N3       1.0000 0.95370  0.04640  0.86360  Biso   1.000  N
  N4       1.0000 0.54630  0.54640  0.13640  Biso   1.000  N
  N5       1.0000 0.99280  0.93640  0.24440  Biso   1.000  N
  N6       1.0000 0.50720  0.43640  0.75560  Biso   1.000  N
  N7       1.0000 0.00720  0.06360  0.75560  Biso   1.000  N
  N8       1.0000 0.49280  0.56360  0.24440  Biso   1.000  N
  N9       1.0000 0.94500  0.91920  0.34580  Biso   1.000  N
  N10      1.0000 0.55500  0.41920  0.65420  Biso   1.000  N
  N11      1.0000 0.05500  0.08080  0.65420  Biso   1.000  N
  N12      1.0000 0.44500  0.58080  0.34580  Biso   1.000  N
  N13      1.0000 0.86610  0.15710  0.14860  Biso   1.000  N
  N14      1.0000 0.63390  0.65710  0.85140  Biso   1.000  N
  N15      1.0000 0.13390  0.84290  0.85140  Biso   1.000  N
  N16      1.0000 0.36610  0.34290  0.14860  Biso   1.000  N
  N17      1.0000 0.75620  0.21430  0.07410  Biso   1.000  N
  N18      1.0000 0.74380  0.71430  0.92590  Biso   1.000  N
  N19      1.0000 0.24380  0.78570  0.92590  Biso   1.000  N
  N20      1.0000 0.25620  0.28570  0.07410  Biso   1.000  N
  N21      1.0000 0.64170  0.27040  0.99600  Biso   1.000  N
  N22      1.0000 0.85830  0.77040  0.00400  Biso   1.000  N
  N23      1.0000 0.35830  0.72960  0.00400  Biso   1.000  N
  N24      1.0000 0.14170  0.22960  0.99600  Biso   1.000  N
  N25      1.0000 0.28960  0.11670  0.29790  Biso   1.000  N
  N26      1.0000 0.21040  0.61670  0.70210  Biso   1.000  N
  N27      1.0000 0.71040  0.88330  0.70210  Biso   1.000  N
  N28      1.0000 0.78960  0.38330  0.29790  Biso   1.000  N
  C1       1.0000 0.45460  0.09590  0.30930  Biso   1.000  C
  C2       1.0000 0.04540  0.59590  0.69070  Biso   1.000  C
  C3       1.0000 0.54540  0.90410  0.69070  Biso   1.000  C
  C4       1.0000 0.95460  0.40410  0.30930  Biso   1.000  C
  C5       1.0000 0.59700  0.11230  0.45360  Biso   1.000  C
  C6       1.0000 0.90300  0.61230  0.54640  Biso   1.000  C
  C7       1.0000 0.40300  0.88770  0.54640  Biso   1.000  C
  C8       1.0000 0.09700  0.38770  0.45360  Biso   1.000  C
  C9       1.0000 0.56840  0.14940  0.58730  Biso   1.000  C
  C10      1.0000 0.93160  0.64940  0.41270  Biso   1.000  C
  C11      1.0000 0.43160  0.85060  0.41270  Biso   1.000  C
  C12      1.0000 0.06840  0.35060  0.58730  Biso   1.000  C
  C13      1.0000 0.39820  0.16790  0.57450  Biso   1.000  C
  C14      1.0000 0.10180  0.66790  0.42550  Biso   1.000  C
  C15      1.0000 0.60180  0.83210  0.42550  Biso   1.000  C
  C16      1.0000 0.89820  0.33210  0.57450  Biso   1.000  C
  C17      1.0000 0.26250  0.15110  0.42830  Biso   1.000  C
  C18      1.0000 0.23750  0.65110  0.57170  Biso   1.000  C
  C19      1.0000 0.73750  0.84890  0.57170  Biso   1.000  C
  C20      1.0000 0.76250  0.34890  0.42830  Biso   1.000  C
  C21      1.0000 0.47710  0.05490  0.16220  Biso   1.000  C
  C22      1.0000 0.02290  0.55490  0.83780  Biso   1.000  C
  C23      1.0000 0.52290  0.94510  0.83780  Biso   1.000  C
  C24      1.0000 0.97710  0.44510  0.16220  Biso   1.000  C
  H1       1.0000 0.72000  0.09300  0.45100  Biso   1.000  H
  H2       1.0000 0.78000  0.59300  0.54900  Biso   1.000  H
  H3       1.0000 0.28000  0.90700  0.54900  Biso   1.000  H
  H4       1.0000 0.22000  0.40700  0.45100  Biso   1.000  H
  H5       1.0000 0.67200  0.16200  0.69700  Biso   1.000  H
  H6       1.0000 0.82800  0.66200  0.30300  Biso   1.000  H
  H7       1.0000 0.32800  0.83800  0.30300  Biso   1.000  H
  H8       1.0000 0.17200  0.33800  0.69700  Biso   1.000  H
  H9       1.0000 0.37000  0.19200  0.67100  Biso   1.000  H
  H10      1.0000 0.13000  0.69200  0.32900  Biso   1.000  H
  H11      1.0000 0.63000  0.80800  0.32900  Biso   1.000  H
  H12      1.0000 0.87000  0.30800  0.67100  Biso   1.000  H
  H13      1.0000 0.13300  0.16000  0.41700  Biso   1.000  H
  H14      1.0000 0.36700  0.66000  0.58300  Biso   1.000  H
  H15      1.0000 0.86700  0.84000  0.58300  Biso   1.000  H
  H16      1.0000 0.63300  0.34000  0.41700  Biso   1.000  H
  H17      1.0000 0.43900  0.11100  0.06900  Biso   1.000  H
  H18      1.0000 0.06100  0.61100  0.93100  Biso   1.000  H
  H19      1.0000 0.56100  0.88900  0.93100  Biso   1.000  H
  H20      1.0000 0.93900  0.38900  0.06900  Biso   1.000  H
  H21      1.0000 0.39100  0.99200  0.11600  Biso   1.000  H
  H22      1.0000 0.10900  0.49200  0.88400  Biso   1.000  H
  H23      1.0000 0.60900  0.00800  0.88400  Biso   1.000  H
  H24      1.0000 0.89100  0.50800  0.11600  Biso   1.000  H
  H25      1.0000 0.60700  0.03100  0.18400  Biso   1.000  H
  H26      1.0000 0.89300  0.53100  0.81600  Biso   1.000  H
  H27      1.0000 0.39300  0.96900  0.81600  Biso   1.000  H
  H28      1.0000 0.10700  0.46900  0.18400  Biso   1.000  H
