data_image0
_cell_length_a       10.9601
_cell_length_b       13.1817
_cell_length_c       16.0836
_cell_angle_alpha    90
_cell_angle_beta     102.141
_cell_angle_gamma    90

_symmetry_space_group_name_H-M    "P 1"
_symmetry_int_tables_number       1

loop_
  _symmetry_equiv_pos_as_xyz
  'x, y, z'

loop_
  _atom_site_label
  _atom_site_occupancy
  _atom_site_fract_x
  _atom_site_fract_y
  _atom_site_fract_z
  _atom_site_thermal_displace_type
  _atom_site_B_iso_or_equiv
  _atom_site_type_symbol
  Cu1      1.0000 0.27457  0.23421  0.68936  Biso   1.000  Cu
  Cu2      1.0000 0.72543  0.73421  0.81064  Biso   1.000  Cu
  Cu3      1.0000 0.72543  0.76579  0.31064  Biso   1.000  Cu
  Cu4      1.0000 0.27457  0.26579  0.18936  Biso   1.000  Cu
  N1       1.0000 0.27500  0.21660  0.07379  Biso   1.000  N
  N2       1.0000 0.72500  0.71660  0.42621  Biso   1.000  N
  N3       1.0000 0.72500  0.78340  0.92621  Biso   1.000  N
  N4       1.0000 0.27500  0.28340  0.57379  Biso   1.000  N
  O1       1.0000 0.08860  0.27253  0.67025  Biso   1.000  O
  O2       1.0000 0.91140  0.77253  0.82975  Biso   1.000  O
  O3       1.0000 0.91140  0.72747  0.32975  Biso   1.000  O
  O4       1.0000 0.08860  0.22747  0.17025  Biso   1.000  O
  N5       1.0000 0.26740  0.18040  0.80217  Biso   1.000  N
  N6       1.0000 0.73260  0.68040  0.69783  Biso   1.000  N
  N7       1.0000 0.73260  0.81960  0.19783  Biso   1.000  N
  N8       1.0000 0.26740  0.31960  0.30217  Biso   1.000  N
  C1       1.0000 0.28880  0.18050  0.01330  Biso   1.000  C
  C2       1.0000 0.71120  0.68050  0.48670  Biso   1.000  C
  C3       1.0000 0.71120  0.81950  0.98670  Biso   1.000  C
  C4       1.0000 0.28880  0.31950  0.51330  Biso   1.000  C
  C5       1.0000 0.28560  0.16220  0.87231  Biso   1.000  C
  C6       1.0000 0.71440  0.66220  0.62769  Biso   1.000  C
  C7       1.0000 0.71440  0.83780  0.12769  Biso   1.000  C
  C8       1.0000 0.28560  0.33780  0.37231  Biso   1.000  C
  N9       1.0000 0.42730  0.14940  0.69020  Biso   1.000  N
  N10      1.0000 0.57270  0.64940  0.80980  Biso   1.000  N
  N11      1.0000 0.57270  0.85060  0.30980  Biso   1.000  N
  N12      1.0000 0.42730  0.35060  0.19020  Biso   1.000  N
  N13      1.0000 0.65680  0.87960  0.75979  Biso   1.000  N
  N14      1.0000 0.34320  0.37960  0.74021  Biso   1.000  N
  N15      1.0000 0.34320  0.12040  0.24021  Biso   1.000  N
  N16      1.0000 0.65680  0.62040  0.25979  Biso   1.000  N
  C9       1.0000 0.51260  0.10040  0.70420  Biso   1.000  C
  C10      1.0000 0.48740  0.60040  0.79580  Biso   1.000  C
  C11      1.0000 0.48740  0.89960  0.29580  Biso   1.000  C
  C12      1.0000 0.51260  0.39960  0.20420  Biso   1.000  C
  C13      1.0000 0.63260  0.96070  0.74110  Biso   1.000  C
  C14      1.0000 0.36740  0.46070  0.75890  Biso   1.000  C
  C15      1.0000 0.36740  0.03930  0.25890  Biso   1.000  C
  C16      1.0000 0.63260  0.53930  0.24110  Biso   1.000  C
  N17      1.0000 0.30920  0.12970  0.94931  Biso   1.000  N
  N18      1.0000 0.69080  0.62970  0.55069  Biso   1.000  N
  N19      1.0000 0.69080  0.87030  0.05069  Biso   1.000  N
  N20      1.0000 0.30920  0.37030  0.44931  Biso   1.000  N
  N21      1.0000 0.61780  0.05460  0.71700  Biso   1.000  N
  N22      1.0000 0.38220  0.55460  0.78300  Biso   1.000  N
  N23      1.0000 0.38220  0.94540  0.28300  Biso   1.000  N
  N24      1.0000 0.61780  0.44540  0.21700  Biso   1.000  N
  O5       1.0000 0.91960  0.20450  0.60560  Biso   1.000  O
  O6       1.0000 0.08040  0.70450  0.89440  Biso   1.000  O
  O7       1.0000 0.08040  0.79550  0.39440  Biso   1.000  O
  O8       1.0000 0.91960  0.29550  0.10560  Biso   1.000  O
  N25      1.0000 0.03188  0.20258  0.63451  Biso   1.000  N
  N26      1.0000 0.96812  0.70258  0.86549  Biso   1.000  N
  N27      1.0000 0.96812  0.79742  0.36549  Biso   1.000  N
  N28      1.0000 0.03188  0.29742  0.13451  Biso   1.000  N
  O9       1.0000 0.08950  0.12460  0.62653  Biso   1.000  O
  O10      1.0000 0.91050  0.62460  0.87347  Biso   1.000  O
  O11      1.0000 0.91050  0.87540  0.37347  Biso   1.000  O
  O12      1.0000 0.08950  0.37540  0.12653  Biso   1.000  O
  N29      1.0000 0.82910  0.30853  0.83985  Biso   1.000  N
  N30      1.0000 0.17090  0.80853  0.66015  Biso   1.000  N
  N31      1.0000 0.17090  0.69147  0.16015  Biso   1.000  N
  N32      1.0000 0.82910  0.19147  0.33985  Biso   1.000  N
  C17      1.0000 0.74610  0.30190  0.74950  Biso   1.000  C
  C18      1.0000 0.25390  0.80190  0.75050  Biso   1.000  C
  C19      1.0000 0.25390  0.69810  0.25050  Biso   1.000  C
  C20      1.0000 0.74610  0.19810  0.24950  Biso   1.000  C
  H1       1.0000 0.79210  0.26530  0.71370  Biso   1.000  H
  H2       1.0000 0.20790  0.76530  0.78630  Biso   1.000  H
  H3       1.0000 0.20790  0.73470  0.28630  Biso   1.000  H
  H4       1.0000 0.79210  0.23470  0.21370  Biso   1.000  H
  H5       1.0000 0.67310  0.26170  0.75260  Biso   1.000  H
  H6       1.0000 0.32690  0.76170  0.74740  Biso   1.000  H
  H7       1.0000 0.32690  0.73830  0.24740  Biso   1.000  H
  H8       1.0000 0.67310  0.23830  0.25260  Biso   1.000  H
  C21      1.0000 0.70220  0.40070  0.70600  Biso   1.000  C
  C22      1.0000 0.29780  0.90070  0.79400  Biso   1.000  C
  C23      1.0000 0.29780  0.59930  0.29400  Biso   1.000  C
  C24      1.0000 0.70220  0.09930  0.20600  Biso   1.000  C
  H9       1.0000 0.65440  0.43790  0.74030  Biso   1.000  H
  H10      1.0000 0.34560  0.93790  0.75970  Biso   1.000  H
  H11      1.0000 0.34560  0.56210  0.25970  Biso   1.000  H
  H12      1.0000 0.65440  0.06210  0.24030  Biso   1.000  H
  H13      1.0000 0.77400  0.44150  0.70120  Biso   1.000  H
  H14      1.0000 0.22600  0.94150  0.79880  Biso   1.000  H
  H15      1.0000 0.22600  0.55850  0.29880  Biso   1.000  H
  H16      1.0000 0.77400  0.05850  0.20120  Biso   1.000  H
  C25      1.0000 0.62560  0.38410  0.62210  Biso   1.000  C
  C26      1.0000 0.37440  0.88410  0.87790  Biso   1.000  C
  C27      1.0000 0.37440  0.61590  0.37790  Biso   1.000  C
  C28      1.0000 0.62560  0.11590  0.12210  Biso   1.000  C
  H17      1.0000 0.59920  0.44830  0.59620  Biso   1.000  H
  H18      1.0000 0.40080  0.94830  0.90380  Biso   1.000  H
  H19      1.0000 0.40080  0.55170  0.40380  Biso   1.000  H
  H20      1.0000 0.59920  0.05170  0.09620  Biso   1.000  H
  H21      1.0000 0.67310  0.34830  0.58760  Biso   1.000  H
  H22      1.0000 0.32690  0.84830  0.91240  Biso   1.000  H
  H23      1.0000 0.32690  0.65170  0.41240  Biso   1.000  H
  H24      1.0000 0.67310  0.15170  0.08760  Biso   1.000  H
  H25      1.0000 0.55370  0.34470  0.62670  Biso   1.000  H
  H26      1.0000 0.44630  0.84470  0.87330  Biso   1.000  H
  H27      1.0000 0.44630  0.65530  0.37330  Biso   1.000  H
  H28      1.0000 0.55370  0.15530  0.12670  Biso   1.000  H
  C29      1.0000 0.75560  0.36440  0.89860  Biso   1.000  C
  C30      1.0000 0.24440  0.86440  0.60140  Biso   1.000  C
  C31      1.0000 0.24440  0.63560  0.10140  Biso   1.000  C
  C32      1.0000 0.75560  0.13560  0.39860  Biso   1.000  C
  H29      1.0000 0.80800  0.36710  0.95530  Biso   1.000  H
  H30      1.0000 0.19200  0.86710  0.54470  Biso   1.000  H
  H31      1.0000 0.19200  0.63290  0.04470  Biso   1.000  H
  H32      1.0000 0.80800  0.13290  0.45530  Biso   1.000  H
  H33      1.0000 0.74190  0.43370  0.87860  Biso   1.000  H
  H34      1.0000 0.25810  0.93370  0.62140  Biso   1.000  H
  H35      1.0000 0.25810  0.56630  0.12140  Biso   1.000  H
  H36      1.0000 0.74190  0.06630  0.37860  Biso   1.000  H
  C33      1.0000 0.63060  0.31990  0.90580  Biso   1.000  C
  C34      1.0000 0.36940  0.81990  0.59420  Biso   1.000  C
  C35      1.0000 0.36940  0.68010  0.09420  Biso   1.000  C
  C36      1.0000 0.63060  0.18010  0.40580  Biso   1.000  C
  H37      1.0000 0.57690  0.31590  0.84960  Biso   1.000  H
  H38      1.0000 0.42310  0.81590  0.65040  Biso   1.000  H
  H39      1.0000 0.42310  0.68410  0.15040  Biso   1.000  H
  H40      1.0000 0.57690  0.18410  0.34960  Biso   1.000  H
  H41      1.0000 0.64280  0.25160  0.92850  Biso   1.000  H
  H42      1.0000 0.35720  0.75160  0.57150  Biso   1.000  H
  H43      1.0000 0.35720  0.74840  0.07150  Biso   1.000  H
  H44      1.0000 0.64280  0.24840  0.42850  Biso   1.000  H
  C37      1.0000 0.57110  0.38080  0.96030  Biso   1.000  C
  C38      1.0000 0.42890  0.88080  0.53970  Biso   1.000  C
  C39      1.0000 0.42890  0.61920  0.03970  Biso   1.000  C
  C40      1.0000 0.57110  0.11920  0.46030  Biso   1.000  C
  H45      1.0000 0.49240  0.35110  0.96360  Biso   1.000  H
  H46      1.0000 0.50760  0.85110  0.53640  Biso   1.000  H
  H47      1.0000 0.50760  0.64890  0.03640  Biso   1.000  H
  H48      1.0000 0.49240  0.14890  0.46360  Biso   1.000  H
  H49      1.0000 0.62360  0.38390  0.01610  Biso   1.000  H
  H50      1.0000 0.37640  0.88390  0.48390  Biso   1.000  H
  H51      1.0000 0.37640  0.61610  0.98390  Biso   1.000  H
  H52      1.0000 0.62360  0.11610  0.51610  Biso   1.000  H
  H53      1.0000 0.55770  0.44810  0.93730  Biso   1.000  H
  H54      1.0000 0.44230  0.94810  0.56270  Biso   1.000  H
  H55      1.0000 0.44230  0.55190  0.06270  Biso   1.000  H
  H56      1.0000 0.55770  0.05190  0.43730  Biso   1.000  H
  C41      1.0000 0.85310  0.20140  0.87290  Biso   1.000  C
  C42      1.0000 0.14690  0.70140  0.62710  Biso   1.000  C
  C43      1.0000 0.14690  0.79860  0.12710  Biso   1.000  C
  C44      1.0000 0.85310  0.29860  0.37290  Biso   1.000  C
  H57      1.0000 0.89430  0.20460  0.93240  Biso   1.000  H
  H58      1.0000 0.10570  0.70460  0.56760  Biso   1.000  H
  H59      1.0000 0.10570  0.79540  0.06760  Biso   1.000  H
  H60      1.0000 0.89430  0.29540  0.43240  Biso   1.000  H
  H61      1.0000 0.77330  0.16810  0.86970  Biso   1.000  H
  H62      1.0000 0.22670  0.66810  0.63030  Biso   1.000  H
  H63      1.0000 0.22670  0.83190  0.13030  Biso   1.000  H
  H64      1.0000 0.77330  0.33190  0.36970  Biso   1.000  H
  C45      1.0000 0.93100  0.13640  0.82680  Biso   1.000  C
  C46      1.0000 0.06900  0.63640  0.67320  Biso   1.000  C
  C47      1.0000 0.06900  0.86360  0.17320  Biso   1.000  C
  C48      1.0000 0.93100  0.36360  0.32680  Biso   1.000  C
  H65      1.0000 0.00540  0.17390  0.82190  Biso   1.000  H
  H66      1.0000 0.99460  0.67390  0.67810  Biso   1.000  H
  H67      1.0000 0.99460  0.82610  0.17810  Biso   1.000  H
  H68      1.0000 0.00540  0.32610  0.32190  Biso   1.000  H
  H69      1.0000 0.88390  0.12320  0.76970  Biso   1.000  H
  H70      1.0000 0.11610  0.62320  0.73030  Biso   1.000  H
  H71      1.0000 0.11610  0.87680  0.23030  Biso   1.000  H
  H72      1.0000 0.88390  0.37680  0.26970  Biso   1.000  H
  C49      1.0000 0.97000  0.03640  0.87020  Biso   1.000  C
  C50      1.0000 0.03000  0.53640  0.62980  Biso   1.000  C
  C51      1.0000 0.03000  0.96360  0.12980  Biso   1.000  C
  C52      1.0000 0.97000  0.46360  0.37020  Biso   1.000  C
  H73      1.0000 0.01870  0.99890  0.83790  Biso   1.000  H
  H74      1.0000 0.98130  0.49890  0.66210  Biso   1.000  H
  H75      1.0000 0.98130  0.00110  0.16210  Biso   1.000  H
  H76      1.0000 0.01870  0.50110  0.33790  Biso   1.000  H
  H77      1.0000 0.01810  0.04870  0.92630  Biso   1.000  H
  H78      1.0000 0.98190  0.54870  0.57370  Biso   1.000  H
  H79      1.0000 0.98190  0.95130  0.07370  Biso   1.000  H
  H80      1.0000 0.01810  0.45130  0.42630  Biso   1.000  H
  H81      1.0000 0.89650  0.99800  0.87410  Biso   1.000  H
  H82      1.0000 0.10350  0.49800  0.62590  Biso   1.000  H
  H83      1.0000 0.10350  0.00200  0.12590  Biso   1.000  H
  H84      1.0000 0.89650  0.50200  0.37410  Biso   1.000  H
  C53      1.0000 0.94350  0.36610  0.83610  Biso   1.000  C
  C54      1.0000 0.05650  0.86610  0.66390  Biso   1.000  C
  C55      1.0000 0.05650  0.63390  0.16390  Biso   1.000  C
  C56      1.0000 0.94350  0.13390  0.33610  Biso   1.000  C
  H85      1.0000 0.92020  0.43530  0.81950  Biso   1.000  H
  H86      1.0000 0.07980  0.93530  0.68050  Biso   1.000  H
  H87      1.0000 0.07980  0.56470  0.18050  Biso   1.000  H
  H88      1.0000 0.92020  0.06470  0.31950  Biso   1.000  H
  H89      1.0000 0.98100  0.33680  0.79210  Biso   1.000  H
  H90      1.0000 0.01900  0.83680  0.70790  Biso   1.000  H
  H91      1.0000 0.01900  0.66320  0.20790  Biso   1.000  H
  H92      1.0000 0.98100  0.16320  0.29210  Biso   1.000  H
  C57      1.0000 0.04080  0.36850  0.91860  Biso   1.000  C
  C58      1.0000 0.95920  0.86850  0.58140  Biso   1.000  C
  C59      1.0000 0.95920  0.63150  0.08140  Biso   1.000  C
  C60      1.0000 0.04080  0.13150  0.41860  Biso   1.000  C
  H93      1.0000 0.00480  0.40100  0.96190  Biso   1.000  H
  H94      1.0000 0.99520  0.90100  0.53810  Biso   1.000  H
  H95      1.0000 0.99520  0.59900  0.03810  Biso   1.000  H
  H96      1.0000 0.00480  0.09900  0.46190  Biso   1.000  H
  H97      1.0000 0.06110  0.29920  0.93680  Biso   1.000  H
  H98      1.0000 0.93890  0.79920  0.56320  Biso   1.000  H
  H99      1.0000 0.93890  0.70080  0.06320  Biso   1.000  H
  H100     1.0000 0.06110  0.20080  0.43680  Biso   1.000  H
  C61      1.0000 0.16040  0.42310  0.91310  Biso   1.000  C
  C62      1.0000 0.83960  0.92310  0.58690  Biso   1.000  C
  C63      1.0000 0.83960  0.57690  0.08690  Biso   1.000  C
  C64      1.0000 0.16040  0.07690  0.41310  Biso   1.000  C
  H101     1.0000 0.21670  0.42120  0.96760  Biso   1.000  H
  H102     1.0000 0.78330  0.92120  0.53240  Biso   1.000  H
  H103     1.0000 0.78330  0.57880  0.03240  Biso   1.000  H
  H104     1.0000 0.21670  0.07880  0.46760  Biso   1.000  H
  H105     1.0000 0.19830  0.39040  0.87160  Biso   1.000  H
  H106     1.0000 0.80170  0.89040  0.62840  Biso   1.000  H
  H107     1.0000 0.80170  0.60960  0.12840  Biso   1.000  H
  H108     1.0000 0.19830  0.10960  0.37160  Biso   1.000  H
  H109     1.0000 0.14190  0.49240  0.89670  Biso   1.000  H
  H110     1.0000 0.85810  0.99240  0.60330  Biso   1.000  H
  H111     1.0000 0.85810  0.50760  0.10330  Biso   1.000  H
  H112     1.0000 0.14190  0.00760  0.39670  Biso   1.000  H
  C65      1.0000 0.80310  0.36240  0.75720  Biso   1.000  C
  C66      1.0000 0.19690  0.86240  0.74280  Biso   1.000  C
  C67      1.0000 0.19690  0.63760  0.24280  Biso   1.000  C
  C68      1.0000 0.80310  0.13760  0.25720  Biso   1.000  C
  H113     1.0000 0.79010  0.43400  0.76650  Biso   1.000  H
  H114     1.0000 0.20990  0.93400  0.73350  Biso   1.000  H
  H115     1.0000 0.20990  0.56600  0.23350  Biso   1.000  H
  H116     1.0000 0.79010  0.06600  0.26650  Biso   1.000  H
  H117     1.0000 0.87420  0.35600  0.73050  Biso   1.000  H
  H118     1.0000 0.12580  0.85600  0.76950  Biso   1.000  H
  H119     1.0000 0.12580  0.64400  0.26950  Biso   1.000  H
  H120     1.0000 0.87420  0.14400  0.23050  Biso   1.000  H
  C69      1.0000 0.69130  0.32000  0.70050  Biso   1.000  C
  C70      1.0000 0.30870  0.82000  0.79950  Biso   1.000  C
  C71      1.0000 0.30870  0.68000  0.29950  Biso   1.000  C
  C72      1.0000 0.69130  0.18000  0.20050  Biso   1.000  C
  H121     1.0000 0.62090  0.32800  0.72770  Biso   1.000  H
  H122     1.0000 0.37910  0.82800  0.77230  Biso   1.000  H
  H123     1.0000 0.37910  0.67200  0.27230  Biso   1.000  H
  H124     1.0000 0.62090  0.17200  0.22770  Biso   1.000  H
  H125     1.0000 0.70410  0.24780  0.69430  Biso   1.000  H
  H126     1.0000 0.29590  0.74780  0.80570  Biso   1.000  H
  H127     1.0000 0.29590  0.75220  0.30570  Biso   1.000  H
  H128     1.0000 0.70410  0.25220  0.19430  Biso   1.000  H
  C73      1.0000 0.65500  0.37100  0.60500  Biso   1.000  C
  C74      1.0000 0.34500  0.87100  0.89500  Biso   1.000  C
  C75      1.0000 0.34500  0.62900  0.39500  Biso   1.000  C
  C76      1.0000 0.65500  0.12900  0.10500  Biso   1.000  C
  H129     1.0000 0.58150  0.33930  0.57230  Biso   1.000  H
  H130     1.0000 0.41850  0.83930  0.92770  Biso   1.000  H
  H131     1.0000 0.41850  0.66070  0.42770  Biso   1.000  H
  H132     1.0000 0.58150  0.16070  0.07230  Biso   1.000  H
  H133     1.0000 0.63950  0.44260  0.60960  Biso   1.000  H
  H134     1.0000 0.36050  0.94260  0.89040  Biso   1.000  H
  H135     1.0000 0.36050  0.55740  0.39040  Biso   1.000  H
  H136     1.0000 0.63950  0.05740  0.10960  Biso   1.000  H
  H137     1.0000 0.72290  0.36220  0.57610  Biso   1.000  H
  H138     1.0000 0.27710  0.86220  0.92390  Biso   1.000  H
  H139     1.0000 0.27710  0.63780  0.42390  Biso   1.000  H
  H140     1.0000 0.72290  0.13780  0.07610  Biso   1.000  H
  C77      1.0000 0.74250  0.29730  0.89160  Biso   1.000  C
  C78      1.0000 0.25750  0.79730  0.60840  Biso   1.000  C
  C79      1.0000 0.25750  0.70270  0.10840  Biso   1.000  C
  C80      1.0000 0.74250  0.20270  0.39160  Biso   1.000  C
  H141     1.0000 0.78590  0.27340  0.94700  Biso   1.000  H
  H142     1.0000 0.21410  0.77340  0.55300  Biso   1.000  H
  H143     1.0000 0.21410  0.72660  0.05300  Biso   1.000  H
  H144     1.0000 0.78590  0.22660  0.44700  Biso   1.000  H
  H145     1.0000 0.68290  0.24540  0.86720  Biso   1.000  H
  H146     1.0000 0.31710  0.74540  0.63280  Biso   1.000  H
  H147     1.0000 0.31710  0.75460  0.13280  Biso   1.000  H
  H148     1.0000 0.68290  0.25460  0.36720  Biso   1.000  H
  C81      1.0000 0.67390  0.38980  0.90320  Biso   1.000  C
  C82      1.0000 0.32610  0.88980  0.59680  Biso   1.000  C
  C83      1.0000 0.32610  0.61020  0.09680  Biso   1.000  C
  C84      1.0000 0.67390  0.11020  0.40320  Biso   1.000  C
  H149     1.0000 0.61480  0.40530  0.85090  Biso   1.000  H
  H150     1.0000 0.38520  0.90530  0.64910  Biso   1.000  H
  H151     1.0000 0.38520  0.59470  0.14910  Biso   1.000  H
  H152     1.0000 0.61480  0.09470  0.35090  Biso   1.000  H
  H153     1.0000 0.73190  0.44610  0.91570  Biso   1.000  H
  H154     1.0000 0.26810  0.94610  0.58430  Biso   1.000  H
  H155     1.0000 0.26810  0.55390  0.08430  Biso   1.000  H
  H156     1.0000 0.73190  0.05390  0.41570  Biso   1.000  H
  C85      1.0000 0.59400  0.37700  0.98500  Biso   1.000  C
  C86      1.0000 0.40600  0.87700  0.51500  Biso   1.000  C
  C87      1.0000 0.40600  0.62300  0.01500  Biso   1.000  C
  C88      1.0000 0.59400  0.12300  0.48500  Biso   1.000  C
  H157     1.0000 0.55050  0.43840  0.99140  Biso   1.000  H
  H158     1.0000 0.44950  0.93840  0.50860  Biso   1.000  H
  H159     1.0000 0.44950  0.56160  0.00860  Biso   1.000  H
  H160     1.0000 0.55050  0.06160  0.49140  Biso   1.000  H
  H161     1.0000 0.53580  0.32180  0.97270  Biso   1.000  H
  H162     1.0000 0.46420  0.82180  0.52730  Biso   1.000  H
  H163     1.0000 0.46420  0.67820  0.02730  Biso   1.000  H
  H164     1.0000 0.53580  0.17820  0.47270  Biso   1.000  H
  H165     1.0000 0.65290  0.36260  0.03750  Biso   1.000  H
  H166     1.0000 0.34710  0.86260  0.46250  Biso   1.000  H
  H167     1.0000 0.34710  0.63740  0.96250  Biso   1.000  H
  H168     1.0000 0.65290  0.13740  0.53750  Biso   1.000  H
  C89      1.0000 0.89120  0.20070  0.82300  Biso   1.000  C
  C90      1.0000 0.10880  0.70070  0.67700  Biso   1.000  C
  C91      1.0000 0.10880  0.79930  0.17700  Biso   1.000  C
  C92      1.0000 0.89120  0.29930  0.32300  Biso   1.000  C
  H169     1.0000 0.82860  0.16200  0.78410  Biso   1.000  H
  H170     1.0000 0.17140  0.66200  0.71590  Biso   1.000  H
  H171     1.0000 0.17140  0.83800  0.21590  Biso   1.000  H
  H172     1.0000 0.82860  0.33800  0.28410  Biso   1.000  H
  H173     1.0000 0.95840  0.21450  0.79380  Biso   1.000  H
  H174     1.0000 0.04160  0.71450  0.70620  Biso   1.000  H
  H175     1.0000 0.04160  0.78550  0.20620  Biso   1.000  H
  H176     1.0000 0.95840  0.28550  0.29380  Biso   1.000  H
  C93      1.0000 0.94220  0.13430  0.89740  Biso   1.000  C
  C94      1.0000 0.05780  0.63430  0.60260  Biso   1.000  C
  C95      1.0000 0.05780  0.86570  0.10260  Biso   1.000  C
  C96      1.0000 0.94220  0.36570  0.39740  Biso   1.000  C
  H177     1.0000 0.02770  0.15440  0.92070  Biso   1.000  H
  H178     1.0000 0.97230  0.65440  0.57930  Biso   1.000  H
  H179     1.0000 0.97230  0.84560  0.07930  Biso   1.000  H
  H180     1.0000 0.02770  0.34560  0.42070  Biso   1.000  H
  H181     1.0000 0.89450  0.14600  0.94100  Biso   1.000  H
  H182     1.0000 0.10550  0.64600  0.55900  Biso   1.000  H
  H183     1.0000 0.10550  0.85400  0.05900  Biso   1.000  H
  H184     1.0000 0.89450  0.35400  0.44100  Biso   1.000  H
  C97      1.0000 0.94000  0.03100  0.87900  Biso   1.000  C
  C98      1.0000 0.06000  0.53100  0.62100  Biso   1.000  C
  C99      1.0000 0.06000  0.96900  0.12100  Biso   1.000  C
  C100     1.0000 0.94000  0.46900  0.37900  Biso   1.000  C
  H185     1.0000 0.97450  0.99370  0.93040  Biso   1.000  H
  H186     1.0000 0.02550  0.49370  0.56960  Biso   1.000  H
  H187     1.0000 0.02550  0.00630  0.06960  Biso   1.000  H
  H188     1.0000 0.97450  0.50630  0.43040  Biso   1.000  H
  H189     1.0000 0.85580  0.00920  0.85790  Biso   1.000  H
  H190     1.0000 0.14420  0.50920  0.64210  Biso   1.000  H
  H191     1.0000 0.14420  0.99080  0.14210  Biso   1.000  H
  H192     1.0000 0.85580  0.49080  0.35790  Biso   1.000  H
  H193     1.0000 0.98920  0.01760  0.83760  Biso   1.000  H
  H194     1.0000 0.01080  0.51760  0.66240  Biso   1.000  H
  H195     1.0000 0.01080  0.98240  0.16240  Biso   1.000  H
  H196     1.0000 0.98920  0.48240  0.33760  Biso   1.000  H
  C101     1.0000 0.95290  0.36810  0.89450  Biso   1.000  C
  C102     1.0000 0.04710  0.86810  0.60550  Biso   1.000  C
  C103     1.0000 0.04710  0.63190  0.10550  Biso   1.000  C
  C104     1.0000 0.95290  0.13190  0.39450  Biso   1.000  C
  H197     1.0000 0.92600  0.43580  0.90590  Biso   1.000  H
  H198     1.0000 0.07400  0.93580  0.59410  Biso   1.000  H
  H199     1.0000 0.07400  0.56420  0.09410  Biso   1.000  H
  H200     1.0000 0.92600  0.06420  0.40590  Biso   1.000  H
  H201     1.0000 0.97610  0.33400  0.94900  Biso   1.000  H
  H202     1.0000 0.02390  0.83400  0.55100  Biso   1.000  H
  H203     1.0000 0.02390  0.66600  0.05100  Biso   1.000  H
  H204     1.0000 0.97610  0.16600  0.44900  Biso   1.000  H
  C105     1.0000 0.07020  0.37990  0.86120  Biso   1.000  C
  C106     1.0000 0.92980  0.87990  0.63880  Biso   1.000  C
  C107     1.0000 0.92980  0.62010  0.13880  Biso   1.000  C
  C108     1.0000 0.07020  0.12010  0.36120  Biso   1.000  C
  H205     1.0000 0.10910  0.31360  0.86350  Biso   1.000  H
  H206     1.0000 0.89090  0.81360  0.63650  Biso   1.000  H
  H207     1.0000 0.89090  0.68640  0.13650  Biso   1.000  H
  H208     1.0000 0.10910  0.18640  0.36350  Biso   1.000  H
  H209     1.0000 0.04540  0.39810  0.80160  Biso   1.000  H
  H210     1.0000 0.95460  0.89810  0.69840  Biso   1.000  H
  H211     1.0000 0.95460  0.60190  0.19840  Biso   1.000  H
  H212     1.0000 0.04540  0.10190  0.30160  Biso   1.000  H
  C109     1.0000 0.15400  0.44200  0.89500  Biso   1.000  C
  C110     1.0000 0.84600  0.94200  0.60500  Biso   1.000  C
  C111     1.0000 0.84600  0.55800  0.10500  Biso   1.000  C
  C112     1.0000 0.15400  0.05800  0.39500  Biso   1.000  C
  H213     1.0000 0.22160  0.43980  0.86610  Biso   1.000  H
  H214     1.0000 0.77840  0.93980  0.63390  Biso   1.000  H
  H215     1.0000 0.77840  0.56020  0.13390  Biso   1.000  H
  H216     1.0000 0.22160  0.06020  0.36610  Biso   1.000  H
  H217     1.0000 0.11930  0.50930  0.89150  Biso   1.000  H
  H218     1.0000 0.88070  0.00930  0.60850  Biso   1.000  H
  H219     1.0000 0.88070  0.49070  0.10850  Biso   1.000  H
  H220     1.0000 0.11930  0.99070  0.39150  Biso   1.000  H
  H221     1.0000 0.18340  0.42430  0.95380  Biso   1.000  H
  H222     1.0000 0.81660  0.92430  0.54620  Biso   1.000  H
  H223     1.0000 0.81660  0.57570  0.04620  Biso   1.000  H
  H224     1.0000 0.18340  0.07570  0.45380  Biso   1.000  H
