data_image0
_cell_length_a       9.637
_cell_length_b       9.82
_cell_length_c       11.505
_cell_angle_alpha    73.4
_cell_angle_beta     65.41
_cell_angle_gamma    69.29

_symmetry_space_group_name_H-M    "P 1"
_symmetry_int_tables_number       1

loop_
  _symmetry_equiv_pos_as_xyz
  'x, y, z'

loop_
  _atom_site_label
  _atom_site_occupancy
  _atom_site_fract_x
  _atom_site_fract_y
  _atom_site_fract_z
  _atom_site_thermal_displace_type
  _atom_site_B_iso_or_equiv
  _atom_site_type_symbol
  Cu1      1.0000 0.00000  0.00000  0.00000  Biso   1.000  Cu
  S1       1.0000 0.31010  0.50360  0.01630  Biso   1.000  S
  S2       1.0000 0.68990  0.49640  0.98370  Biso   1.000  S
  F1       1.0000 0.52800  0.74400  0.26500  Biso   1.000  F
  F2       1.0000 0.47200  0.25600  0.73500  Biso   1.000  F
  F3       1.0000 0.48120  0.94230  0.14310  Biso   1.000  F
  F4       1.0000 0.51880  0.05770  0.85690  Biso   1.000  F
  F5       1.0000 0.51080  0.93740  0.31380  Biso   1.000  F
  F6       1.0000 0.48920  0.06260  0.68620  Biso   1.000  F
  N1       1.0000 0.99910  0.99050  0.19370  Biso   1.000  N
  N2       1.0000 0.00090  0.00950  0.80630  Biso   1.000  N
  O1       1.0000 0.08530  0.78240  0.01740  Biso   1.000  O
  O2       1.0000 0.91470  0.21760  0.98260  Biso   1.000  O
  O3       1.0000 0.76840  0.97770  0.08690  Biso   1.000  O
  O4       1.0000 0.23160  0.02230  0.91310  Biso   1.000  O
  C1       1.0000 0.33990  0.31920  0.07290  Biso   1.000  C
  C2       1.0000 0.66010  0.68080  0.92710  Biso   1.000  C
  C3       1.0000 0.20700  0.28200  0.14740  Biso   1.000  C
  C4       1.0000 0.79300  0.71800  0.85260  Biso   1.000  C
  C5       1.0000 0.06940  0.40220  0.16410  Biso   1.000  C
  C6       1.0000 0.93060  0.59780  0.83590  Biso   1.000  C
  C7       1.0000 0.10900  0.53470  0.09670  Biso   1.000  C
  C8       1.0000 0.89100  0.46530  0.90330  Biso   1.000  C
  C9       1.0000 0.01020  0.68680  0.08600  Biso   1.000  C
  C10      1.0000 0.98980  0.31320  0.91400  Biso   1.000  C
  C11      1.0000 0.84760  0.71580  0.14880  Biso   1.000  C
  C12      1.0000 0.15240  0.28420  0.85120  Biso   1.000  C
  C13      1.0000 0.74250  0.85570  0.14300  Biso   1.000  C
  C14      1.0000 0.25750  0.14430  0.85700  Biso   1.000  C
  C15      1.0000 0.56490  0.86720  0.21850  Biso   1.000  C
  C16      1.0000 0.43510  0.13280  0.78150  Biso   1.000  C
  C17      1.0000 0.10930  0.89450  0.24000  Biso   1.000  C
  C18      1.0000 0.89070  0.10550  0.76000  Biso   1.000  C
  C19      1.0000 0.11340  0.89360  0.35940  Biso   1.000  C
  C20      1.0000 0.88660  0.10640  0.64060  Biso   1.000  C
  C21      1.0000 0.99920  0.99780  0.43720  Biso   1.000  C
  C22      1.0000 0.00080  0.00220  0.56280  Biso   1.000  C
  C23      1.0000 0.88480  0.09760  0.38670  Biso   1.000  C
  C24      1.0000 0.11520  0.90240  0.61330  Biso   1.000  C
  C25      1.0000 0.88820  0.09060  0.26670  Biso   1.000  C
  C26      1.0000 0.11180  0.90940  0.73330  Biso   1.000  C
  H1       1.0000 0.44250  0.24940  0.05280  Biso   1.000  H
  H2       1.0000 0.55750  0.75060  0.94720  Biso   1.000  H
  H3       1.0000 0.96360  0.39440  0.21500  Biso   1.000  H
  H4       1.0000 0.03640  0.60560  0.78500  Biso   1.000  H
  H5       1.0000 0.80450  0.63420  0.19950  Biso   1.000  H
  H6       1.0000 0.19550  0.36580  0.80050  Biso   1.000  H
  H7       1.0000 0.19900  0.18700  0.17140  Biso   1.000  H
  H8       1.0000 0.80100  0.81300  0.82860  Biso   1.000  H
  H9       1.0000 0.22260  0.82160  0.16630  Biso   1.000  H
  H10      1.0000 0.77740  0.17840  0.83370  Biso   1.000  H
  H11      1.0000 0.20050  0.82370  0.39680  Biso   1.000  H
  H12      1.0000 0.79950  0.17630  0.60320  Biso   1.000  H
  H13      1.0000 0.78440  0.16320  0.44920  Biso   1.000  H
  H14      1.0000 0.21560  0.83680  0.55080  Biso   1.000  H
  H15      1.0000 0.77360  0.15470  0.22830  Biso   1.000  H
  H16      1.0000 0.22640  0.84530  0.77170  Biso   1.000  H
  N3       1.0000 0.68610  0.62500  0.55190  Biso   1.000  N
  N4       1.0000 0.31390  0.37500  0.44810  Biso   1.000  N
  O5       1.0000 0.74310  0.43080  0.45900  Biso   1.000  O
  O6       1.0000 0.25690  0.56920  0.54100  Biso   1.000  O
  C27      1.0000 0.70030  0.52730  0.49500  Biso   1.000  C
  C28      1.0000 0.29970  0.47270  0.50500  Biso   1.000  C
  C29      1.0000 0.78860  0.71170  0.52290  Biso   1.000  C
  C30      1.0000 0.21140  0.28830  0.47710  Biso   1.000  C
  C31      1.0000 0.53540  0.65900  0.65360  Biso   1.000  C
  C32      1.0000 0.46460  0.34100  0.34640  Biso   1.000  C
