data_image0
_cell_length_a       7.989
_cell_length_b       18.546
_cell_length_c       18.189
_cell_angle_alpha    90
_cell_angle_beta     101.212
_cell_angle_gamma    90

_symmetry_space_group_name_H-M    "P 1"
_symmetry_int_tables_number       1

loop_
  _symmetry_equiv_pos_as_xyz
  'x, y, z'

loop_
  _atom_site_label
  _atom_site_occupancy
  _atom_site_fract_x
  _atom_site_fract_y
  _atom_site_fract_z
  _atom_site_thermal_displace_type
  _atom_site_B_iso_or_equiv
  _atom_site_type_symbol
  Cu1      1.0000 0.50000  0.16272  0.25000  Biso   1.000  Cu
  Cu2      1.0000 0.00000  0.66272  0.25000  Biso   1.000  Cu
  Cu3      1.0000 0.50000  0.83728  0.75000  Biso   1.000  Cu
  Cu4      1.0000 0.00000  0.33728  0.75000  Biso   1.000  Cu
  Cu5      1.0000 0.00000  0.96080  0.25000  Biso   1.000  Cu
  Cu6      1.0000 0.50000  0.46080  0.25000  Biso   1.000  Cu
  Cu7      1.0000 0.00000  0.03920  0.75000  Biso   1.000  Cu
  Cu8      1.0000 0.50000  0.53920  0.75000  Biso   1.000  Cu
  C1       1.0000 0.32320  0.13852  0.09638  Biso   1.000  C
  C2       1.0000 0.67680  0.13852  0.40362  Biso   1.000  C
  C3       1.0000 0.82320  0.63852  0.09638  Biso   1.000  C
  C4       1.0000 0.17680  0.63852  0.40362  Biso   1.000  C
  C5       1.0000 0.67680  0.86148  0.90362  Biso   1.000  C
  C6       1.0000 0.32320  0.86148  0.59638  Biso   1.000  C
  C7       1.0000 0.17680  0.36148  0.90362  Biso   1.000  C
  C8       1.0000 0.82320  0.36148  0.59638  Biso   1.000  C
  C9       1.0000 0.14700  0.12947  0.04730  Biso   1.000  C
  C10      1.0000 0.85300  0.12947  0.45270  Biso   1.000  C
  C11      1.0000 0.64700  0.62947  0.04730  Biso   1.000  C
  C12      1.0000 0.35300  0.62947  0.45270  Biso   1.000  C
  C13      1.0000 0.85300  0.87053  0.95270  Biso   1.000  C
  C14      1.0000 0.14700  0.87053  0.54730  Biso   1.000  C
  C15      1.0000 0.35300  0.37053  0.95270  Biso   1.000  C
  C16      1.0000 0.64700  0.37053  0.54730  Biso   1.000  C
  C17      1.0000 0.01940  0.08929  0.07073  Biso   1.000  C
  C18      1.0000 0.98060  0.08929  0.42927  Biso   1.000  C
  C19      1.0000 0.51940  0.58929  0.07073  Biso   1.000  C
  C20      1.0000 0.48060  0.58929  0.42927  Biso   1.000  C
  C21      1.0000 0.98060  0.91071  0.92927  Biso   1.000  C
  C22      1.0000 0.01940  0.91071  0.57073  Biso   1.000  C
  C23      1.0000 0.48060  0.41071  0.92927  Biso   1.000  C
  C24      1.0000 0.51940  0.41071  0.57073  Biso   1.000  C
  C25      1.0000 0.05370  0.04276  0.14023  Biso   1.000  C
  C26      1.0000 0.94630  0.04276  0.35977  Biso   1.000  C
  C27      1.0000 0.55370  0.54276  0.14023  Biso   1.000  C
  C28      1.0000 0.44630  0.54276  0.35977  Biso   1.000  C
  C29      1.0000 0.94630  0.95724  0.85977  Biso   1.000  C
  C30      1.0000 0.05370  0.95724  0.64023  Biso   1.000  C
  C31      1.0000 0.44630  0.45724  0.85977  Biso   1.000  C
  C32      1.0000 0.55370  0.45724  0.64023  Biso   1.000  C
  C33      1.0000 0.85450  0.08872  0.02751  Biso   1.000  C
  C34      1.0000 0.14550  0.08872  0.47249  Biso   1.000  C
  C35      1.0000 0.35450  0.58872  0.02751  Biso   1.000  C
  C36      1.0000 0.64550  0.58872  0.47249  Biso   1.000  C
  C37      1.0000 0.14550  0.91128  0.97249  Biso   1.000  C
  C38      1.0000 0.85450  0.91128  0.52751  Biso   1.000  C
  C39      1.0000 0.64550  0.41128  0.97249  Biso   1.000  C
  C40      1.0000 0.35450  0.41128  0.52751  Biso   1.000  C
  H1       1.0000 0.76850  0.06310  0.04380  Biso   1.000  H
  H2       1.0000 0.23150  0.06310  0.45620  Biso   1.000  H
  H3       1.0000 0.26850  0.56310  0.04380  Biso   1.000  H
  H4       1.0000 0.73150  0.56310  0.45620  Biso   1.000  H
  H5       1.0000 0.23150  0.93690  0.95620  Biso   1.000  H
  H6       1.0000 0.76850  0.93690  0.54380  Biso   1.000  H
  H7       1.0000 0.73150  0.43690  0.95620  Biso   1.000  H
  H8       1.0000 0.26850  0.43690  0.54380  Biso   1.000  H
  C41      1.0000 0.81880  0.12625  0.96050  Biso   1.000  C
  C42      1.0000 0.18120  0.12625  0.53950  Biso   1.000  C
  C43      1.0000 0.31880  0.62625  0.96050  Biso   1.000  C
  C44      1.0000 0.68120  0.62625  0.53950  Biso   1.000  C
  C45      1.0000 0.18120  0.87375  0.03950  Biso   1.000  C
  C46      1.0000 0.81880  0.87375  0.46050  Biso   1.000  C
  C47      1.0000 0.68120  0.37375  0.03950  Biso   1.000  C
  C48      1.0000 0.31880  0.37375  0.46050  Biso   1.000  C
  C49      1.0000 0.94490  0.16472  0.93531  Biso   1.000  C
  C50      1.0000 0.05510  0.16472  0.56469  Biso   1.000  C
  C51      1.0000 0.44490  0.66472  0.93531  Biso   1.000  C
  C52      1.0000 0.55510  0.66472  0.56469  Biso   1.000  C
  C53      1.0000 0.05510  0.83528  0.06469  Biso   1.000  C
  C54      1.0000 0.94490  0.83528  0.43531  Biso   1.000  C
  C55      1.0000 0.55510  0.33528  0.06469  Biso   1.000  C
  C56      1.0000 0.44490  0.33528  0.43531  Biso   1.000  C
  H9       1.0000 0.92110  0.18900  0.88970  Biso   1.000  H
  H10      1.0000 0.07890  0.18900  0.61030  Biso   1.000  H
  H11      1.0000 0.42110  0.68900  0.88970  Biso   1.000  H
  H12      1.0000 0.57890  0.68900  0.61030  Biso   1.000  H
  H13      1.0000 0.07890  0.81100  0.11030  Biso   1.000  H
  H14      1.0000 0.92110  0.81100  0.38970  Biso   1.000  H
  H15      1.0000 0.57890  0.31100  0.11030  Biso   1.000  H
  H16      1.0000 0.42110  0.31100  0.38970  Biso   1.000  H
  C57      1.0000 0.10870  0.16639  0.97951  Biso   1.000  C
  C58      1.0000 0.89130  0.16639  0.52049  Biso   1.000  C
  C59      1.0000 0.60870  0.66639  0.97951  Biso   1.000  C
  C60      1.0000 0.39130  0.66639  0.52049  Biso   1.000  C
  C61      1.0000 0.89130  0.83361  0.02049  Biso   1.000  C
  C62      1.0000 0.10870  0.83361  0.47951  Biso   1.000  C
  C63      1.0000 0.39130  0.33361  0.02049  Biso   1.000  C
  C64      1.0000 0.60870  0.33361  0.47951  Biso   1.000  C
  H17      1.0000 0.19380  0.19270  0.96330  Biso   1.000  H
  H18      1.0000 0.80620  0.19270  0.53670  Biso   1.000  H
  H19      1.0000 0.69380  0.69270  0.96330  Biso   1.000  H
  H20      1.0000 0.30620  0.69270  0.53670  Biso   1.000  H
  H21      1.0000 0.80620  0.80730  0.03670  Biso   1.000  H
  H22      1.0000 0.19380  0.80730  0.46330  Biso   1.000  H
  H23      1.0000 0.30620  0.30730  0.03670  Biso   1.000  H
  H24      1.0000 0.69380  0.30730  0.46330  Biso   1.000  H
  C65      1.0000 0.57400  0.18336  0.88096  Biso   1.000  C
  C66      1.0000 0.42600  0.18336  0.61904  Biso   1.000  C
  C67      1.0000 0.07400  0.68336  0.88096  Biso   1.000  C
  C68      1.0000 0.92600  0.68336  0.61904  Biso   1.000  C
  C69      1.0000 0.42600  0.81664  0.11904  Biso   1.000  C
  C70      1.0000 0.57400  0.81664  0.38096  Biso   1.000  C
  C71      1.0000 0.92600  0.31664  0.11904  Biso   1.000  C
  C72      1.0000 0.07400  0.31664  0.38096  Biso   1.000  C
  H25      1.0000 0.63450  0.22650  0.88570  Biso   1.000  H
  H26      1.0000 0.36550  0.22650  0.61430  Biso   1.000  H
  H27      1.0000 0.13450  0.72650  0.88570  Biso   1.000  H
  H28      1.0000 0.86550  0.72650  0.61430  Biso   1.000  H
  H29      1.0000 0.36550  0.77350  0.11430  Biso   1.000  H
  H30      1.0000 0.63450  0.77350  0.38570  Biso   1.000  H
  H31      1.0000 0.86550  0.27350  0.11430  Biso   1.000  H
  H32      1.0000 0.13450  0.27350  0.38570  Biso   1.000  H
  C73      1.0000 0.41340  0.18161  0.83820  Biso   1.000  C
  C74      1.0000 0.58660  0.18161  0.66180  Biso   1.000  C
  C75      1.0000 0.91340  0.68161  0.83820  Biso   1.000  C
  C76      1.0000 0.08660  0.68161  0.66180  Biso   1.000  C
  C77      1.0000 0.58660  0.81839  0.16180  Biso   1.000  C
  C78      1.0000 0.41340  0.81839  0.33820  Biso   1.000  C
  C79      1.0000 0.08660  0.31839  0.16180  Biso   1.000  C
  C80      1.0000 0.91340  0.31839  0.33820  Biso   1.000  C
  H33      1.0000 0.36710  0.22310  0.81360  Biso   1.000  H
  H34      1.0000 0.63290  0.22310  0.68640  Biso   1.000  H
  H35      1.0000 0.86710  0.72310  0.81360  Biso   1.000  H
  H36      1.0000 0.13290  0.72310  0.68640  Biso   1.000  H
  H37      1.0000 0.63290  0.77690  0.18640  Biso   1.000  H
  H38      1.0000 0.36710  0.77690  0.31360  Biso   1.000  H
  H39      1.0000 0.13290  0.27690  0.18640  Biso   1.000  H
  H40      1.0000 0.86710  0.27690  0.31360  Biso   1.000  H
  C81      1.0000 0.31600  0.11644  0.83107  Biso   1.000  C
  C82      1.0000 0.68400  0.11644  0.66893  Biso   1.000  C
  C83      1.0000 0.81600  0.61644  0.83107  Biso   1.000  C
  C84      1.0000 0.18400  0.61644  0.66893  Biso   1.000  C
  C85      1.0000 0.68400  0.88356  0.16893  Biso   1.000  C
  C86      1.0000 0.31600  0.88356  0.33107  Biso   1.000  C
  C87      1.0000 0.18400  0.38356  0.16893  Biso   1.000  C
  C88      1.0000 0.81600  0.38356  0.33107  Biso   1.000  C
  C89      1.0000 0.39650  0.05613  0.86978  Biso   1.000  C
  C90      1.0000 0.60350  0.05613  0.63022  Biso   1.000  C
  C91      1.0000 0.89650  0.55613  0.86978  Biso   1.000  C
  C92      1.0000 0.10350  0.55613  0.63022  Biso   1.000  C
  C93      1.0000 0.60350  0.94387  0.13022  Biso   1.000  C
  C94      1.0000 0.39650  0.94387  0.36978  Biso   1.000  C
  C95      1.0000 0.10350  0.44387  0.13022  Biso   1.000  C
  C96      1.0000 0.89650  0.44387  0.36978  Biso   1.000  C
  H41      1.0000 0.33880  0.01240  0.86710  Biso   1.000  H
  H42      1.0000 0.66120  0.01240  0.63290  Biso   1.000  H
  H43      1.0000 0.83880  0.51240  0.86710  Biso   1.000  H
  H44      1.0000 0.16120  0.51240  0.63290  Biso   1.000  H
  H45      1.0000 0.66120  0.98760  0.13290  Biso   1.000  H
  H46      1.0000 0.33880  0.98760  0.36710  Biso   1.000  H
  H47      1.0000 0.16120  0.48760  0.13290  Biso   1.000  H
  H48      1.0000 0.83880  0.48760  0.36710  Biso   1.000  H
  C97      1.0000 0.55770  0.06116  0.91104  Biso   1.000  C
  C98      1.0000 0.44230  0.06116  0.58896  Biso   1.000  C
  C99      1.0000 0.05770  0.56116  0.91104  Biso   1.000  C
  C100     1.0000 0.94230  0.56116  0.58896  Biso   1.000  C
  C101     1.0000 0.44230  0.93884  0.08896  Biso   1.000  C
  C102     1.0000 0.55770  0.93884  0.41104  Biso   1.000  C
  C103     1.0000 0.94230  0.43884  0.08896  Biso   1.000  C
  C104     1.0000 0.05770  0.43884  0.41104  Biso   1.000  C
  H49      1.0000 0.60770  0.02050  0.93610  Biso   1.000  H
  H50      1.0000 0.39230  0.02050  0.56390  Biso   1.000  H
  H51      1.0000 0.10770  0.52050  0.93610  Biso   1.000  H
  H52      1.0000 0.89230  0.52050  0.56390  Biso   1.000  H
  H53      1.0000 0.39230  0.97950  0.06390  Biso   1.000  H
  H54      1.0000 0.60770  0.97950  0.43610  Biso   1.000  H
  H55      1.0000 0.89230  0.47950  0.06390  Biso   1.000  H
  H56      1.0000 0.10770  0.47950  0.43610  Biso   1.000  H
  N1       1.0000 0.64740  0.12374  0.91662  Biso   1.000  N
  N2       1.0000 0.35260  0.12374  0.58338  Biso   1.000  N
  N3       1.0000 0.14740  0.62374  0.91662  Biso   1.000  N
  N4       1.0000 0.85260  0.62374  0.58338  Biso   1.000  N
  N5       1.0000 0.35260  0.87626  0.08338  Biso   1.000  N
  N6       1.0000 0.64740  0.87626  0.41662  Biso   1.000  N
  N7       1.0000 0.85260  0.37626  0.08338  Biso   1.000  N
  N8       1.0000 0.14740  0.37626  0.41662  Biso   1.000  N
  O1       1.0000 0.45110  0.12414  0.07007  Biso   1.000  O
  O2       1.0000 0.54890  0.12414  0.42993  Biso   1.000  O
  O3       1.0000 0.95110  0.62414  0.07007  Biso   1.000  O
  O4       1.0000 0.04890  0.62414  0.42993  Biso   1.000  O
  O5       1.0000 0.54890  0.87586  0.92993  Biso   1.000  O
  O6       1.0000 0.45110  0.87586  0.57007  Biso   1.000  O
  O7       1.0000 0.04890  0.37586  0.92993  Biso   1.000  O
  O8       1.0000 0.95110  0.37586  0.57007  Biso   1.000  O
  O9       1.0000 0.31870  0.16291  0.16154  Biso   1.000  O
  O10      1.0000 0.68130  0.16291  0.33846  Biso   1.000  O
  O11      1.0000 0.81870  0.66291  0.16154  Biso   1.000  O
  O12      1.0000 0.18130  0.66291  0.33846  Biso   1.000  O
  O13      1.0000 0.68130  0.83709  0.83846  Biso   1.000  O
  O14      1.0000 0.31870  0.83709  0.66154  Biso   1.000  O
  O15      1.0000 0.18130  0.33709  0.83846  Biso   1.000  O
  O16      1.0000 0.81870  0.33709  0.66154  Biso   1.000  O
  O17      1.0000 0.19230  0.01202  0.16012  Biso   1.000  O
  O18      1.0000 0.80770  0.01202  0.33988  Biso   1.000  O
  O19      1.0000 0.69230  0.51202  0.16012  Biso   1.000  O
  O20      1.0000 0.30770  0.51202  0.33988  Biso   1.000  O
  O21      1.0000 0.80770  0.98798  0.83988  Biso   1.000  O
  O22      1.0000 0.19230  0.98798  0.66012  Biso   1.000  O
  O23      1.0000 0.30770  0.48798  0.83988  Biso   1.000  O
  O24      1.0000 0.69230  0.48798  0.66012  Biso   1.000  O
  O25      1.0000 0.92670  0.03436  0.17345  Biso   1.000  O
  O26      1.0000 0.07330  0.03436  0.32655  Biso   1.000  O
  O27      1.0000 0.42670  0.53436  0.17345  Biso   1.000  O
  O28      1.0000 0.57330  0.53436  0.32655  Biso   1.000  O
  O29      1.0000 0.07330  0.96564  0.82655  Biso   1.000  O
  O30      1.0000 0.92670  0.96564  0.67345  Biso   1.000  O
  O31      1.0000 0.57330  0.46564  0.82655  Biso   1.000  O
  O32      1.0000 0.42670  0.46564  0.67345  Biso   1.000  O
  O33      1.0000 0.16260  0.11609  0.79168  Biso   1.000  O
  O34      1.0000 0.83740  0.11609  0.70832  Biso   1.000  O
  O35      1.0000 0.66260  0.61609  0.79168  Biso   1.000  O
  O36      1.0000 0.33740  0.61609  0.70832  Biso   1.000  O
  O37      1.0000 0.83740  0.88391  0.20832  Biso   1.000  O
  O38      1.0000 0.16260  0.88391  0.29168  Biso   1.000  O
  O39      1.0000 0.33740  0.38391  0.20832  Biso   1.000  O
  O40      1.0000 0.66260  0.38391  0.29168  Biso   1.000  O
  O41      1.0000 0.50000  0.05709  0.25000  Biso   1.000  O
  O42      1.0000 0.00000  0.55709  0.25000  Biso   1.000  O
  O43      1.0000 0.50000  0.94291  0.75000  Biso   1.000  O
  O44      1.0000 0.00000  0.44291  0.75000  Biso   1.000  O
  O45      1.0000 0.72740  0.17008  0.17448  Biso   1.000  O
  O46      1.0000 0.27260  0.17008  0.32552  Biso   1.000  O
  O47      1.0000 0.22740  0.67008  0.17448  Biso   1.000  O
  O48      1.0000 0.77260  0.67008  0.32552  Biso   1.000  O
  O49      1.0000 0.27260  0.82992  0.82552  Biso   1.000  O
  O50      1.0000 0.72740  0.82992  0.67448  Biso   1.000  O
  O51      1.0000 0.77260  0.32992  0.82552  Biso   1.000  O
  O52      1.0000 0.22740  0.32992  0.67448  Biso   1.000  O
  O53      1.0000 0.50000  0.26579  0.25000  Biso   1.000  O
  O54      1.0000 0.00000  0.76579  0.25000  Biso   1.000  O
  O55      1.0000 0.50000  0.73421  0.75000  Biso   1.000  O
  O56      1.0000 0.00000  0.23421  0.75000  Biso   1.000  O
  H57      1.0000 0.42400  0.29500  0.23800  Biso   1.000  H
  H58      1.0000 0.57600  0.29500  0.26200  Biso   1.000  H
  H59      1.0000 0.92400  0.79500  0.23800  Biso   1.000  H
  H60      1.0000 0.07600  0.79500  0.26200  Biso   1.000  H
  H61      1.0000 0.57600  0.70500  0.76200  Biso   1.000  H
  H62      1.0000 0.42400  0.70500  0.73800  Biso   1.000  H
  H63      1.0000 0.07600  0.20500  0.76200  Biso   1.000  H
  H64      1.0000 0.92400  0.20500  0.73800  Biso   1.000  H
  H65      1.0000 0.41500  0.03400  0.22800  Biso   1.000  H
  H66      1.0000 0.58500  0.03400  0.27200  Biso   1.000  H
  H67      1.0000 0.91500  0.53400  0.22800  Biso   1.000  H
  H68      1.0000 0.08500  0.53400  0.27200  Biso   1.000  H
  H69      1.0000 0.58500  0.96600  0.77200  Biso   1.000  H
  H70      1.0000 0.41500  0.96600  0.72800  Biso   1.000  H
  H71      1.0000 0.08500  0.46600  0.77200  Biso   1.000  H
  H72      1.0000 0.91500  0.46600  0.72800  Biso   1.000  H
  H73      1.0000 0.80200  0.13800  0.18300  Biso   1.000  H
  H74      1.0000 0.19800  0.13800  0.31700  Biso   1.000  H
  H75      1.0000 0.30200  0.63800  0.18300  Biso   1.000  H
  H76      1.0000 0.69800  0.63800  0.31700  Biso   1.000  H
  H77      1.0000 0.19800  0.86200  0.81700  Biso   1.000  H
  H78      1.0000 0.80200  0.86200  0.68300  Biso   1.000  H
  H79      1.0000 0.69800  0.36200  0.81700  Biso   1.000  H
  H80      1.0000 0.30200  0.36200  0.68300  Biso   1.000  H
  H81      1.0000 0.66300  0.15700  0.13340  Biso   1.000  H
  H82      1.0000 0.33700  0.15700  0.36660  Biso   1.000  H
  H83      1.0000 0.16300  0.65700  0.13340  Biso   1.000  H
  H84      1.0000 0.83700  0.65700  0.36660  Biso   1.000  H
  H85      1.0000 0.33700  0.84300  0.86660  Biso   1.000  H
  H86      1.0000 0.66300  0.84300  0.63340  Biso   1.000  H
  H87      1.0000 0.83700  0.34300  0.86660  Biso   1.000  H
  H88      1.0000 0.16300  0.34300  0.63340  Biso   1.000  H
