data_image0
_cell_length_a       7.9755
_cell_length_b       18.5105
_cell_length_c       18.1522
_cell_angle_alpha    90
_cell_angle_beta     101.132
_cell_angle_gamma    90

_symmetry_space_group_name_H-M    "P 1"
_symmetry_int_tables_number       1

loop_
  _symmetry_equiv_pos_as_xyz
  'x, y, z'

loop_
  _atom_site_label
  _atom_site_occupancy
  _atom_site_fract_x
  _atom_site_fract_y
  _atom_site_fract_z
  _atom_site_thermal_displace_type
  _atom_site_B_iso_or_equiv
  _atom_site_type_symbol
  Cu1      1.0000 0.00000  0.53945  0.25000  Biso   1.000  Cu
  Cu2      1.0000 0.50000  0.03945  0.25000  Biso   1.000  Cu
  Cu3      1.0000 0.00000  0.46055  0.75000  Biso   1.000  Cu
  Cu4      1.0000 0.50000  0.96055  0.75000  Biso   1.000  Cu
  Cu5      1.0000 0.50000  0.33757  0.25000  Biso   1.000  Cu
  Cu6      1.0000 0.00000  0.83757  0.25000  Biso   1.000  Cu
  Cu7      1.0000 0.50000  0.66243  0.75000  Biso   1.000  Cu
  Cu8      1.0000 0.00000  0.16243  0.75000  Biso   1.000  Cu
  O1       1.0000 0.92660  0.46619  0.17344  Biso   1.000  O
  O2       1.0000 0.07340  0.46619  0.32656  Biso   1.000  O
  O3       1.0000 0.42660  0.96619  0.17344  Biso   1.000  O
  O4       1.0000 0.57340  0.96619  0.32656  Biso   1.000  O
  O5       1.0000 0.07340  0.53381  0.82656  Biso   1.000  O
  O6       1.0000 0.92660  0.53381  0.67344  Biso   1.000  O
  O7       1.0000 0.57340  0.03381  0.82656  Biso   1.000  O
  O8       1.0000 0.42660  0.03381  0.67344  Biso   1.000  O
  O9       1.0000 0.19160  0.48800  0.16030  Biso   1.000  O
  O10      1.0000 0.80840  0.48800  0.33970  Biso   1.000  O
  O11      1.0000 0.69160  0.98800  0.16030  Biso   1.000  O
  O12      1.0000 0.30840  0.98800  0.33970  Biso   1.000  O
  O13      1.0000 0.80840  0.51200  0.83970  Biso   1.000  O
  O14      1.0000 0.19160  0.51200  0.66030  Biso   1.000  O
  O15      1.0000 0.30840  0.01200  0.83970  Biso   1.000  O
  O16      1.0000 0.69160  0.01200  0.66030  Biso   1.000  O
  O17      1.0000 0.31830  0.33727  0.16144  Biso   1.000  O
  O18      1.0000 0.68170  0.33727  0.33856  Biso   1.000  O
  O19      1.0000 0.81830  0.83727  0.16144  Biso   1.000  O
  O20      1.0000 0.18170  0.83727  0.33856  Biso   1.000  O
  O21      1.0000 0.68170  0.66273  0.83856  Biso   1.000  O
  O22      1.0000 0.31830  0.66273  0.66144  Biso   1.000  O
  O23      1.0000 0.18170  0.16273  0.83856  Biso   1.000  O
  O24      1.0000 0.81830  0.16273  0.66144  Biso   1.000  O
  O25      1.0000 0.45060  0.37614  0.07002  Biso   1.000  O
  O26      1.0000 0.54940  0.37614  0.42998  Biso   1.000  O
  O27      1.0000 0.95060  0.87614  0.07002  Biso   1.000  O
  O28      1.0000 0.04940  0.87614  0.42998  Biso   1.000  O
  O29      1.0000 0.54940  0.62386  0.92998  Biso   1.000  O
  O30      1.0000 0.45060  0.62386  0.57002  Biso   1.000  O
  O31      1.0000 0.04940  0.12386  0.92998  Biso   1.000  O
  O32      1.0000 0.95060  0.12386  0.57002  Biso   1.000  O
  O33      1.0000 0.16300  0.38408  0.79161  Biso   1.000  O
  O34      1.0000 0.83700  0.38408  0.70839  Biso   1.000  O
  O35      1.0000 0.66300  0.88408  0.79161  Biso   1.000  O
  O36      1.0000 0.33700  0.88408  0.70839  Biso   1.000  O
  O37      1.0000 0.83700  0.61592  0.20839  Biso   1.000  O
  O38      1.0000 0.16300  0.61592  0.29161  Biso   1.000  O
  O39      1.0000 0.33700  0.11592  0.20839  Biso   1.000  O
  O40      1.0000 0.66300  0.11592  0.29161  Biso   1.000  O
  O41      1.0000 0.50000  0.23390  0.25000  Biso   1.000  O
  O42      1.0000 0.00000  0.73390  0.25000  Biso   1.000  O
  O43      1.0000 0.50000  0.76610  0.75000  Biso   1.000  O
  O44      1.0000 0.00000  0.26610  0.75000  Biso   1.000  O
  H1       1.0000 0.57910  0.20670  0.27310  Biso   1.000  H
  H2       1.0000 0.42090  0.20670  0.22690  Biso   1.000  H
  H3       1.0000 0.07910  0.70670  0.27310  Biso   1.000  H
  H4       1.0000 0.92090  0.70670  0.22690  Biso   1.000  H
  H5       1.0000 0.42090  0.79330  0.72690  Biso   1.000  H
  H6       1.0000 0.57910  0.79330  0.77310  Biso   1.000  H
  H7       1.0000 0.92090  0.29330  0.72690  Biso   1.000  H
  H8       1.0000 0.07910  0.29330  0.77310  Biso   1.000  H
  O45      1.0000 0.50000  0.44332  0.25000  Biso   1.000  O
  O46      1.0000 0.00000  0.94332  0.25000  Biso   1.000  O
  O47      1.0000 0.50000  0.55668  0.75000  Biso   1.000  O
  O48      1.0000 0.00000  0.05668  0.75000  Biso   1.000  O
  H9       1.0000 0.42190  0.46890  0.22430  Biso   1.000  H
  H10      1.0000 0.57810  0.46890  0.27570  Biso   1.000  H
  H11      1.0000 0.92190  0.96890  0.22430  Biso   1.000  H
  H12      1.0000 0.07810  0.96890  0.27570  Biso   1.000  H
  H13      1.0000 0.57810  0.53110  0.77570  Biso   1.000  H
  H14      1.0000 0.42190  0.53110  0.72430  Biso   1.000  H
  H15      1.0000 0.07810  0.03110  0.77570  Biso   1.000  H
  H16      1.0000 0.92190  0.03110  0.72430  Biso   1.000  H
  O49      1.0000 0.72690  0.33005  0.17418  Biso   1.000  O
  O50      1.0000 0.27310  0.33005  0.32582  Biso   1.000  O
  O51      1.0000 0.22690  0.83005  0.17418  Biso   1.000  O
  O52      1.0000 0.77310  0.83005  0.32582  Biso   1.000  O
  O53      1.0000 0.27310  0.66995  0.82582  Biso   1.000  O
  O54      1.0000 0.72690  0.66995  0.67418  Biso   1.000  O
  O55      1.0000 0.77310  0.16995  0.82582  Biso   1.000  O
  O56      1.0000 0.22690  0.16995  0.67418  Biso   1.000  O
  H17      1.0000 0.63960  0.34520  0.14120  Biso   1.000  H
  H18      1.0000 0.36040  0.34520  0.35880  Biso   1.000  H
  H19      1.0000 0.13960  0.84520  0.14120  Biso   1.000  H
  H20      1.0000 0.86040  0.84520  0.35880  Biso   1.000  H
  H21      1.0000 0.36040  0.65480  0.85880  Biso   1.000  H
  H22      1.0000 0.63960  0.65480  0.64120  Biso   1.000  H
  H23      1.0000 0.86040  0.15480  0.85880  Biso   1.000  H
  H24      1.0000 0.13960  0.15480  0.64120  Biso   1.000  H
  H25      1.0000 0.77240  0.36770  0.19640  Biso   1.000  H
  H26      1.0000 0.22760  0.36770  0.30360  Biso   1.000  H
  H27      1.0000 0.27240  0.86770  0.19640  Biso   1.000  H
  H28      1.0000 0.72760  0.86770  0.30360  Biso   1.000  H
  H29      1.0000 0.22760  0.63230  0.80360  Biso   1.000  H
  H30      1.0000 0.77240  0.63230  0.69640  Biso   1.000  H
  H31      1.0000 0.72760  0.13230  0.80360  Biso   1.000  H
  H32      1.0000 0.27240  0.13230  0.69640  Biso   1.000  H
  N1       1.0000 0.64730  0.37596  0.91675  Biso   1.000  N
  N2       1.0000 0.35270  0.37596  0.58325  Biso   1.000  N
  N3       1.0000 0.14730  0.87596  0.91675  Biso   1.000  N
  N4       1.0000 0.85270  0.87596  0.58325  Biso   1.000  N
  N5       1.0000 0.35270  0.62404  0.08325  Biso   1.000  N
  N6       1.0000 0.64730  0.62404  0.41675  Biso   1.000  N
  N7       1.0000 0.85270  0.12404  0.08325  Biso   1.000  N
  N8       1.0000 0.14730  0.12404  0.41675  Biso   1.000  N
  C1       1.0000 0.05330  0.45753  0.14015  Biso   1.000  C
  C2       1.0000 0.94670  0.45753  0.35985  Biso   1.000  C
  C3       1.0000 0.55330  0.95753  0.14015  Biso   1.000  C
  C4       1.0000 0.44670  0.95753  0.35985  Biso   1.000  C
  C5       1.0000 0.94670  0.54247  0.85985  Biso   1.000  C
  C6       1.0000 0.05330  0.54247  0.64015  Biso   1.000  C
  C7       1.0000 0.44670  0.04247  0.85985  Biso   1.000  C
  C8       1.0000 0.55330  0.04247  0.64015  Biso   1.000  C
  C9       1.0000 0.32240  0.36164  0.09608  Biso   1.000  C
  C10      1.0000 0.67760  0.36164  0.40392  Biso   1.000  C
  C11      1.0000 0.82240  0.86164  0.09608  Biso   1.000  C
  C12      1.0000 0.17760  0.86164  0.40392  Biso   1.000  C
  C13      1.0000 0.67760  0.63836  0.90392  Biso   1.000  C
  C14      1.0000 0.32240  0.63836  0.59608  Biso   1.000  C
  C15      1.0000 0.17760  0.13836  0.90392  Biso   1.000  C
  C16      1.0000 0.82240  0.13836  0.59608  Biso   1.000  C
  C17      1.0000 0.01850  0.41061  0.07081  Biso   1.000  C
  C18      1.0000 0.98150  0.41061  0.42919  Biso   1.000  C
  C19      1.0000 0.51850  0.91061  0.07081  Biso   1.000  C
  C20      1.0000 0.48150  0.91061  0.42919  Biso   1.000  C
  C21      1.0000 0.98150  0.58939  0.92919  Biso   1.000  C
  C22      1.0000 0.01850  0.58939  0.57081  Biso   1.000  C
  C23      1.0000 0.48150  0.08939  0.92919  Biso   1.000  C
  C24      1.0000 0.51850  0.08939  0.57081  Biso   1.000  C
  C25      1.0000 0.14710  0.37049  0.04724  Biso   1.000  C
  C26      1.0000 0.85290  0.37049  0.45276  Biso   1.000  C
  C27      1.0000 0.64710  0.87049  0.04724  Biso   1.000  C
  C28      1.0000 0.35290  0.87049  0.45276  Biso   1.000  C
  C29      1.0000 0.85290  0.62951  0.95276  Biso   1.000  C
  C30      1.0000 0.14710  0.62951  0.54724  Biso   1.000  C
  C31      1.0000 0.35290  0.12951  0.95276  Biso   1.000  C
  C32      1.0000 0.64710  0.12951  0.54724  Biso   1.000  C
  C33      1.0000 0.10800  0.33344  0.97934  Biso   1.000  C
  C34      1.0000 0.89200  0.33344  0.52066  Biso   1.000  C
  C35      1.0000 0.60800  0.83344  0.97934  Biso   1.000  C
  C36      1.0000 0.39200  0.83344  0.52066  Biso   1.000  C
  C37      1.0000 0.89200  0.66656  0.02066  Biso   1.000  C
  C38      1.0000 0.10800  0.66656  0.47934  Biso   1.000  C
  C39      1.0000 0.39200  0.16656  0.02066  Biso   1.000  C
  C40      1.0000 0.60800  0.16656  0.47934  Biso   1.000  C
  H33      1.0000 0.19330  0.30720  0.96300  Biso   1.000  H
  H34      1.0000 0.80670  0.30720  0.53700  Biso   1.000  H
  H35      1.0000 0.69330  0.80720  0.96300  Biso   1.000  H
  H36      1.0000 0.30670  0.80720  0.53700  Biso   1.000  H
  H37      1.0000 0.80670  0.69280  0.03700  Biso   1.000  H
  H38      1.0000 0.19330  0.69280  0.46300  Biso   1.000  H
  H39      1.0000 0.30670  0.19280  0.03700  Biso   1.000  H
  H40      1.0000 0.69330  0.19280  0.46300  Biso   1.000  H
  C41      1.0000 0.94510  0.33465  0.93550  Biso   1.000  C
  C42      1.0000 0.05490  0.33465  0.56450  Biso   1.000  C
  C43      1.0000 0.44510  0.83465  0.93550  Biso   1.000  C
  C44      1.0000 0.55490  0.83465  0.56450  Biso   1.000  C
  C45      1.0000 0.05490  0.66535  0.06450  Biso   1.000  C
  C46      1.0000 0.94510  0.66535  0.43550  Biso   1.000  C
  C47      1.0000 0.55490  0.16535  0.06450  Biso   1.000  C
  C48      1.0000 0.44510  0.16535  0.43550  Biso   1.000  C
  H41      1.0000 0.92110  0.30980  0.89010  Biso   1.000  H
  H42      1.0000 0.07890  0.30980  0.60990  Biso   1.000  H
  H43      1.0000 0.42110  0.80980  0.89010  Biso   1.000  H
  H44      1.0000 0.57890  0.80980  0.60990  Biso   1.000  H
  H45      1.0000 0.07890  0.69020  0.10990  Biso   1.000  H
  H46      1.0000 0.92110  0.69020  0.39010  Biso   1.000  H
  H47      1.0000 0.57890  0.19020  0.10990  Biso   1.000  H
  H48      1.0000 0.42110  0.19020  0.39010  Biso   1.000  H
  C49      1.0000 0.81880  0.37362  0.96069  Biso   1.000  C
  C50      1.0000 0.18120  0.37362  0.53931  Biso   1.000  C
  C51      1.0000 0.31880  0.87362  0.96069  Biso   1.000  C
  C52      1.0000 0.68120  0.87362  0.53931  Biso   1.000  C
  C53      1.0000 0.18120  0.62638  0.03931  Biso   1.000  C
  C54      1.0000 0.81880  0.62638  0.46069  Biso   1.000  C
  C55      1.0000 0.68120  0.12638  0.03931  Biso   1.000  C
  C56      1.0000 0.31880  0.12638  0.46069  Biso   1.000  C
  C57      1.0000 0.85470  0.41089  0.02766  Biso   1.000  C
  C58      1.0000 0.14530  0.41089  0.47234  Biso   1.000  C
  C59      1.0000 0.35470  0.91089  0.02766  Biso   1.000  C
  C60      1.0000 0.64530  0.91089  0.47234  Biso   1.000  C
  C61      1.0000 0.14530  0.58911  0.97234  Biso   1.000  C
  C62      1.0000 0.85470  0.58911  0.52766  Biso   1.000  C
  C63      1.0000 0.64530  0.08911  0.97234  Biso   1.000  C
  C64      1.0000 0.35470  0.08911  0.52766  Biso   1.000  C
  H49      1.0000 0.76840  0.43640  0.04410  Biso   1.000  H
  H50      1.0000 0.23160  0.43640  0.45590  Biso   1.000  H
  H51      1.0000 0.26840  0.93640  0.04410  Biso   1.000  H
  H52      1.0000 0.73160  0.93640  0.45590  Biso   1.000  H
  H53      1.0000 0.23160  0.56360  0.95590  Biso   1.000  H
  H54      1.0000 0.76840  0.56360  0.54410  Biso   1.000  H
  H55      1.0000 0.73160  0.06360  0.95590  Biso   1.000  H
  H56      1.0000 0.26840  0.06360  0.54410  Biso   1.000  H
  C65      1.0000 0.57350  0.31636  0.88065  Biso   1.000  C
  C66      1.0000 0.42650  0.31636  0.61935  Biso   1.000  C
  C67      1.0000 0.07350  0.81636  0.88065  Biso   1.000  C
  C68      1.0000 0.92650  0.81636  0.61935  Biso   1.000  C
  C69      1.0000 0.42650  0.68364  0.11935  Biso   1.000  C
  C70      1.0000 0.57350  0.68364  0.38065  Biso   1.000  C
  C71      1.0000 0.92650  0.18364  0.11935  Biso   1.000  C
  C72      1.0000 0.07350  0.18364  0.38065  Biso   1.000  C
  H57      1.0000 0.63420  0.27320  0.88490  Biso   1.000  H
  H58      1.0000 0.36580  0.27320  0.61510  Biso   1.000  H
  H59      1.0000 0.13420  0.77320  0.88490  Biso   1.000  H
  H60      1.0000 0.86580  0.77320  0.61510  Biso   1.000  H
  H61      1.0000 0.36580  0.72680  0.11510  Biso   1.000  H
  H62      1.0000 0.63420  0.72680  0.38490  Biso   1.000  H
  H63      1.0000 0.86580  0.22680  0.11510  Biso   1.000  H
  H64      1.0000 0.13420  0.22680  0.38490  Biso   1.000  H
  C73      1.0000 0.41390  0.31827  0.83867  Biso   1.000  C
  C74      1.0000 0.58610  0.31827  0.66133  Biso   1.000  C
  C75      1.0000 0.91390  0.81827  0.83867  Biso   1.000  C
  C76      1.0000 0.08610  0.81827  0.66133  Biso   1.000  C
  C77      1.0000 0.58610  0.68173  0.16133  Biso   1.000  C
  C78      1.0000 0.41390  0.68173  0.33867  Biso   1.000  C
  C79      1.0000 0.08610  0.18173  0.16133  Biso   1.000  C
  C80      1.0000 0.91390  0.18173  0.33867  Biso   1.000  C
  H65      1.0000 0.36730  0.27660  0.81440  Biso   1.000  H
  H66      1.0000 0.63270  0.27660  0.68560  Biso   1.000  H
  H67      1.0000 0.86730  0.77660  0.81440  Biso   1.000  H
  H68      1.0000 0.13270  0.77660  0.68560  Biso   1.000  H
  H69      1.0000 0.63270  0.72340  0.18560  Biso   1.000  H
  H70      1.0000 0.36730  0.72340  0.31440  Biso   1.000  H
  H71      1.0000 0.13270  0.22340  0.18560  Biso   1.000  H
  H72      1.0000 0.86730  0.22340  0.31440  Biso   1.000  H
  C81      1.0000 0.31610  0.38323  0.83110  Biso   1.000  C
  C82      1.0000 0.68390  0.38323  0.66890  Biso   1.000  C
  C83      1.0000 0.81610  0.88323  0.83110  Biso   1.000  C
  C84      1.0000 0.18390  0.88323  0.66890  Biso   1.000  C
  C85      1.0000 0.68390  0.61677  0.16890  Biso   1.000  C
  C86      1.0000 0.31610  0.61677  0.33110  Biso   1.000  C
  C87      1.0000 0.18390  0.11677  0.16890  Biso   1.000  C
  C88      1.0000 0.81610  0.11677  0.33110  Biso   1.000  C
  C89      1.0000 0.39670  0.44356  0.86960  Biso   1.000  C
  C90      1.0000 0.60330  0.44356  0.63040  Biso   1.000  C
  C91      1.0000 0.89670  0.94356  0.86960  Biso   1.000  C
  C92      1.0000 0.10330  0.94356  0.63040  Biso   1.000  C
  C93      1.0000 0.60330  0.55644  0.13040  Biso   1.000  C
  C94      1.0000 0.39670  0.55644  0.36960  Biso   1.000  C
  C95      1.0000 0.10330  0.05644  0.13040  Biso   1.000  C
  C96      1.0000 0.89670  0.05644  0.36960  Biso   1.000  C
  H73      1.0000 0.33890  0.48740  0.86690  Biso   1.000  H
  H74      1.0000 0.66110  0.48740  0.63310  Biso   1.000  H
  H75      1.0000 0.83890  0.98740  0.86690  Biso   1.000  H
  H76      1.0000 0.16110  0.98740  0.63310  Biso   1.000  H
  H77      1.0000 0.66110  0.51260  0.13310  Biso   1.000  H
  H78      1.0000 0.33890  0.51260  0.36690  Biso   1.000  H
  H79      1.0000 0.16110  0.01260  0.13310  Biso   1.000  H
  H80      1.0000 0.83890  0.01260  0.36690  Biso   1.000  H
  C97      1.0000 0.55750  0.43866  0.91059  Biso   1.000  C
  C98      1.0000 0.44250  0.43866  0.58941  Biso   1.000  C
  C99      1.0000 0.05750  0.93866  0.91059  Biso   1.000  C
  C100     1.0000 0.94250  0.93866  0.58941  Biso   1.000  C
  C101     1.0000 0.44250  0.56134  0.08941  Biso   1.000  C
  C102     1.0000 0.55750  0.56134  0.41059  Biso   1.000  C
  C103     1.0000 0.94250  0.06134  0.08941  Biso   1.000  C
  C104     1.0000 0.05750  0.06134  0.41059  Biso   1.000  C
  H81      1.0000 0.60780  0.47950  0.93530  Biso   1.000  H
  H82      1.0000 0.39220  0.47950  0.56470  Biso   1.000  H
  H83      1.0000 0.10780  0.97950  0.93530  Biso   1.000  H
  H84      1.0000 0.89220  0.97950  0.56470  Biso   1.000  H
  H85      1.0000 0.39220  0.52050  0.06470  Biso   1.000  H
  H86      1.0000 0.60780  0.52050  0.43530  Biso   1.000  H
  H87      1.0000 0.89220  0.02050  0.06470  Biso   1.000  H
  H88      1.0000 0.10780  0.02050  0.43530  Biso   1.000  H
