data_image0
_cell_length_a       11.083
_cell_length_b       6.8479
_cell_length_c       7.7026
_cell_angle_alpha    90
_cell_angle_beta     97.71
_cell_angle_gamma    90

_symmetry_space_group_name_H-M    "P 1"
_symmetry_int_tables_number       1

loop_
  _symmetry_equiv_pos_as_xyz
  'x, y, z'

loop_
  _atom_site_label
  _atom_site_occupancy
  _atom_site_fract_x
  _atom_site_fract_y
  _atom_site_fract_z
  _atom_site_thermal_displace_type
  _atom_site_B_iso_or_equiv
  _atom_site_type_symbol
  Cu1      1.0000 0.00000  0.00000  0.00000  Biso   1.000  Cu
  Cu2      1.0000 0.00000  0.50000  0.50000  Biso   1.000  Cu
  Br1      1.0000 0.08752  0.77493  0.80524  Biso   1.000  Br
  Br2      1.0000 0.91248  0.27493  0.69476  Biso   1.000  Br
  Br3      1.0000 0.91248  0.22507  0.19476  Biso   1.000  Br
  Br4      1.0000 0.08752  0.72507  0.30524  Biso   1.000  Br
  N1       1.0000 0.15670  0.14030  0.04460  Biso   1.000  N
  N2       1.0000 0.84330  0.64030  0.45540  Biso   1.000  N
  N3       1.0000 0.84330  0.85970  0.95540  Biso   1.000  N
  N4       1.0000 0.15670  0.35970  0.54460  Biso   1.000  N
  N5       1.0000 0.26320  0.05080  0.10460  Biso   1.000  N
  N6       1.0000 0.73680  0.55080  0.39540  Biso   1.000  N
  N7       1.0000 0.73680  0.94920  0.89540  Biso   1.000  N
  N8       1.0000 0.26320  0.44920  0.60460  Biso   1.000  N
  N9       1.0000 0.34880  0.17990  0.14400  Biso   1.000  N
  N10      1.0000 0.65120  0.67990  0.35600  Biso   1.000  N
  N11      1.0000 0.65120  0.82010  0.85600  Biso   1.000  N
  N12      1.0000 0.34880  0.32010  0.64400  Biso   1.000  N
  N13      1.0000 0.29530  0.35730  0.10800  Biso   1.000  N
  N14      1.0000 0.70470  0.85730  0.39200  Biso   1.000  N
  N15      1.0000 0.70470  0.64270  0.89200  Biso   1.000  N
  N16      1.0000 0.29530  0.14270  0.60800  Biso   1.000  N
  C1       1.0000 0.17820  0.33070  0.04730  Biso   1.000  C
  C2       1.0000 0.82180  0.83070  0.45270  Biso   1.000  C
  C3       1.0000 0.82180  0.66930  0.95270  Biso   1.000  C
  C4       1.0000 0.17820  0.16930  0.54730  Biso   1.000  C
  H1       1.0000 0.12040  0.43040  0.01230  Biso   1.000  H
  H2       1.0000 0.87960  0.93040  0.48770  Biso   1.000  H
  H3       1.0000 0.87960  0.56960  0.98770  Biso   1.000  H
  H4       1.0000 0.12040  0.06960  0.51230  Biso   1.000  H
  C5       1.0000 0.36670  0.53840  0.13920  Biso   1.000  C
  C6       1.0000 0.63330  0.03840  0.36080  Biso   1.000  C
  C7       1.0000 0.63330  0.46160  0.86080  Biso   1.000  C
  C8       1.0000 0.36670  0.96160  0.63920  Biso   1.000  C
  H5       1.0000 0.41630  0.53060  0.25600  Biso   1.000  H
  H6       1.0000 0.58370  0.03060  0.24400  Biso   1.000  H
  H7       1.0000 0.58370  0.46940  0.74400  Biso   1.000  H
  H8       1.0000 0.41630  0.96940  0.75600  Biso   1.000  H
  H9       1.0000 0.31000  0.64980  0.14110  Biso   1.000  H
  H10      1.0000 0.69000  0.14980  0.35890  Biso   1.000  H
  H11      1.0000 0.69000  0.35020  0.85890  Biso   1.000  H
  H12      1.0000 0.31000  0.85020  0.64110  Biso   1.000  H
  C9       1.0000 0.45010  0.57750  0.00330  Biso   1.000  C
  C10      1.0000 0.54990  0.07750  0.49670  Biso   1.000  C
  C11      1.0000 0.54990  0.42250  0.99670  Biso   1.000  C
  C12      1.0000 0.45010  0.92250  0.50330  Biso   1.000  C
  H13      1.0000 0.48950  0.70620  0.02780  Biso   1.000  H
  H14      1.0000 0.51050  0.20620  0.47220  Biso   1.000  H
  H15      1.0000 0.51050  0.29380  0.97220  Biso   1.000  H
  H16      1.0000 0.48950  0.79380  0.52780  Biso   1.000  H
  H17      1.0000 0.40050  0.58520  0.88670  Biso   1.000  H
  H18      1.0000 0.59950  0.08520  0.61330  Biso   1.000  H
  H19      1.0000 0.59950  0.41480  0.11330  Biso   1.000  H
  H20      1.0000 0.40050  0.91480  0.38670  Biso   1.000  H
