data_image0
_cell_length_a       11.221
_cell_length_b       6.661
_cell_length_c       7.233
_cell_angle_alpha    90
_cell_angle_beta     94.82
_cell_angle_gamma    90

_symmetry_space_group_name_H-M    "P 1"
_symmetry_int_tables_number       1

loop_
  _symmetry_equiv_pos_as_xyz
  'x, y, z'

loop_
  _atom_site_label
  _atom_site_occupancy
  _atom_site_fract_x
  _atom_site_fract_y
  _atom_site_fract_z
  _atom_site_thermal_displace_type
  _atom_site_B_iso_or_equiv
  _atom_site_type_symbol
  Cu1      1.0000 0.00000  0.00000  0.00000  Biso   1.000  Cu
  Cu2      1.0000 0.00000  0.50000  0.50000  Biso   1.000  Cu
  Cl1      1.0000 0.07899  0.77724  0.80424  Biso   1.000  Cl
  Cl2      1.0000 0.92101  0.27724  0.69576  Biso   1.000  Cl
  Cl3      1.0000 0.92101  0.22276  0.19576  Biso   1.000  Cl
  Cl4      1.0000 0.07899  0.72276  0.30424  Biso   1.000  Cl
  N1       1.0000 0.15520  0.14140  0.03830  Biso   1.000  N
  N2       1.0000 0.84480  0.64140  0.46170  Biso   1.000  N
  N3       1.0000 0.84480  0.85860  0.96170  Biso   1.000  N
  N4       1.0000 0.15520  0.35860  0.53830  Biso   1.000  N
  N5       1.0000 0.25820  0.04540  0.09540  Biso   1.000  N
  N6       1.0000 0.74180  0.54540  0.40460  Biso   1.000  N
  N7       1.0000 0.74180  0.95460  0.90460  Biso   1.000  N
  N8       1.0000 0.25820  0.45460  0.59540  Biso   1.000  N
  N9       1.0000 0.34120  0.17590  0.13660  Biso   1.000  N
  N10      1.0000 0.65880  0.67590  0.36340  Biso   1.000  N
  N11      1.0000 0.65880  0.82410  0.86340  Biso   1.000  N
  N12      1.0000 0.34120  0.32410  0.63660  Biso   1.000  N
  N13      1.0000 0.29170  0.35880  0.10540  Biso   1.000  N
  N14      1.0000 0.70830  0.85880  0.39460  Biso   1.000  N
  N15      1.0000 0.70830  0.64120  0.89460  Biso   1.000  N
  N16      1.0000 0.29170  0.14120  0.60540  Biso   1.000  N
  C1       1.0000 0.17780  0.33570  0.04470  Biso   1.000  C
  C2       1.0000 0.82220  0.83570  0.45530  Biso   1.000  C
  C3       1.0000 0.82220  0.66430  0.95530  Biso   1.000  C
  C4       1.0000 0.17780  0.16430  0.54470  Biso   1.000  C
  H1       1.0000 0.12240  0.44020  0.01170  Biso   1.000  H
  H2       1.0000 0.87760  0.94020  0.48830  Biso   1.000  H
  H3       1.0000 0.87760  0.55980  0.98830  Biso   1.000  H
  H4       1.0000 0.12240  0.05980  0.51170  Biso   1.000  H
  C5       1.0000 0.36200  0.54290  0.14280  Biso   1.000  C
  C6       1.0000 0.63800  0.04290  0.35720  Biso   1.000  C
  C7       1.0000 0.63800  0.45710  0.85720  Biso   1.000  C
  C8       1.0000 0.36200  0.95710  0.64280  Biso   1.000  C
  H5       1.0000 0.40480  0.53320  0.26790  Biso   1.000  H
  H6       1.0000 0.59520  0.03320  0.23210  Biso   1.000  H
  H7       1.0000 0.59520  0.46680  0.73210  Biso   1.000  H
  H8       1.0000 0.40480  0.96680  0.76790  Biso   1.000  H
  H9       1.0000 0.30670  0.65880  0.14310  Biso   1.000  H
  H10      1.0000 0.69330  0.15880  0.35690  Biso   1.000  H
  H11      1.0000 0.69330  0.34120  0.85690  Biso   1.000  H
  H12      1.0000 0.30670  0.84120  0.64310  Biso   1.000  H
  C9       1.0000 0.45190  0.58060  0.00230  Biso   1.000  C
  C10      1.0000 0.54810  0.08060  0.49770  Biso   1.000  C
  C11      1.0000 0.54810  0.41940  0.99770  Biso   1.000  C
  C12      1.0000 0.45190  0.91940  0.50230  Biso   1.000  C
  H13      1.0000 0.49120  0.71150  0.03020  Biso   1.000  H
  H14      1.0000 0.50880  0.21150  0.46980  Biso   1.000  H
  H15      1.0000 0.50880  0.28850  0.96980  Biso   1.000  H
  H16      1.0000 0.49120  0.78850  0.53020  Biso   1.000  H
  H17      1.0000 0.40870  0.59050  0.87750  Biso   1.000  H
  H18      1.0000 0.59130  0.09050  0.62250  Biso   1.000  H
  H19      1.0000 0.59130  0.40950  0.12250  Biso   1.000  H
  H20      1.0000 0.40870  0.90950  0.37750  Biso   1.000  H
