data_image0
_cell_length_a       11.1611
_cell_length_b       16.1869
_cell_length_c       22.232
_cell_angle_alpha    90
_cell_angle_beta     95.888
_cell_angle_gamma    90

_symmetry_space_group_name_H-M    "P 1"
_symmetry_int_tables_number       1

loop_
  _symmetry_equiv_pos_as_xyz
  'x, y, z'

loop_
  _atom_site_label
  _atom_site_occupancy
  _atom_site_fract_x
  _atom_site_fract_y
  _atom_site_fract_z
  _atom_site_thermal_displace_type
  _atom_site_B_iso_or_equiv
  _atom_site_type_symbol
  P1       1.0000 0.06050  0.45487  0.62026  Biso   1.000  P
  P2       1.0000 0.93950  0.95487  0.87974  Biso   1.000  P
  P3       1.0000 0.93950  0.54513  0.37974  Biso   1.000  P
  P4       1.0000 0.06050  0.04513  0.12026  Biso   1.000  P
  F1       1.0000 0.96500  0.44060  0.67035  Biso   1.000  F
  F2       1.0000 0.03500  0.94060  0.82965  Biso   1.000  F
  F3       1.0000 0.03500  0.55940  0.32965  Biso   1.000  F
  F4       1.0000 0.96500  0.05940  0.17035  Biso   1.000  F
  F5       1.0000 0.17130  0.46190  0.67052  Biso   1.000  F
  F6       1.0000 0.82870  0.96190  0.82948  Biso   1.000  F
  F7       1.0000 0.82870  0.53810  0.32948  Biso   1.000  F
  F8       1.0000 0.17130  0.03810  0.17052  Biso   1.000  F
  F9       1.0000 0.14030  0.47880  0.57237  Biso   1.000  F
  F10      1.0000 0.85970  0.97880  0.92763  Biso   1.000  F
  F11      1.0000 0.85970  0.52120  0.42763  Biso   1.000  F
  F12      1.0000 0.14030  0.02120  0.07237  Biso   1.000  F
  F13      1.0000 0.94570  0.45640  0.57384  Biso   1.000  F
  F14      1.0000 0.05430  0.95640  0.92616  Biso   1.000  F
  F15      1.0000 0.05430  0.54360  0.42616  Biso   1.000  F
  F16      1.0000 0.94570  0.04360  0.07384  Biso   1.000  F
  F17      1.0000 0.07090  0.36080  0.61910  Biso   1.000  F
  F18      1.0000 0.92910  0.86080  0.88090  Biso   1.000  F
  F19      1.0000 0.92910  0.63920  0.38090  Biso   1.000  F
  F20      1.0000 0.07090  0.13920  0.11910  Biso   1.000  F
  F21      1.0000 0.03490  0.55395  0.63549  Biso   1.000  F
  F22      1.0000 0.96510  0.05395  0.86451  Biso   1.000  F
  F23      1.0000 0.96510  0.44605  0.36451  Biso   1.000  F
  F24      1.0000 0.03490  0.94605  0.13549  Biso   1.000  F
  P5       1.0000 0.33680  0.05823  0.39192  Biso   1.000  P
  P6       1.0000 0.66320  0.55823  0.10808  Biso   1.000  P
  P7       1.0000 0.66320  0.94177  0.60808  Biso   1.000  P
  P8       1.0000 0.33680  0.44177  0.89192  Biso   1.000  P
  F25      1.0000 0.23310  0.07070  0.43440  Biso   1.000  F
  F26      1.0000 0.76690  0.57070  0.06560  Biso   1.000  F
  F27      1.0000 0.76690  0.92930  0.56560  Biso   1.000  F
  F28      1.0000 0.23310  0.42930  0.93440  Biso   1.000  F
  F29      1.0000 0.43660  0.05390  0.44690  Biso   1.000  F
  F30      1.0000 0.56340  0.55390  0.05310  Biso   1.000  F
  F31      1.0000 0.56340  0.94610  0.55310  Biso   1.000  F
  F32      1.0000 0.43660  0.44610  0.94690  Biso   1.000  F
  F33      1.0000 0.43990  0.04400  0.35000  Biso   1.000  F
  F34      1.0000 0.56010  0.54400  0.15000  Biso   1.000  F
  F35      1.0000 0.56010  0.95600  0.65000  Biso   1.000  F
  F36      1.0000 0.43990  0.45600  0.85000  Biso   1.000  F
  F37      1.0000 0.23820  0.05990  0.33370  Biso   1.000  F
  F38      1.0000 0.76180  0.55990  0.16630  Biso   1.000  F
  F39      1.0000 0.76180  0.94010  0.66630  Biso   1.000  F
  F40      1.0000 0.23820  0.44010  0.83370  Biso   1.000  F
  F41      1.0000 0.31590  0.96270  0.39490  Biso   1.000  F
  F42      1.0000 0.68410  0.46270  0.10510  Biso   1.000  F
  F43      1.0000 0.68410  0.03730  0.60510  Biso   1.000  F
  F44      1.0000 0.31590  0.53730  0.89490  Biso   1.000  F
  F45      1.0000 0.35170  0.15350  0.38280  Biso   1.000  F
  F46      1.0000 0.64830  0.65350  0.11720  Biso   1.000  F
  F47      1.0000 0.64830  0.84650  0.61720  Biso   1.000  F
  F48      1.0000 0.35170  0.34650  0.88280  Biso   1.000  F
  Cu1      1.0000 0.69709  0.26005  0.24706  Biso   1.000  Cu
  Cu2      1.0000 0.30291  0.76005  0.25294  Biso   1.000  Cu
  Cu3      1.0000 0.30291  0.73995  0.75294  Biso   1.000  Cu
  Cu4      1.0000 0.69709  0.23995  0.74706  Biso   1.000  Cu
  O1       1.0000 0.69640  0.11238  0.24479  Biso   1.000  O
  O2       1.0000 0.30360  0.61238  0.25521  Biso   1.000  O
  O3       1.0000 0.30360  0.88762  0.75521  Biso   1.000  O
  O4       1.0000 0.69640  0.38762  0.74479  Biso   1.000  O
  N1       1.0000 0.88171  0.27109  0.25168  Biso   1.000  N
  N2       1.0000 0.11829  0.77109  0.24832  Biso   1.000  N
  N3       1.0000 0.11829  0.72891  0.74832  Biso   1.000  N
  N4       1.0000 0.88171  0.22891  0.75168  Biso   1.000  N
  N5       1.0000 0.51294  0.26998  0.24340  Biso   1.000  N
  N6       1.0000 0.48706  0.76998  0.25660  Biso   1.000  N
  N7       1.0000 0.48706  0.73002  0.75660  Biso   1.000  N
  N8       1.0000 0.51294  0.23002  0.74340  Biso   1.000  N
  N9       1.0000 0.70507  0.25599  0.33820  Biso   1.000  N
  N10      1.0000 0.29493  0.75599  0.16180  Biso   1.000  N
  N11      1.0000 0.29493  0.74401  0.66180  Biso   1.000  N
  N12      1.0000 0.70507  0.24401  0.83820  Biso   1.000  N
  N13      1.0000 0.69103  0.24573  0.65568  Biso   1.000  N
  N14      1.0000 0.30897  0.74573  0.84432  Biso   1.000  N
  N15      1.0000 0.30897  0.75427  0.34432  Biso   1.000  N
  N16      1.0000 0.69103  0.25427  0.15568  Biso   1.000  N
  C1       1.0000 0.93517  0.33746  0.23000  Biso   1.000  C
  C2       1.0000 0.06483  0.83746  0.27000  Biso   1.000  C
  C3       1.0000 0.06483  0.66254  0.77000  Biso   1.000  C
  C4       1.0000 0.93517  0.16254  0.73000  Biso   1.000  C
  H1       1.0000 0.88760  0.38200  0.21600  Biso   1.000  H
  H2       1.0000 0.11240  0.88200  0.28400  Biso   1.000  H
  H3       1.0000 0.11240  0.61800  0.78400  Biso   1.000  H
  H4       1.0000 0.88760  0.11800  0.71600  Biso   1.000  H
  C5       1.0000 0.05819  0.34204  0.22775  Biso   1.000  C
  C6       1.0000 0.94181  0.84204  0.27225  Biso   1.000  C
  C7       1.0000 0.94181  0.65796  0.77225  Biso   1.000  C
  C8       1.0000 0.05819  0.15796  0.72775  Biso   1.000  C
  H5       1.0000 0.09250  0.38950  0.21330  Biso   1.000  H
  H6       1.0000 0.90750  0.88950  0.28670  Biso   1.000  H
  H7       1.0000 0.90750  0.61050  0.78670  Biso   1.000  H
  H8       1.0000 0.09250  0.11050  0.71330  Biso   1.000  H
  C9       1.0000 0.13018  0.27562  0.24722  Biso   1.000  C
  C10      1.0000 0.86982  0.77562  0.25278  Biso   1.000  C
  C11      1.0000 0.86982  0.72438  0.75278  Biso   1.000  C
  C12      1.0000 0.13018  0.22438  0.74722  Biso   1.000  C
  C13      1.0000 0.07400  0.20759  0.27054  Biso   1.000  C
  C14      1.0000 0.92600  0.70759  0.22946  Biso   1.000  C
  C15      1.0000 0.92600  0.79241  0.72946  Biso   1.000  C
  C16      1.0000 0.07400  0.29241  0.77054  Biso   1.000  C
  H9       1.0000 0.11930  0.16220  0.28490  Biso   1.000  H
  H10      1.0000 0.88070  0.66220  0.21510  Biso   1.000  H
  H11      1.0000 0.88070  0.83780  0.71510  Biso   1.000  H
  H12      1.0000 0.11930  0.33780  0.78490  Biso   1.000  H
  C17      1.0000 0.95077  0.20810  0.27221  Biso   1.000  C
  C18      1.0000 0.04923  0.70810  0.22779  Biso   1.000  C
  C19      1.0000 0.04923  0.79190  0.72779  Biso   1.000  C
  C20      1.0000 0.95077  0.29190  0.77221  Biso   1.000  C
  H13      1.0000 0.91450  0.16260  0.28830  Biso   1.000  H
  H14      1.0000 0.08550  0.66260  0.21170  Biso   1.000  H
  H15      1.0000 0.08550  0.83740  0.71170  Biso   1.000  H
  H16      1.0000 0.91450  0.33740  0.78830  Biso   1.000  H
  C21      1.0000 0.26219  0.27508  0.24424  Biso   1.000  C
  C22      1.0000 0.73781  0.77508  0.25576  Biso   1.000  C
  C23      1.0000 0.73781  0.72492  0.75576  Biso   1.000  C
  C24      1.0000 0.26219  0.22492  0.74424  Biso   1.000  C
  C25      1.0000 0.33300  0.34220  0.26031  Biso   1.000  C
  C26      1.0000 0.66700  0.84220  0.23969  Biso   1.000  C
  C27      1.0000 0.66700  0.65780  0.73969  Biso   1.000  C
  C28      1.0000 0.33300  0.15780  0.76031  Biso   1.000  C
  H17      1.0000 0.29760  0.39120  0.27120  Biso   1.000  H
  H18      1.0000 0.70240  0.89120  0.22880  Biso   1.000  H
  H19      1.0000 0.70240  0.60880  0.72880  Biso   1.000  H
  H20      1.0000 0.29760  0.10880  0.77120  Biso   1.000  H
  C29      1.0000 0.45690  0.33762  0.26045  Biso   1.000  C
  C30      1.0000 0.54310  0.83762  0.23955  Biso   1.000  C
  C31      1.0000 0.54310  0.66238  0.73955  Biso   1.000  C
  C32      1.0000 0.45690  0.16238  0.76045  Biso   1.000  C
  H21      1.0000 0.50290  0.38350  0.27290  Biso   1.000  H
  H22      1.0000 0.49710  0.88350  0.22710  Biso   1.000  H
  H23      1.0000 0.49710  0.61650  0.72710  Biso   1.000  H
  H24      1.0000 0.50290  0.11650  0.77290  Biso   1.000  H
  C33      1.0000 0.44340  0.20608  0.22585  Biso   1.000  C
  C34      1.0000 0.55660  0.70608  0.27415  Biso   1.000  C
  C35      1.0000 0.55660  0.79392  0.77415  Biso   1.000  C
  C36      1.0000 0.44340  0.29392  0.72585  Biso   1.000  C
  H25      1.0000 0.48040  0.15890  0.21260  Biso   1.000  H
  H26      1.0000 0.51960  0.65890  0.28740  Biso   1.000  H
  H27      1.0000 0.51960  0.84110  0.78740  Biso   1.000  H
  H28      1.0000 0.48040  0.34110  0.71260  Biso   1.000  H
  C37      1.0000 0.32090  0.20517  0.22596  Biso   1.000  C
  C38      1.0000 0.67910  0.70517  0.27404  Biso   1.000  C
  C39      1.0000 0.67910  0.79483  0.77404  Biso   1.000  C
  C40      1.0000 0.32090  0.29483  0.72596  Biso   1.000  C
  H29      1.0000 0.27720  0.15810  0.21390  Biso   1.000  H
  H30      1.0000 0.72280  0.65810  0.28610  Biso   1.000  H
  H31      1.0000 0.72280  0.84190  0.78610  Biso   1.000  H
  H32      1.0000 0.27720  0.34190  0.71390  Biso   1.000  H
  C41      1.0000 0.63870  0.20090  0.36490  Biso   1.000  C
  C42      1.0000 0.36130  0.70090  0.13510  Biso   1.000  C
  C43      1.0000 0.36130  0.79910  0.63510  Biso   1.000  C
  C44      1.0000 0.63870  0.29910  0.86490  Biso   1.000  C
  H33      1.0000 0.59240  0.16340  0.34080  Biso   1.000  H
  H34      1.0000 0.40760  0.66340  0.15920  Biso   1.000  H
  H35      1.0000 0.40760  0.83660  0.65920  Biso   1.000  H
  H36      1.0000 0.59240  0.33660  0.84080  Biso   1.000  H
  C45      1.0000 0.63620  0.19736  0.42673  Biso   1.000  C
  C46      1.0000 0.36380  0.69736  0.07327  Biso   1.000  C
  C47      1.0000 0.36380  0.80264  0.57327  Biso   1.000  C
  C48      1.0000 0.63620  0.30264  0.92673  Biso   1.000  C
  H37      1.0000 0.58950  0.15760  0.44350  Biso   1.000  H
  H38      1.0000 0.41050  0.65760  0.05650  Biso   1.000  H
  H39      1.0000 0.41050  0.84240  0.55650  Biso   1.000  H
  H40      1.0000 0.58950  0.34240  0.94350  Biso   1.000  H
  C49      1.0000 0.70299  0.25287  0.46384  Biso   1.000  C
  C50      1.0000 0.29701  0.75287  0.03616  Biso   1.000  C
  C51      1.0000 0.29701  0.74713  0.53616  Biso   1.000  C
  C52      1.0000 0.70299  0.24713  0.96384  Biso   1.000  C
  C53      1.0000 0.77481  0.30838  0.43604  Biso   1.000  C
  C54      1.0000 0.22519  0.80838  0.06396  Biso   1.000  C
  C55      1.0000 0.22519  0.69162  0.56396  Biso   1.000  C
  C56      1.0000 0.77481  0.19162  0.93604  Biso   1.000  C
  H41      1.0000 0.82360  0.34550  0.45920  Biso   1.000  H
  H42      1.0000 0.17640  0.84550  0.04080  Biso   1.000  H
  H43      1.0000 0.17640  0.65450  0.54080  Biso   1.000  H
  H44      1.0000 0.82360  0.15450  0.95920  Biso   1.000  H
  C57      1.0000 0.77335  0.30815  0.37399  Biso   1.000  C
  C58      1.0000 0.22665  0.80815  0.12601  Biso   1.000  C
  C59      1.0000 0.22665  0.69185  0.62601  Biso   1.000  C
  C60      1.0000 0.77335  0.19185  0.87399  Biso   1.000  C
  H45      1.0000 0.82180  0.34580  0.35610  Biso   1.000  H
  H46      1.0000 0.17820  0.84580  0.14390  Biso   1.000  H
  H47      1.0000 0.17820  0.65420  0.64390  Biso   1.000  H
  H48      1.0000 0.82180  0.15420  0.85610  Biso   1.000  H
  C61      1.0000 0.69781  0.25146  0.53035  Biso   1.000  C
  C62      1.0000 0.30219  0.75146  0.96965  Biso   1.000  C
  C63      1.0000 0.30219  0.74854  0.46965  Biso   1.000  C
  C64      1.0000 0.69781  0.24854  0.03035  Biso   1.000  C
  C65      1.0000 0.77990  0.29549  0.56949  Biso   1.000  C
  C66      1.0000 0.22010  0.79549  0.93051  Biso   1.000  C
  C67      1.0000 0.22010  0.70451  0.43051  Biso   1.000  C
  C68      1.0000 0.77990  0.20451  0.06949  Biso   1.000  C
  H49      1.0000 0.83900  0.32740  0.55420  Biso   1.000  H
  H50      1.0000 0.16100  0.82740  0.94580  Biso   1.000  H
  H51      1.0000 0.16100  0.67260  0.44580  Biso   1.000  H
  H52      1.0000 0.83900  0.17260  0.05420  Biso   1.000  H
  C69      1.0000 0.77320  0.29163  0.63071  Biso   1.000  C
  C70      1.0000 0.22680  0.79163  0.86929  Biso   1.000  C
  C71      1.0000 0.22680  0.70837  0.36929  Biso   1.000  C
  C72      1.0000 0.77320  0.20837  0.13071  Biso   1.000  C
  H53      1.0000 0.82800  0.32220  0.65610  Biso   1.000  H
  H54      1.0000 0.17200  0.82220  0.84390  Biso   1.000  H
  H55      1.0000 0.17200  0.67780  0.34390  Biso   1.000  H
  H56      1.0000 0.82800  0.17780  0.15610  Biso   1.000  H
  C73      1.0000 0.61024  0.20548  0.61844  Biso   1.000  C
  C74      1.0000 0.38976  0.70548  0.88156  Biso   1.000  C
  C75      1.0000 0.38976  0.79452  0.38156  Biso   1.000  C
  C76      1.0000 0.61024  0.29452  0.11844  Biso   1.000  C
  H57      1.0000 0.55130  0.17460  0.63490  Biso   1.000  H
  H58      1.0000 0.44870  0.67460  0.86510  Biso   1.000  H
  H59      1.0000 0.44870  0.82540  0.36510  Biso   1.000  H
  H60      1.0000 0.55130  0.32540  0.13490  Biso   1.000  H
  C77      1.0000 0.61030  0.20770  0.55644  Biso   1.000  C
  C78      1.0000 0.38970  0.70770  0.94356  Biso   1.000  C
  C79      1.0000 0.38970  0.79230  0.44356  Biso   1.000  C
  C80      1.0000 0.61030  0.29230  0.05644  Biso   1.000  C
  H61      1.0000 0.55110  0.17960  0.53200  Biso   1.000  H
  H62      1.0000 0.44890  0.67960  0.96800  Biso   1.000  H
  H63      1.0000 0.44890  0.82040  0.46800  Biso   1.000  H
  H64      1.0000 0.55110  0.32040  0.03200  Biso   1.000  H
  H65      1.0000 0.67930  0.08830  0.21300  Biso   1.000  H
  H66      1.0000 0.32070  0.58830  0.28700  Biso   1.000  H
  H67      1.0000 0.32070  0.91170  0.78700  Biso   1.000  H
  H68      1.0000 0.67930  0.41170  0.71300  Biso   1.000  H
  H69      1.0000 0.72640  0.08160  0.27350  Biso   1.000  H
  H70      1.0000 0.27360  0.58160  0.22650  Biso   1.000  H
  H71      1.0000 0.27360  0.91840  0.72650  Biso   1.000  H
  H72      1.0000 0.72640  0.41840  0.77350  Biso   1.000  H
  S1       1.0000 0.16071  0.18146  0.93188  Biso   1.000  S
  S2       1.0000 0.83929  0.68146  0.56812  Biso   1.000  S
  S3       1.0000 0.83929  0.81854  0.06812  Biso   1.000  S
  S4       1.0000 0.16071  0.31854  0.43188  Biso   1.000  S
  N17      1.0000 0.38960  0.97851  0.86499  Biso   1.000  N
  N18      1.0000 0.61040  0.47851  0.63501  Biso   1.000  N
  N19      1.0000 0.61040  0.02149  0.13501  Biso   1.000  N
  N20      1.0000 0.38960  0.52149  0.36499  Biso   1.000  N
  N21      1.0000 0.34300  0.19471  0.00966  Biso   1.000  N
  N22      1.0000 0.65700  0.69471  0.49034  Biso   1.000  N
  N23      1.0000 0.65700  0.80529  0.99034  Biso   1.000  N
  N24      1.0000 0.34300  0.30529  0.50966  Biso   1.000  N
  N25      1.0000 0.26170  0.25354  0.02502  Biso   1.000  N
  N26      1.0000 0.73830  0.75354  0.47498  Biso   1.000  N
  N27      1.0000 0.73830  0.74646  0.97498  Biso   1.000  N
  N28      1.0000 0.26170  0.24646  0.52502  Biso   1.000  N
  N29      1.0000 0.91370  0.40079  0.94119  Biso   1.000  N
  N30      1.0000 0.08630  0.90079  0.55881  Biso   1.000  N
  N31      1.0000 0.08630  0.59921  0.05881  Biso   1.000  N
  N32      1.0000 0.91370  0.09921  0.44119  Biso   1.000  N
  C81      1.0000 0.32640  0.03491  0.89161  Biso   1.000  C
  C82      1.0000 0.67360  0.53491  0.60839  Biso   1.000  C
  C83      1.0000 0.67360  0.96509  0.10839  Biso   1.000  C
  C84      1.0000 0.32640  0.46509  0.39161  Biso   1.000  C
  H73      1.0000 0.24410  0.03810  0.88000  Biso   1.000  H
  H74      1.0000 0.75590  0.53810  0.62000  Biso   1.000  H
  H75      1.0000 0.75590  0.96190  0.12000  Biso   1.000  H
  H76      1.0000 0.24410  0.46190  0.38000  Biso   1.000  H
  C85      1.0000 0.50800  0.97560  0.88215  Biso   1.000  C
  C86      1.0000 0.49200  0.47560  0.61785  Biso   1.000  C
  C87      1.0000 0.49200  0.02440  0.11785  Biso   1.000  C
  C88      1.0000 0.50800  0.52440  0.38215  Biso   1.000  C
  H77      1.0000 0.55410  0.93720  0.86360  Biso   1.000  H
  H78      1.0000 0.44590  0.43720  0.63640  Biso   1.000  H
  H79      1.0000 0.44590  0.06280  0.13640  Biso   1.000  H
  H80      1.0000 0.55410  0.56280  0.36360  Biso   1.000  H
  C89      1.0000 0.56460  0.02550  0.92507  Biso   1.000  C
  C90      1.0000 0.43540  0.52550  0.57493  Biso   1.000  C
  C91      1.0000 0.43540  0.97450  0.07493  Biso   1.000  C
  C92      1.0000 0.56460  0.47450  0.42507  Biso   1.000  C
  H81      1.0000 0.64710  0.02070  0.93580  Biso   1.000  H
  H82      1.0000 0.35290  0.52070  0.56420  Biso   1.000  H
  H83      1.0000 0.35290  0.97930  0.06420  Biso   1.000  H
  H84      1.0000 0.64710  0.47930  0.43580  Biso   1.000  H
  C93      1.0000 0.49800  0.08353  0.95262  Biso   1.000  C
  C94      1.0000 0.50200  0.58353  0.54738  Biso   1.000  C
  C95      1.0000 0.50200  0.91647  0.04738  Biso   1.000  C
  C96      1.0000 0.49800  0.41647  0.45262  Biso   1.000  C
  H85      1.0000 0.53450  0.11840  0.98230  Biso   1.000  H
  H86      1.0000 0.46550  0.61840  0.51770  Biso   1.000  H
  H87      1.0000 0.46550  0.88160  0.01770  Biso   1.000  H
  H88      1.0000 0.53450  0.38160  0.48230  Biso   1.000  H
  C97      1.0000 0.37520  0.08878  0.93513  Biso   1.000  C
  C98      1.0000 0.62480  0.58878  0.56487  Biso   1.000  C
  C99      1.0000 0.62480  0.91122  0.06487  Biso   1.000  C
  C100     1.0000 0.37520  0.41122  0.43513  Biso   1.000  C
  C101     1.0000 0.30270  0.15263  0.96231  Biso   1.000  C
  C102     1.0000 0.69730  0.65263  0.53769  Biso   1.000  C
  C103     1.0000 0.69730  0.84737  0.03769  Biso   1.000  C
  C104     1.0000 0.30270  0.34737  0.46231  Biso   1.000  C
  C105     1.0000 0.16450  0.25417  0.98806  Biso   1.000  C
  C106     1.0000 0.83550  0.75417  0.51194  Biso   1.000  C
  C107     1.0000 0.83550  0.74583  0.01194  Biso   1.000  C
  C108     1.0000 0.16450  0.24583  0.48806  Biso   1.000  C
  C109     1.0000 0.06490  0.31329  0.99294  Biso   1.000  C
  C110     1.0000 0.93510  0.81329  0.50706  Biso   1.000  C
  C111     1.0000 0.93510  0.68671  0.00706  Biso   1.000  C
  C112     1.0000 0.06490  0.18671  0.49294  Biso   1.000  C
  C113     1.0000 0.00110  0.34559  0.94154  Biso   1.000  C
  C114     1.0000 0.99890  0.84559  0.55846  Biso   1.000  C
  C115     1.0000 0.99890  0.65441  0.05846  Biso   1.000  C
  C116     1.0000 0.00110  0.15441  0.44154  Biso   1.000  C
  H89      1.0000 0.02140  0.32700  0.90430  Biso   1.000  H
  H90      1.0000 0.97860  0.82700  0.59570  Biso   1.000  H
  H91      1.0000 0.97860  0.67300  0.09570  Biso   1.000  H
  H92      1.0000 0.02140  0.17300  0.40430  Biso   1.000  H
  C117     1.0000 0.03500  0.34123  0.04810  Biso   1.000  C
  C118     1.0000 0.96500  0.84123  0.45190  Biso   1.000  C
  C119     1.0000 0.96500  0.65877  0.95190  Biso   1.000  C
  C120     1.0000 0.03500  0.15877  0.54810  Biso   1.000  C
  H93      1.0000 0.07530  0.32170  0.08400  Biso   1.000  H
  H94      1.0000 0.92470  0.82170  0.41600  Biso   1.000  H
  H95      1.0000 0.92470  0.67830  0.91600  Biso   1.000  H
  H96      1.0000 0.07530  0.17830  0.58400  Biso   1.000  H
  C121     1.0000 0.88680  0.42630  0.99547  Biso   1.000  C
  C122     1.0000 0.11320  0.92630  0.50453  Biso   1.000  C
  C123     1.0000 0.11320  0.57370  0.00453  Biso   1.000  C
  C124     1.0000 0.88680  0.07370  0.49547  Biso   1.000  C
  H97      1.0000 0.82560  0.46500  0.99690  Biso   1.000  H
  H98      1.0000 0.17440  0.96500  0.50310  Biso   1.000  H
  H99      1.0000 0.17440  0.53500  0.00310  Biso   1.000  H
  H100     1.0000 0.82560  0.03500  0.49690  Biso   1.000  H
  C125     1.0000 0.94400  0.39880  0.04868  Biso   1.000  C
  C126     1.0000 0.05600  0.89880  0.45132  Biso   1.000  C
  C127     1.0000 0.05600  0.60120  0.95132  Biso   1.000  C
  C128     1.0000 0.94400  0.10120  0.54868  Biso   1.000  C
  H101     1.0000 0.92180  0.41860  0.08520  Biso   1.000  H
  H102     1.0000 0.07820  0.91860  0.41480  Biso   1.000  H
  H103     1.0000 0.07820  0.58140  0.91480  Biso   1.000  H
  H104     1.0000 0.92180  0.08140  0.58520  Biso   1.000  H
  O5       1.0000 0.69568  0.42398  0.25519  Biso   1.000  O
  O6       1.0000 0.30432  0.92398  0.24481  Biso   1.000  O
  O7       1.0000 0.30432  0.57602  0.74481  Biso   1.000  O
  O8       1.0000 0.69568  0.07602  0.75519  Biso   1.000  O
  H105     1.0000 0.72540  0.46350  0.27490  Biso   1.000  H
  H106     1.0000 0.27460  0.96350  0.22510  Biso   1.000  H
  H107     1.0000 0.27460  0.53650  0.72510  Biso   1.000  H
  H108     1.0000 0.72540  0.03650  0.77490  Biso   1.000  H
  H109     1.0000 0.68170  0.43810  0.21830  Biso   1.000  H
  H110     1.0000 0.31830  0.93810  0.28170  Biso   1.000  H
  H111     1.0000 0.31830  0.56190  0.78170  Biso   1.000  H
  H112     1.0000 0.68170  0.06190  0.71830  Biso   1.000  H
  O9       1.0000 0.79280  0.01154  0.33844  Biso   1.000  O
  O10      1.0000 0.20720  0.51154  0.16156  Biso   1.000  O
  O11      1.0000 0.20720  0.98846  0.66156  Biso   1.000  O
  O12      1.0000 0.79280  0.48846  0.83844  Biso   1.000  O
  H113     1.0000 0.75620  0.97660  0.35670  Biso   1.000  H
  H114     1.0000 0.24380  0.47660  0.14330  Biso   1.000  H
  H115     1.0000 0.24380  0.02340  0.64330  Biso   1.000  H
  H116     1.0000 0.75620  0.52340  0.85670  Biso   1.000  H
  H117     1.0000 0.83360  0.03940  0.36560  Biso   1.000  H
  H118     1.0000 0.16640  0.53940  0.13440  Biso   1.000  H
  H119     1.0000 0.16640  0.96060  0.63440  Biso   1.000  H
  H120     1.0000 0.83360  0.46060  0.86560  Biso   1.000  H
  O13      1.0000 0.34850  0.40157  0.09831  Biso   1.000  O
  O14      1.0000 0.65150  0.90157  0.40169  Biso   1.000  O
  O15      1.0000 0.65150  0.59843  0.90169  Biso   1.000  O
  O16      1.0000 0.34850  0.09843  0.59831  Biso   1.000  O
  H121     1.0000 0.31290  0.36070  0.08220  Biso   1.000  H
  H122     1.0000 0.68710  0.86070  0.41780  Biso   1.000  H
  H123     1.0000 0.68710  0.63930  0.91780  Biso   1.000  H
  H124     1.0000 0.31290  0.13930  0.58220  Biso   1.000  H
  H125     1.0000 0.36570  0.43230  0.07060  Biso   1.000  H
  H126     1.0000 0.63430  0.93230  0.42940  Biso   1.000  H
  H127     1.0000 0.63430  0.56770  0.92940  Biso   1.000  H
  H128     1.0000 0.36570  0.06770  0.57060  Biso   1.000  H
  F49      1.0000 0.02930  0.41610  0.55260  Biso   1.000  F
  F50      1.0000 0.97070  0.91610  0.94740  Biso   1.000  F
  F51      1.0000 0.97070  0.58390  0.44740  Biso   1.000  F
  F52      1.0000 0.02930  0.08390  0.05260  Biso   1.000  F
  F53      1.0000 0.07340  0.53960  0.59520  Biso   1.000  F
  F54      1.0000 0.92660  0.03960  0.90480  Biso   1.000  F
  F55      1.0000 0.92660  0.46040  0.40480  Biso   1.000  F
  F56      1.0000 0.07340  0.96040  0.09520  Biso   1.000  F
  F57      1.0000 0.92790  0.45840  0.62780  Biso   1.000  F
  F58      1.0000 0.07210  0.95840  0.87220  Biso   1.000  F
  F59      1.0000 0.07210  0.54160  0.37220  Biso   1.000  F
  F60      1.0000 0.92790  0.04160  0.12780  Biso   1.000  F
  F61      1.0000 0.20040  0.43520  0.60960  Biso   1.000  F
  F62      1.0000 0.79960  0.93520  0.89040  Biso   1.000  F
  F63      1.0000 0.79960  0.56480  0.39040  Biso   1.000  F
  F64      1.0000 0.20040  0.06480  0.10960  Biso   1.000  F
  F65      1.0000 0.05710  0.35700  0.64260  Biso   1.000  F
  F66      1.0000 0.94290  0.85700  0.85740  Biso   1.000  F
  F67      1.0000 0.94290  0.64300  0.35740  Biso   1.000  F
  F68      1.0000 0.05710  0.14300  0.14260  Biso   1.000  F
  F69      1.0000 0.10440  0.47170  0.68920  Biso   1.000  F
  F70      1.0000 0.89560  0.97170  0.81080  Biso   1.000  F
  F71      1.0000 0.89560  0.52830  0.31080  Biso   1.000  F
  F72      1.0000 0.10440  0.02830  0.18920  Biso   1.000  F
  F73      1.0000 0.32290  0.05580  0.46010  Biso   1.000  F
  F74      1.0000 0.67710  0.55580  0.03990  Biso   1.000  F
  F75      1.0000 0.67710  0.94420  0.53990  Biso   1.000  F
  F76      1.0000 0.32290  0.44420  0.96010  Biso   1.000  F
  F77      1.0000 0.47670  0.03760  0.40130  Biso   1.000  F
  F78      1.0000 0.52330  0.53760  0.09870  Biso   1.000  F
  F79      1.0000 0.52330  0.96240  0.59870  Biso   1.000  F
  F80      1.0000 0.47670  0.46240  0.90130  Biso   1.000  F
  F81      1.0000 0.19950  0.08160  0.38000  Biso   1.000  F
  F82      1.0000 0.80050  0.58160  0.12000  Biso   1.000  F
  F83      1.0000 0.80050  0.91840  0.62000  Biso   1.000  F
  F84      1.0000 0.19950  0.41840  0.88000  Biso   1.000  F
  F85      1.0000 0.34850  0.06440  0.32130  Biso   1.000  F
  F86      1.0000 0.65150  0.56440  0.17870  Biso   1.000  F
  F87      1.0000 0.65150  0.93560  0.67870  Biso   1.000  F
  F88      1.0000 0.34850  0.43560  0.82130  Biso   1.000  F
  F89      1.0000 0.30240  0.96560  0.38070  Biso   1.000  F
  F90      1.0000 0.69760  0.46560  0.11930  Biso   1.000  F
  F91      1.0000 0.69760  0.03440  0.61930  Biso   1.000  F
  F92      1.0000 0.30240  0.53440  0.88070  Biso   1.000  F
  F93      1.0000 0.37140  0.15380  0.39760  Biso   1.000  F
  F94      1.0000 0.62860  0.65380  0.10240  Biso   1.000  F
  F95      1.0000 0.62860  0.84620  0.60240  Biso   1.000  F
  F96      1.0000 0.37140  0.34620  0.89760  Biso   1.000  F
