data_image0
_cell_length_a       7.9982
_cell_length_b       8.1549
_cell_length_c       10.2163
_cell_angle_alpha    107.135
_cell_angle_beta     106.576
_cell_angle_gamma    92.857

_symmetry_space_group_name_H-M    "P 1"
_symmetry_int_tables_number       1

loop_
  _symmetry_equiv_pos_as_xyz
  'x, y, z'

loop_
  _atom_site_label
  _atom_site_occupancy
  _atom_site_fract_x
  _atom_site_fract_y
  _atom_site_fract_z
  _atom_site_thermal_displace_type
  _atom_site_B_iso_or_equiv
  _atom_site_type_symbol
  S1       1.0000 0.99690  0.50020  0.57967  Biso   1.000  S
  S2       1.0000 0.00310  0.49980  0.42033  Biso   1.000  S
  N1       1.0000 0.09260  0.39210  0.63450  Biso   1.000  N
  N2       1.0000 0.90740  0.60790  0.36550  Biso   1.000  N
  N3       1.0000 0.94860  0.46990  0.64500  Biso   1.000  N
  N4       1.0000 0.05140  0.53010  0.35500  Biso   1.000  N
  C1       1.0000 0.85980  0.60180  0.47490  Biso   1.000  C
  C2       1.0000 0.14020  0.39820  0.52510  Biso   1.000  C
  C3       1.0000 0.11530  0.46650  0.45920  Biso   1.000  C
  C4       1.0000 0.88470  0.53350  0.54080  Biso   1.000  C
  Cu1      1.0000 0.51742  0.91648  0.87452  Biso   1.000  Cu
  Cu2      1.0000 0.48258  0.08352  0.12548  Biso   1.000  Cu
  O1       1.0000 0.28220  0.97740  0.79760  Biso   1.000  O
  O2       1.0000 0.71780  0.02260  0.20240  Biso   1.000  O
  O3       1.0000 0.25270  0.12000  0.01060  Biso   1.000  O
  O4       1.0000 0.74730  0.88000  0.98940  Biso   1.000  O
  O5       1.0000 0.62720  0.14880  0.89296  Biso   1.000  O
  O6       1.0000 0.37280  0.85120  0.10704  Biso   1.000  O
  O7       1.0000 0.59720  0.29090  0.10587  Biso   1.000  O
  O8       1.0000 0.40280  0.70910  0.89413  Biso   1.000  O
  N5       1.0000 0.54620  0.78980  0.66200  Biso   1.000  N
  N6       1.0000 0.45380  0.21020  0.33800  Biso   1.000  N
  C5       1.0000 0.01650  0.09030  0.79920  Biso   1.000  C
  C6       1.0000 0.98350  0.90970  0.20080  Biso   1.000  C
  H1       1.0000 0.02220  0.20610  0.79440  Biso   1.000  H
  H2       1.0000 0.97780  0.79390  0.20560  Biso   1.000  H
  H3       1.0000 0.97430  0.00870  0.70330  Biso   1.000  H
  H4       1.0000 0.02570  0.99130  0.29670  Biso   1.000  H
  H5       1.0000 0.93740  0.07520  0.85140  Biso   1.000  H
  H6       1.0000 0.06260  0.92480  0.14860  Biso   1.000  H
  C7       1.0000 0.19810  0.05990  0.87570  Biso   1.000  C
  C8       1.0000 0.80190  0.94010  0.12430  Biso   1.000  C
  C9       1.0000 0.74190  0.44710  0.99850  Biso   1.000  C
  C10      1.0000 0.25810  0.55290  0.00150  Biso   1.000  C
  H7       1.0000 0.80210  0.51890  0.09600  Biso   1.000  H
  H8       1.0000 0.19790  0.48110  0.90400  Biso   1.000  H
  H9       1.0000 0.82580  0.41890  0.94730  Biso   1.000  H
  H10      1.0000 0.17420  0.58110  0.05270  Biso   1.000  H
  H11      1.0000 0.65740  0.50810  0.95180  Biso   1.000  H
  H12      1.0000 0.34260  0.49190  0.04820  Biso   1.000  H
  C11      1.0000 0.64840  0.28300  0.99920  Biso   1.000  C
  C12      1.0000 0.35160  0.71700  0.00080  Biso   1.000  C
  C13      1.0000 0.43520  0.81150  0.54530  Biso   1.000  C
  C14      1.0000 0.56480  0.18850  0.45470  Biso   1.000  C
  H13      1.0000 0.33790  0.86640  0.55410  Biso   1.000  H
  H14      1.0000 0.66210  0.13360  0.44590  Biso   1.000  H
  C15      1.0000 0.46000  0.75500  0.41220  Biso   1.000  C
  C16      1.0000 0.54000  0.24500  0.58780  Biso   1.000  C
  H15      1.0000 0.38060  0.77280  0.33290  Biso   1.000  H
  H16      1.0000 0.61940  0.22720  0.66710  Biso   1.000  H
  C17      1.0000 0.60100  0.67300  0.39660  Biso   1.000  C
  C18      1.0000 0.39900  0.32700  0.60340  Biso   1.000  C
  H17      1.0000 0.61850  0.63330  0.30710  Biso   1.000  H
  H18      1.0000 0.38150  0.36670  0.69290  Biso   1.000  H
  C19      1.0000 0.71700  0.65040  0.51680  Biso   1.000  C
  C20      1.0000 0.28300  0.34960  0.48320  Biso   1.000  C
  C21      1.0000 0.68340  0.71040  0.64730  Biso   1.000  C
  C22      1.0000 0.31660  0.28960  0.35270  Biso   1.000  C
  H19      1.0000 0.76080  0.69420  0.72830  Biso   1.000  H
  H20      1.0000 0.23920  0.30580  0.27170  Biso   1.000  H
