data_image0
_cell_length_a       5.2141
_cell_length_b       21.187
_cell_length_c       9.972
_cell_angle_alpha    90
_cell_angle_beta     99.461
_cell_angle_gamma    90

_symmetry_space_group_name_H-M    "P 1"
_symmetry_int_tables_number       1

loop_
  _symmetry_equiv_pos_as_xyz
  'x, y, z'

loop_
  _atom_site_label
  _atom_site_occupancy
  _atom_site_fract_x
  _atom_site_fract_y
  _atom_site_fract_z
  _atom_site_thermal_displace_type
  _atom_site_B_iso_or_equiv
  _atom_site_type_symbol
  Cu1      1.0000 0.28757  0.00292  0.86992  Biso   1.000  Cu
  Cu2      1.0000 0.21243  0.50292  0.63008  Biso   1.000  Cu
  Cu3      1.0000 0.71243  0.99708  0.13008  Biso   1.000  Cu
  Cu4      1.0000 0.78757  0.49708  0.36992  Biso   1.000  Cu
  N1       1.0000 0.47850  0.05750  0.01460  Biso   1.000  N
  N2       1.0000 0.02150  0.55750  0.48540  Biso   1.000  N
  N3       1.0000 0.52150  0.94250  0.98540  Biso   1.000  N
  N4       1.0000 0.97850  0.44250  0.51460  Biso   1.000  N
  N5       1.0000 0.11600  0.93870  0.74460  Biso   1.000  N
  N6       1.0000 0.38400  0.43870  0.75540  Biso   1.000  N
  N7       1.0000 0.88400  0.06130  0.25540  Biso   1.000  N
  N8       1.0000 0.61600  0.56130  0.24460  Biso   1.000  N
  N9       1.0000 0.48990  0.11510  0.00940  Biso   1.000  N
  N10      1.0000 0.01010  0.61510  0.49060  Biso   1.000  N
  N11      1.0000 0.51010  0.88490  0.99060  Biso   1.000  N
  N12      1.0000 0.98990  0.38490  0.50940  Biso   1.000  N
  N13      1.0000 0.99820  0.06420  0.83280  Biso   1.000  N
  N14      1.0000 0.50180  0.56420  0.66720  Biso   1.000  N
  N15      1.0000 0.00180  0.93580  0.16720  Biso   1.000  N
  N16      1.0000 0.49820  0.43580  0.33280  Biso   1.000  N
  N17      1.0000 0.67530  0.81090  0.48230  Biso   1.000  N
  N18      1.0000 0.82470  0.31090  0.01770  Biso   1.000  N
  N19      1.0000 0.32470  0.18910  0.51770  Biso   1.000  N
  N20      1.0000 0.17530  0.68910  0.98230  Biso   1.000  N
  N21      1.0000 0.49350  0.16810  0.01060  Biso   1.000  N
  N22      1.0000 0.00650  0.66810  0.48940  Biso   1.000  N
  N23      1.0000 0.50650  0.83190  0.98940  Biso   1.000  N
  N24      1.0000 0.99350  0.33190  0.51060  Biso   1.000  N
  C1       1.0000 0.82120  0.85240  0.56690  Biso   1.000  C
  C2       1.0000 0.67880  0.35240  0.93310  Biso   1.000  C
  C3       1.0000 0.17880  0.14760  0.43310  Biso   1.000  C
  C4       1.0000 0.32120  0.64760  0.06690  Biso   1.000  C
  C5       1.0000 0.99320  0.89560  0.52390  Biso   1.000  C
  C6       1.0000 0.50680  0.39560  0.97610  Biso   1.000  C
  C7       1.0000 0.00680  0.10440  0.47610  Biso   1.000  C
  C8       1.0000 0.49320  0.60440  0.02390  Biso   1.000  C
  H1       1.0000 0.01330  0.89640  0.43300  Biso   1.000  H
  H2       1.0000 0.48670  0.39640  0.06700  Biso   1.000  H
  H3       1.0000 0.98670  0.10360  0.56700  Biso   1.000  H
  H4       1.0000 0.51330  0.60360  0.93300  Biso   1.000  H
  C9       1.0000 0.80900  0.85400  0.70490  Biso   1.000  C
  C10      1.0000 0.69100  0.35400  0.79510  Biso   1.000  C
  C11      1.0000 0.19100  0.14600  0.29510  Biso   1.000  C
  C12      1.0000 0.30900  0.64600  0.20490  Biso   1.000  C
  H5       1.0000 0.70080  0.82610  0.74120  Biso   1.000  H
  H6       1.0000 0.79920  0.32610  0.75880  Biso   1.000  H
  H7       1.0000 0.29920  0.17390  0.25880  Biso   1.000  H
  H8       1.0000 0.20080  0.67390  0.24120  Biso   1.000  H
  C13      1.0000 0.95680  0.89680  0.78820  Biso   1.000  C
  C14      1.0000 0.54320  0.39680  0.71180  Biso   1.000  C
  C15      1.0000 0.04320  0.10320  0.21180  Biso   1.000  C
  C16      1.0000 0.45680  0.60320  0.28820  Biso   1.000  C
  H9       1.0000 0.94520  0.89650  0.88030  Biso   1.000  H
  H10      1.0000 0.55480  0.39650  0.61970  Biso   1.000  H
  H11      1.0000 0.05480  0.10350  0.11970  Biso   1.000  H
  H12      1.0000 0.44520  0.60350  0.38030  Biso   1.000  H
  C17      1.0000 0.69280  0.80800  0.33970  Biso   1.000  C
  C18      1.0000 0.80720  0.30800  0.16030  Biso   1.000  C
  C19      1.0000 0.30720  0.19200  0.66030  Biso   1.000  C
  C20      1.0000 0.19280  0.69200  0.83970  Biso   1.000  C
  H13      1.0000 0.69690  0.85000  0.30410  Biso   1.000  H
  H14      1.0000 0.80310  0.35000  0.19590  Biso   1.000  H
  H15      1.0000 0.30310  0.15000  0.69590  Biso   1.000  H
  H16      1.0000 0.19690  0.65000  0.80410  Biso   1.000  H
  H17      1.0000 0.54450  0.78590  0.29200  Biso   1.000  H
  H18      1.0000 0.95550  0.28590  0.20800  Biso   1.000  H
  H19      1.0000 0.45550  0.21410  0.70800  Biso   1.000  H
  H20      1.0000 0.04450  0.71410  0.79200  Biso   1.000  H
  H21      1.0000 0.84870  0.78600  0.32790  Biso   1.000  H
  H22      1.0000 0.65130  0.28600  0.17210  Biso   1.000  H
  H23      1.0000 0.15130  0.21400  0.67210  Biso   1.000  H
  H24      1.0000 0.34870  0.71400  0.82790  Biso   1.000  H
  C21      1.0000 0.13140  0.93630  0.61320  Biso   1.000  C
  C22      1.0000 0.36860  0.43630  0.88680  Biso   1.000  C
  C23      1.0000 0.86860  0.06370  0.38680  Biso   1.000  C
  C24      1.0000 0.63140  0.56370  0.11320  Biso   1.000  C
  H25      1.0000 0.24370  0.96420  0.58010  Biso   1.000  H
  H26      1.0000 0.25630  0.46420  0.91990  Biso   1.000  H
  H27      1.0000 0.75630  0.03580  0.41990  Biso   1.000  H
  H28      1.0000 0.74370  0.53580  0.08010  Biso   1.000  H
  C25      1.0000 0.50120  0.76670  0.53330  Biso   1.000  C
  C26      1.0000 0.99880  0.26670  0.96670  Biso   1.000  C
  C27      1.0000 0.49880  0.23330  0.46670  Biso   1.000  C
  C28      1.0000 0.00120  0.73330  0.03330  Biso   1.000  C
  H29      1.0000 0.59980  0.73940  0.59950  Biso   1.000  H
  H30      1.0000 0.90020  0.23940  0.90050  Biso   1.000  H
  H31      1.0000 0.40020  0.26060  0.40050  Biso   1.000  H
  H32      1.0000 0.09980  0.76060  0.09950  Biso   1.000  H
  H33      1.0000 0.41270  0.74190  0.45940  Biso   1.000  H
  H34      1.0000 0.08730  0.24190  0.04060  Biso   1.000  H
  H35      1.0000 0.58730  0.25810  0.54060  Biso   1.000  H
  H36      1.0000 0.91270  0.75810  0.95940  Biso   1.000  H
  H37      1.0000 0.37610  0.78960  0.57490  Biso   1.000  H
  H38      1.0000 0.12390  0.28960  0.92510  Biso   1.000  H
  H39      1.0000 0.62390  0.21040  0.42510  Biso   1.000  H
  H40      1.0000 0.87610  0.71040  0.07490  Biso   1.000  H
  N25      1.0000 0.78880  0.04910  0.77560  Biso   1.000  N
  N26      1.0000 0.71120  0.54910  0.72440  Biso   1.000  N
  N27      1.0000 0.21120  0.95090  0.22440  Biso   1.000  N
  N28      1.0000 0.28880  0.45090  0.27560  Biso   1.000  N
  N29      1.0000 0.57770  0.03690  0.72160  Biso   1.000  N
  N30      1.0000 0.92230  0.53690  0.77840  Biso   1.000  N
  N31      1.0000 0.42230  0.96310  0.27840  Biso   1.000  N
  N32      1.0000 0.07770  0.46310  0.22160  Biso   1.000  N
