data_image0
_cell_length_a       23.348
_cell_length_b       7.2939
_cell_length_c       22.706
_cell_angle_alpha    90
_cell_angle_beta     98.543
_cell_angle_gamma    90

_symmetry_space_group_name_H-M    "P 1"
_symmetry_int_tables_number       1

loop_
  _symmetry_equiv_pos_as_xyz
  'x, y, z'

loop_
  _atom_site_label
  _atom_site_occupancy
  _atom_site_fract_x
  _atom_site_fract_y
  _atom_site_fract_z
  _atom_site_thermal_displace_type
  _atom_site_B_iso_or_equiv
  _atom_site_type_symbol
  Cu1      1.0000 0.50000  0.50000  0.50000  Biso   1.000  Cu
  Cu2      1.0000 0.00000  0.00000  0.50000  Biso   1.000  Cu
  Cu3      1.0000 0.50000  0.50000  0.00000  Biso   1.000  Cu
  Cu4      1.0000 0.00000  0.00000  0.00000  Biso   1.000  Cu
  Cu5      1.0000 0.00000  0.45627  0.25000  Biso   1.000  Cu
  Cu6      1.0000 0.50000  0.95627  0.25000  Biso   1.000  Cu
  Cu7      1.0000 0.00000  0.54373  0.75000  Biso   1.000  Cu
  Cu8      1.0000 0.50000  0.04373  0.75000  Biso   1.000  Cu
  C1       1.0000 0.37326  0.49370  0.48528  Biso   1.000  C
  C2       1.0000 0.87326  0.99370  0.48528  Biso   1.000  C
  C3       1.0000 0.62674  0.49370  0.01472  Biso   1.000  C
  C4       1.0000 0.12674  0.99370  0.01472  Biso   1.000  C
  C5       1.0000 0.62674  0.50630  0.51472  Biso   1.000  C
  C6       1.0000 0.12674  0.00630  0.51472  Biso   1.000  C
  C7       1.0000 0.37326  0.50630  0.98528  Biso   1.000  C
  C8       1.0000 0.87326  0.00630  0.98528  Biso   1.000  C
  H1       1.0000 0.37800  0.48420  0.44550  Biso   1.000  H
  H2       1.0000 0.87800  0.98420  0.44550  Biso   1.000  H
  H3       1.0000 0.62200  0.48420  0.05450  Biso   1.000  H
  H4       1.0000 0.12200  0.98420  0.05450  Biso   1.000  H
  H5       1.0000 0.62200  0.51580  0.55450  Biso   1.000  H
  H6       1.0000 0.12200  0.01580  0.55450  Biso   1.000  H
  H7       1.0000 0.37800  0.51580  0.94550  Biso   1.000  H
  H8       1.0000 0.87800  0.01580  0.94550  Biso   1.000  H
  C9       1.0000 0.41354  0.51580  0.58336  Biso   1.000  C
  C10      1.0000 0.91354  0.01580  0.58336  Biso   1.000  C
  C11      1.0000 0.58646  0.51580  0.91664  Biso   1.000  C
  C12      1.0000 0.08646  0.01580  0.91664  Biso   1.000  C
  C13      1.0000 0.58646  0.48420  0.41664  Biso   1.000  C
  C14      1.0000 0.08646  0.98420  0.41664  Biso   1.000  C
  C15      1.0000 0.41354  0.48420  0.08336  Biso   1.000  C
  C16      1.0000 0.91354  0.98420  0.08336  Biso   1.000  C
  H9       1.0000 0.44620  0.52180  0.61220  Biso   1.000  H
  H10      1.0000 0.94620  0.02180  0.61220  Biso   1.000  H
  H11      1.0000 0.55380  0.52180  0.88780  Biso   1.000  H
  H12      1.0000 0.05380  0.02180  0.88780  Biso   1.000  H
  H13      1.0000 0.55380  0.47820  0.38780  Biso   1.000  H
  H14      1.0000 0.05380  0.97820  0.38780  Biso   1.000  H
  H15      1.0000 0.44620  0.47820  0.11220  Biso   1.000  H
  H16      1.0000 0.94620  0.97820  0.11220  Biso   1.000  H
  C17      1.0000 0.35981  0.52040  0.60102  Biso   1.000  C
  C18      1.0000 0.85981  0.02040  0.60102  Biso   1.000  C
  C19      1.0000 0.64019  0.52040  0.89898  Biso   1.000  C
  C20      1.0000 0.14019  0.02040  0.89898  Biso   1.000  C
  C21      1.0000 0.64019  0.47960  0.39898  Biso   1.000  C
  C22      1.0000 0.14019  0.97960  0.39898  Biso   1.000  C
  C23      1.0000 0.35981  0.47960  0.10102  Biso   1.000  C
  C24      1.0000 0.85981  0.97960  0.10102  Biso   1.000  C
  H17      1.0000 0.35630  0.52970  0.64120  Biso   1.000  H
  H18      1.0000 0.85630  0.02970  0.64120  Biso   1.000  H
  H19      1.0000 0.64370  0.52970  0.85880  Biso   1.000  H
  H20      1.0000 0.14370  0.02970  0.85880  Biso   1.000  H
  H21      1.0000 0.64370  0.47030  0.35880  Biso   1.000  H
  H22      1.0000 0.14370  0.97030  0.35880  Biso   1.000  H
  H23      1.0000 0.35630  0.47030  0.14120  Biso   1.000  H
  H24      1.0000 0.85630  0.97030  0.14120  Biso   1.000  H
  C25      1.0000 0.31109  0.51110  0.55856  Biso   1.000  C
  C26      1.0000 0.81109  0.01110  0.55856  Biso   1.000  C
  C27      1.0000 0.68891  0.51110  0.94144  Biso   1.000  C
  C28      1.0000 0.18891  0.01110  0.94144  Biso   1.000  C
  C29      1.0000 0.68891  0.48890  0.44144  Biso   1.000  C
  C30      1.0000 0.18891  0.98890  0.44144  Biso   1.000  C
  C31      1.0000 0.31109  0.48890  0.05856  Biso   1.000  C
  C32      1.0000 0.81109  0.98890  0.05856  Biso   1.000  C
  H25      1.0000 0.27440  0.51400  0.56990  Biso   1.000  H
  H26      1.0000 0.77440  0.01400  0.56990  Biso   1.000  H
  H27      1.0000 0.72560  0.51400  0.93010  Biso   1.000  H
  H28      1.0000 0.22560  0.01400  0.93010  Biso   1.000  H
  H29      1.0000 0.72560  0.48600  0.43010  Biso   1.000  H
  H30      1.0000 0.22560  0.98600  0.43010  Biso   1.000  H
  H31      1.0000 0.27440  0.48600  0.06990  Biso   1.000  H
  H32      1.0000 0.77440  0.98600  0.06990  Biso   1.000  H
  C33      1.0000 0.31709  0.49730  0.49876  Biso   1.000  C
  C34      1.0000 0.81709  0.99730  0.49876  Biso   1.000  C
  C35      1.0000 0.68291  0.49730  0.00124  Biso   1.000  C
  C36      1.0000 0.18291  0.99730  0.00124  Biso   1.000  C
  C37      1.0000 0.68291  0.50270  0.50124  Biso   1.000  C
  C38      1.0000 0.18291  0.00270  0.50124  Biso   1.000  C
  C39      1.0000 0.31709  0.50270  0.99876  Biso   1.000  C
  C40      1.0000 0.81709  0.00270  0.99876  Biso   1.000  C
  C41      1.0000 0.26935  0.48580  0.44975  Biso   1.000  C
  C42      1.0000 0.76935  0.98580  0.44975  Biso   1.000  C
  C43      1.0000 0.73065  0.48580  0.05025  Biso   1.000  C
  C44      1.0000 0.23065  0.98580  0.05025  Biso   1.000  C
  C45      1.0000 0.73065  0.51420  0.55025  Biso   1.000  C
  C46      1.0000 0.23065  0.01420  0.55025  Biso   1.000  C
  C47      1.0000 0.26935  0.51420  0.94975  Biso   1.000  C
  C48      1.0000 0.76935  0.01420  0.94975  Biso   1.000  C
  H33      1.0000 0.27920  0.47870  0.41160  Biso   1.000  H
  H34      1.0000 0.77920  0.97870  0.41160  Biso   1.000  H
  H35      1.0000 0.72080  0.47870  0.08840  Biso   1.000  H
  H36      1.0000 0.22080  0.97870  0.08840  Biso   1.000  H
  H37      1.0000 0.72080  0.52130  0.58840  Biso   1.000  H
  H38      1.0000 0.22080  0.02130  0.58840  Biso   1.000  H
  H39      1.0000 0.27920  0.52130  0.91160  Biso   1.000  H
  H40      1.0000 0.77920  0.02130  0.91160  Biso   1.000  H
  C49      1.0000 0.21367  0.48420  0.45391  Biso   1.000  C
  C50      1.0000 0.71367  0.98420  0.45391  Biso   1.000  C
  C51      1.0000 0.78633  0.48420  0.04609  Biso   1.000  C
  C52      1.0000 0.28633  0.98420  0.04609  Biso   1.000  C
  C53      1.0000 0.78633  0.51580  0.54609  Biso   1.000  C
  C54      1.0000 0.28633  0.01580  0.54609  Biso   1.000  C
  C55      1.0000 0.21367  0.51580  0.95391  Biso   1.000  C
  C56      1.0000 0.71367  0.01580  0.95391  Biso   1.000  C
  H41      1.0000 0.20320  0.49140  0.49180  Biso   1.000  H
  H42      1.0000 0.70320  0.99140  0.49180  Biso   1.000  H
  H43      1.0000 0.79680  0.49140  0.00820  Biso   1.000  H
  H44      1.0000 0.29680  0.99140  0.00820  Biso   1.000  H
  H45      1.0000 0.79680  0.50860  0.50820  Biso   1.000  H
  H46      1.0000 0.29680  0.00860  0.50820  Biso   1.000  H
  H47      1.0000 0.20320  0.50860  0.99180  Biso   1.000  H
  H48      1.0000 0.70320  0.00860  0.99180  Biso   1.000  H
  C57      1.0000 0.16719  0.47210  0.40334  Biso   1.000  C
  C58      1.0000 0.66719  0.97210  0.40334  Biso   1.000  C
  C59      1.0000 0.83281  0.47210  0.09666  Biso   1.000  C
  C60      1.0000 0.33281  0.97210  0.09666  Biso   1.000  C
  C61      1.0000 0.83281  0.52790  0.59666  Biso   1.000  C
  C62      1.0000 0.33281  0.02790  0.59666  Biso   1.000  C
  C63      1.0000 0.16719  0.52790  0.90334  Biso   1.000  C
  C64      1.0000 0.66719  0.02790  0.90334  Biso   1.000  C
  C65      1.0000 0.17552  0.43850  0.34539  Biso   1.000  C
  C66      1.0000 0.67552  0.93850  0.34539  Biso   1.000  C
  C67      1.0000 0.82448  0.43850  0.15461  Biso   1.000  C
  C68      1.0000 0.32448  0.93850  0.15461  Biso   1.000  C
  C69      1.0000 0.82448  0.56150  0.65461  Biso   1.000  C
  C70      1.0000 0.32448  0.06150  0.65461  Biso   1.000  C
  C71      1.0000 0.17552  0.56150  0.84539  Biso   1.000  C
  C72      1.0000 0.67552  0.06150  0.84539  Biso   1.000  C
  H49      1.0000 0.21260  0.42150  0.33590  Biso   1.000  H
  H50      1.0000 0.71260  0.92150  0.33590  Biso   1.000  H
  H51      1.0000 0.78740  0.42150  0.16410  Biso   1.000  H
  H52      1.0000 0.28740  0.92150  0.16410  Biso   1.000  H
  H53      1.0000 0.78740  0.57850  0.66410  Biso   1.000  H
  H54      1.0000 0.28740  0.07850  0.66410  Biso   1.000  H
  H55      1.0000 0.21260  0.57850  0.83590  Biso   1.000  H
  H56      1.0000 0.71260  0.07850  0.83590  Biso   1.000  H
  C73      1.0000 0.12821  0.43070  0.30229  Biso   1.000  C
  C74      1.0000 0.62821  0.93070  0.30229  Biso   1.000  C
  C75      1.0000 0.87179  0.43070  0.19771  Biso   1.000  C
  C76      1.0000 0.37179  0.93070  0.19771  Biso   1.000  C
  C77      1.0000 0.87179  0.56930  0.69771  Biso   1.000  C
  C78      1.0000 0.37179  0.06930  0.69771  Biso   1.000  C
  C79      1.0000 0.12821  0.56930  0.80229  Biso   1.000  C
  C80      1.0000 0.62821  0.06930  0.80229  Biso   1.000  C
  H57      1.0000 0.13360  0.40620  0.26330  Biso   1.000  H
  H58      1.0000 0.63360  0.90620  0.26330  Biso   1.000  H
  H59      1.0000 0.86640  0.40620  0.23670  Biso   1.000  H
  H60      1.0000 0.36640  0.90620  0.23670  Biso   1.000  H
  H61      1.0000 0.86640  0.59380  0.73670  Biso   1.000  H
  H62      1.0000 0.36640  0.09380  0.73670  Biso   1.000  H
  H63      1.0000 0.13360  0.59380  0.76330  Biso   1.000  H
  H64      1.0000 0.63360  0.09380  0.76330  Biso   1.000  H
  C81      1.0000 0.07002  0.48420  0.37062  Biso   1.000  C
  C82      1.0000 0.57002  0.98420  0.37062  Biso   1.000  C
  C83      1.0000 0.92998  0.48420  0.12938  Biso   1.000  C
  C84      1.0000 0.42998  0.98420  0.12938  Biso   1.000  C
  C85      1.0000 0.92998  0.51580  0.62938  Biso   1.000  C
  C86      1.0000 0.42998  0.01580  0.62938  Biso   1.000  C
  C87      1.0000 0.07002  0.51580  0.87062  Biso   1.000  C
  C88      1.0000 0.57002  0.01580  0.87062  Biso   1.000  C
  H65      1.0000 0.03280  0.49900  0.38000  Biso   1.000  H
  H66      1.0000 0.53280  0.99900  0.38000  Biso   1.000  H
  H67      1.0000 0.96720  0.49900  0.12000  Biso   1.000  H
  H68      1.0000 0.46720  0.99900  0.12000  Biso   1.000  H
  H69      1.0000 0.96720  0.50100  0.62000  Biso   1.000  H
  H70      1.0000 0.46720  0.00100  0.62000  Biso   1.000  H
  H71      1.0000 0.03280  0.50100  0.88000  Biso   1.000  H
  H72      1.0000 0.53280  0.00100  0.88000  Biso   1.000  H
  N1       1.0000 0.42059  0.50290  0.52580  Biso   1.000  N
  N2       1.0000 0.92059  0.00290  0.52580  Biso   1.000  N
  N3       1.0000 0.57941  0.50290  0.97420  Biso   1.000  N
  N4       1.0000 0.07941  0.00290  0.97420  Biso   1.000  N
  N5       1.0000 0.57941  0.49710  0.47420  Biso   1.000  N
  N6       1.0000 0.07941  0.99710  0.47420  Biso   1.000  N
  N7       1.0000 0.42059  0.49710  0.02580  Biso   1.000  N
  N8       1.0000 0.92059  0.99710  0.02580  Biso   1.000  N
  N9       1.0000 0.07412  0.45720  0.31396  Biso   1.000  N
  N10      1.0000 0.57412  0.95720  0.31396  Biso   1.000  N
  N11      1.0000 0.92588  0.45720  0.18604  Biso   1.000  N
  N12      1.0000 0.42588  0.95720  0.18604  Biso   1.000  N
  N13      1.0000 0.92588  0.54280  0.68604  Biso   1.000  N
  N14      1.0000 0.42588  0.04280  0.68604  Biso   1.000  N
  N15      1.0000 0.07412  0.54280  0.81396  Biso   1.000  N
  N16      1.0000 0.57412  0.04280  0.81396  Biso   1.000  N
  N17      1.0000 0.11318  0.49250  0.41571  Biso   1.000  N
  N18      1.0000 0.61318  0.99250  0.41571  Biso   1.000  N
  N19      1.0000 0.88682  0.49250  0.08429  Biso   1.000  N
  N20      1.0000 0.38682  0.99250  0.08429  Biso   1.000  N
  N21      1.0000 0.88682  0.50750  0.58429  Biso   1.000  N
  N22      1.0000 0.38682  0.00750  0.58429  Biso   1.000  N
  N23      1.0000 0.11318  0.50750  0.91571  Biso   1.000  N
  N24      1.0000 0.61318  0.00750  0.91571  Biso   1.000  N
  O1       1.0000 0.52412  0.31140  0.56336  Biso   1.000  O
  O2       1.0000 0.02412  0.81140  0.56336  Biso   1.000  O
  O3       1.0000 0.47588  0.31140  0.93664  Biso   1.000  O
  O4       1.0000 0.97588  0.81140  0.93664  Biso   1.000  O
  O5       1.0000 0.47588  0.68860  0.43664  Biso   1.000  O
  O6       1.0000 0.97588  0.18860  0.43664  Biso   1.000  O
  O7       1.0000 0.52412  0.68860  0.06336  Biso   1.000  O
  O8       1.0000 0.02412  0.18860  0.06336  Biso   1.000  O
  H73      1.0000 0.54120  0.22700  0.55140  Biso   1.000  H
  H74      1.0000 0.04120  0.72700  0.55140  Biso   1.000  H
  H75      1.0000 0.45880  0.22700  0.94860  Biso   1.000  H
  H76      1.0000 0.95880  0.72700  0.94860  Biso   1.000  H
  H77      1.0000 0.45880  0.77300  0.44860  Biso   1.000  H
  H78      1.0000 0.95880  0.27300  0.44860  Biso   1.000  H
  H79      1.0000 0.54120  0.77300  0.05140  Biso   1.000  H
  H80      1.0000 0.04120  0.27300  0.05140  Biso   1.000  H
  H81      1.0000 0.54180  0.34400  0.59680  Biso   1.000  H
  H82      1.0000 0.04180  0.84400  0.59680  Biso   1.000  H
  H83      1.0000 0.45820  0.34400  0.90320  Biso   1.000  H
  H84      1.0000 0.95820  0.84400  0.90320  Biso   1.000  H
  H85      1.0000 0.45820  0.65600  0.40320  Biso   1.000  H
  H86      1.0000 0.95820  0.15600  0.40320  Biso   1.000  H
  H87      1.0000 0.54180  0.65600  0.09680  Biso   1.000  H
  H88      1.0000 0.04180  0.15600  0.09680  Biso   1.000  H
  O9       1.0000 0.52473  0.73440  0.56637  Biso   1.000  O
  O10      1.0000 0.02473  0.23440  0.56637  Biso   1.000  O
  O11      1.0000 0.47527  0.73440  0.93363  Biso   1.000  O
  O12      1.0000 0.97527  0.23440  0.93363  Biso   1.000  O
  O13      1.0000 0.47527  0.26560  0.43363  Biso   1.000  O
  O14      1.0000 0.97527  0.76560  0.43363  Biso   1.000  O
  O15      1.0000 0.52473  0.26560  0.06637  Biso   1.000  O
  O16      1.0000 0.02473  0.76560  0.06637  Biso   1.000  O
  H89      1.0000 0.53660  0.82500  0.55270  Biso   1.000  H
  H90      1.0000 0.03660  0.32500  0.55270  Biso   1.000  H
  H91      1.0000 0.46340  0.82500  0.94730  Biso   1.000  H
  H92      1.0000 0.96340  0.32500  0.94730  Biso   1.000  H
  H93      1.0000 0.46340  0.17500  0.44730  Biso   1.000  H
  H94      1.0000 0.96340  0.67500  0.44730  Biso   1.000  H
  H95      1.0000 0.53660  0.17500  0.05270  Biso   1.000  H
  H96      1.0000 0.03660  0.67500  0.05270  Biso   1.000  H
  H97      1.0000 0.54400  0.71400  0.59950  Biso   1.000  H
  H98      1.0000 0.04400  0.21400  0.59950  Biso   1.000  H
  H99      1.0000 0.45600  0.71400  0.90050  Biso   1.000  H
  H100     1.0000 0.95600  0.21400  0.90050  Biso   1.000  H
  H101     1.0000 0.45600  0.28600  0.40050  Biso   1.000  H
  H102     1.0000 0.95600  0.78600  0.40050  Biso   1.000  H
  H103     1.0000 0.54400  0.28600  0.09950  Biso   1.000  H
  H104     1.0000 0.04400  0.78600  0.09950  Biso   1.000  H
  O17      1.0000 0.94099  0.46250  0.32228  Biso   1.000  O
  O18      1.0000 0.44099  0.96250  0.32228  Biso   1.000  O
  O19      1.0000 0.05901  0.46250  0.17772  Biso   1.000  O
  O20      1.0000 0.55901  0.96250  0.17772  Biso   1.000  O
  O21      1.0000 0.05901  0.53750  0.67772  Biso   1.000  O
  O22      1.0000 0.55901  0.03750  0.67772  Biso   1.000  O
  O23      1.0000 0.94099  0.53750  0.82228  Biso   1.000  O
  O24      1.0000 0.44099  0.03750  0.82228  Biso   1.000  O
  H105     1.0000 0.92290  0.37300  0.32660  Biso   1.000  H
  H106     1.0000 0.42290  0.87300  0.32660  Biso   1.000  H
  H107     1.0000 0.07710  0.37300  0.17340  Biso   1.000  H
  H108     1.0000 0.57710  0.87300  0.17340  Biso   1.000  H
  H109     1.0000 0.07710  0.62700  0.67340  Biso   1.000  H
  H110     1.0000 0.57710  0.12700  0.67340  Biso   1.000  H
  H111     1.0000 0.92290  0.62700  0.82660  Biso   1.000  H
  H112     1.0000 0.42290  0.12700  0.82660  Biso   1.000  H
  H113     1.0000 0.92110  0.55500  0.32710  Biso   1.000  H
  H114     1.0000 0.42110  0.05500  0.32710  Biso   1.000  H
  H115     1.0000 0.07890  0.55500  0.17290  Biso   1.000  H
  H116     1.0000 0.57890  0.05500  0.17290  Biso   1.000  H
  H117     1.0000 0.07890  0.44500  0.67290  Biso   1.000  H
  H118     1.0000 0.57890  0.94500  0.67290  Biso   1.000  H
  H119     1.0000 0.92110  0.44500  0.82710  Biso   1.000  H
  H120     1.0000 0.42110  0.94500  0.82710  Biso   1.000  H
  O25      1.0000 0.00000  0.18980  0.25000  Biso   1.000  O
  O26      1.0000 0.50000  0.68980  0.25000  Biso   1.000  O
  O27      1.0000 0.00000  0.81020  0.75000  Biso   1.000  O
  O28      1.0000 0.50000  0.31020  0.75000  Biso   1.000  O
  H121     1.0000 0.02900  0.12900  0.25070  Biso   1.000  H
  H122     1.0000 0.52900  0.62900  0.25070  Biso   1.000  H
  H123     1.0000 0.97100  0.12900  0.24930  Biso   1.000  H
  H124     1.0000 0.47100  0.62900  0.24930  Biso   1.000  H
  H125     1.0000 0.97100  0.87100  0.74930  Biso   1.000  H
  H126     1.0000 0.47100  0.37100  0.74930  Biso   1.000  H
  H127     1.0000 0.02900  0.87100  0.75070  Biso   1.000  H
  H128     1.0000 0.52900  0.37100  0.75070  Biso   1.000  H
  O29      1.0000 0.00000  0.72350  0.25000  Biso   1.000  O
  O30      1.0000 0.50000  0.22350  0.25000  Biso   1.000  O
  O31      1.0000 0.00000  0.27650  0.75000  Biso   1.000  O
  O32      1.0000 0.50000  0.77650  0.75000  Biso   1.000  O
  H129     1.0000 0.02870  0.78600  0.25010  Biso   1.000  H
  H130     1.0000 0.52870  0.28600  0.25010  Biso   1.000  H
  H131     1.0000 0.97130  0.78600  0.24990  Biso   1.000  H
  H132     1.0000 0.47130  0.28600  0.24990  Biso   1.000  H
  H133     1.0000 0.97130  0.21400  0.74990  Biso   1.000  H
  H134     1.0000 0.47130  0.71400  0.74990  Biso   1.000  H
  H135     1.0000 0.02870  0.21400  0.75010  Biso   1.000  H
  H136     1.0000 0.52870  0.71400  0.75010  Biso   1.000  H
  O33      1.0000 0.73497  0.82260  0.19283  Biso   1.000  O
  O34      1.0000 0.23497  0.32260  0.19283  Biso   1.000  O
  O35      1.0000 0.26503  0.82260  0.30717  Biso   1.000  O
  O36      1.0000 0.76503  0.32260  0.30717  Biso   1.000  O
  O37      1.0000 0.26503  0.17740  0.80717  Biso   1.000  O
  O38      1.0000 0.76503  0.67740  0.80717  Biso   1.000  O
  O39      1.0000 0.73497  0.17740  0.69283  Biso   1.000  O
  O40      1.0000 0.23497  0.67740  0.69283  Biso   1.000  O
  H137     1.0000 0.75930  0.87100  0.21840  Biso   1.000  H
  H138     1.0000 0.25930  0.37100  0.21840  Biso   1.000  H
  H139     1.0000 0.24070  0.87100  0.28160  Biso   1.000  H
  H140     1.0000 0.74070  0.37100  0.28160  Biso   1.000  H
  H141     1.0000 0.24070  0.12900  0.78160  Biso   1.000  H
  H142     1.0000 0.74070  0.62900  0.78160  Biso   1.000  H
  H143     1.0000 0.75930  0.12900  0.71840  Biso   1.000  H
  H144     1.0000 0.25930  0.62900  0.71840  Biso   1.000  H
  H145     1.0000 0.72300  0.72300  0.20590  Biso   1.000  H
  H146     1.0000 0.22300  0.22300  0.20590  Biso   1.000  H
  H147     1.0000 0.27700  0.72300  0.29410  Biso   1.000  H
  H148     1.0000 0.77700  0.22300  0.29410  Biso   1.000  H
  H149     1.0000 0.27700  0.27700  0.79410  Biso   1.000  H
  H150     1.0000 0.77700  0.77700  0.79410  Biso   1.000  H
  H151     1.0000 0.72300  0.27700  0.70590  Biso   1.000  H
  H152     1.0000 0.22300  0.77700  0.70590  Biso   1.000  H
  O41      1.0000 0.08531  0.53150  0.53070  Biso   1.000  O
  O42      1.0000 0.58531  0.03150  0.53070  Biso   1.000  O
  O43      1.0000 0.91469  0.53150  0.96930  Biso   1.000  O
  O44      1.0000 0.41469  0.03150  0.96930  Biso   1.000  O
  O45      1.0000 0.91469  0.46850  0.46930  Biso   1.000  O
  O46      1.0000 0.41469  0.96850  0.46930  Biso   1.000  O
  O47      1.0000 0.08531  0.46850  0.03070  Biso   1.000  O
  O48      1.0000 0.58531  0.96850  0.03070  Biso   1.000  O
  H153     1.0000 0.09050  0.52700  0.49630  Biso   1.000  H
  H154     1.0000 0.59050  0.02700  0.49630  Biso   1.000  H
  H155     1.0000 0.90950  0.52700  0.00370  Biso   1.000  H
  H156     1.0000 0.40950  0.02700  0.00370  Biso   1.000  H
  H157     1.0000 0.90950  0.47300  0.50370  Biso   1.000  H
  H158     1.0000 0.40950  0.97300  0.50370  Biso   1.000  H
  H159     1.0000 0.09050  0.47300  0.99630  Biso   1.000  H
  H160     1.0000 0.59050  0.97300  0.99630  Biso   1.000  H
  H161     1.0000 0.11570  0.52100  0.55350  Biso   1.000  H
  H162     1.0000 0.61570  0.02100  0.55350  Biso   1.000  H
  H163     1.0000 0.88430  0.52100  0.94650  Biso   1.000  H
  H164     1.0000 0.38430  0.02100  0.94650  Biso   1.000  H
  H165     1.0000 0.88430  0.47900  0.44650  Biso   1.000  H
  H166     1.0000 0.38430  0.97900  0.44650  Biso   1.000  H
  H167     1.0000 0.11570  0.47900  0.05350  Biso   1.000  H
  H168     1.0000 0.61570  0.97900  0.05350  Biso   1.000  H
  O49      1.0000 0.18176  0.55180  0.10980  Biso   1.000  O
  O50      1.0000 0.68176  0.05180  0.10980  Biso   1.000  O
  O51      1.0000 0.81824  0.55180  0.39020  Biso   1.000  O
  O52      1.0000 0.31824  0.05180  0.39020  Biso   1.000  O
  O53      1.0000 0.81824  0.44820  0.89020  Biso   1.000  O
  O54      1.0000 0.31824  0.94820  0.89020  Biso   1.000  O
  O55      1.0000 0.18176  0.44820  0.60980  Biso   1.000  O
  O56      1.0000 0.68176  0.94820  0.60980  Biso   1.000  O
  H169     1.0000 0.16960  0.63500  0.13140  Biso   1.000  H
  H170     1.0000 0.66960  0.13500  0.13140  Biso   1.000  H
  H171     1.0000 0.83040  0.63500  0.36860  Biso   1.000  H
  H172     1.0000 0.33040  0.13500  0.36860  Biso   1.000  H
  H173     1.0000 0.83040  0.36500  0.86860  Biso   1.000  H
  H174     1.0000 0.33040  0.86500  0.86860  Biso   1.000  H
  H175     1.0000 0.16960  0.36500  0.63140  Biso   1.000  H
  H176     1.0000 0.66960  0.86500  0.63140  Biso   1.000  H
  H177     1.0000 0.19170  0.46400  0.13420  Biso   1.000  H
  H178     1.0000 0.69170  0.96400  0.13420  Biso   1.000  H
  H179     1.0000 0.80830  0.46400  0.36580  Biso   1.000  H
  H180     1.0000 0.30830  0.96400  0.36580  Biso   1.000  H
  H181     1.0000 0.80830  0.53600  0.86580  Biso   1.000  H
  H182     1.0000 0.30830  0.03600  0.86580  Biso   1.000  H
  H183     1.0000 0.19170  0.53600  0.63420  Biso   1.000  H
  H184     1.0000 0.69170  0.03600  0.63420  Biso   1.000  H
  O57      1.0000 0.08987  0.95510  0.24974  Biso   1.000  O
  O58      1.0000 0.58987  0.45510  0.24974  Biso   1.000  O
  O59      1.0000 0.91013  0.95510  0.25026  Biso   1.000  O
  O60      1.0000 0.41013  0.45510  0.25026  Biso   1.000  O
  O61      1.0000 0.91013  0.04490  0.75026  Biso   1.000  O
  O62      1.0000 0.41013  0.54490  0.75026  Biso   1.000  O
  O63      1.0000 0.08987  0.04490  0.74974  Biso   1.000  O
  O64      1.0000 0.58987  0.54490  0.74974  Biso   1.000  O
  O65      1.0000 0.11361  0.79530  0.16400  Biso   1.000  O
  O66      1.0000 0.61361  0.29530  0.16400  Biso   1.000  O
  O67      1.0000 0.88639  0.79530  0.33600  Biso   1.000  O
  O68      1.0000 0.38639  0.29530  0.33600  Biso   1.000  O
  O69      1.0000 0.88639  0.20470  0.83600  Biso   1.000  O
  O70      1.0000 0.38639  0.70470  0.83600  Biso   1.000  O
  O71      1.0000 0.11361  0.20470  0.66400  Biso   1.000  O
  O72      1.0000 0.61361  0.70470  0.66400  Biso   1.000  O
  O73      1.0000 0.10267  0.12040  0.16067  Biso   1.000  O
  O74      1.0000 0.60267  0.62040  0.16067  Biso   1.000  O
  O75      1.0000 0.89733  0.12040  0.33933  Biso   1.000  O
  O76      1.0000 0.39733  0.62040  0.33933  Biso   1.000  O
  O77      1.0000 0.89733  0.87960  0.83933  Biso   1.000  O
  O78      1.0000 0.39733  0.37960  0.83933  Biso   1.000  O
  O79      1.0000 0.10267  0.87960  0.66067  Biso   1.000  O
  O80      1.0000 0.60267  0.37960  0.66067  Biso   1.000  O
  O81      1.0000 0.18416  0.98610  0.22063  Biso   1.000  O
  O82      1.0000 0.68416  0.48610  0.22063  Biso   1.000  O
  O83      1.0000 0.81584  0.98610  0.27937  Biso   1.000  O
  O84      1.0000 0.31584  0.48610  0.27937  Biso   1.000  O
  O85      1.0000 0.81584  0.01390  0.77937  Biso   1.000  O
  O86      1.0000 0.31584  0.51390  0.77937  Biso   1.000  O
  O87      1.0000 0.18416  0.01390  0.72063  Biso   1.000  O
  O88      1.0000 0.68416  0.51390  0.72063  Biso   1.000  O
  S1       1.0000 0.12267  0.96380  0.19953  Biso   1.000  S
  S2       1.0000 0.62267  0.46380  0.19953  Biso   1.000  S
  S3       1.0000 0.87733  0.96380  0.30047  Biso   1.000  S
  S4       1.0000 0.37733  0.46380  0.30047  Biso   1.000  S
  S5       1.0000 0.87733  0.03620  0.80047  Biso   1.000  S
  S6       1.0000 0.37733  0.53620  0.80047  Biso   1.000  S
  S7       1.0000 0.12267  0.03620  0.69953  Biso   1.000  S
  S8       1.0000 0.62267  0.53620  0.69953  Biso   1.000  S
