data_image0
_cell_length_a       7.067
_cell_length_b       14.125
_cell_length_c       10.167
_cell_angle_alpha    90
_cell_angle_beta     93.27
_cell_angle_gamma    90

_symmetry_space_group_name_H-M    "P 1"
_symmetry_int_tables_number       1

loop_
  _symmetry_equiv_pos_as_xyz
  'x, y, z'

loop_
  _atom_site_label
  _atom_site_occupancy
  _atom_site_fract_x
  _atom_site_fract_y
  _atom_site_fract_z
  _atom_site_thermal_displace_type
  _atom_site_B_iso_or_equiv
  _atom_site_type_symbol
  Cu1      1.0000 0.04772  0.28310  0.68804  Biso   1.000  Cu
  Cu2      1.0000 0.45228  0.78310  0.81196  Biso   1.000  Cu
  Cu3      1.0000 0.95228  0.71690  0.31196  Biso   1.000  Cu
  Cu4      1.0000 0.54772  0.21690  0.18804  Biso   1.000  Cu
  C1       1.0000 0.00480  0.37687  0.91450  Biso   1.000  C
  C2       1.0000 0.49520  0.87687  0.58550  Biso   1.000  C
  C3       1.0000 0.99520  0.62313  0.08550  Biso   1.000  C
  C4       1.0000 0.50480  0.12313  0.41450  Biso   1.000  C
  C5       1.0000 0.94840  0.45333  0.01110  Biso   1.000  C
  C6       1.0000 0.55160  0.95333  0.48890  Biso   1.000  C
  C7       1.0000 0.05160  0.54667  0.98890  Biso   1.000  C
  C8       1.0000 0.44840  0.04667  0.51110  Biso   1.000  C
  H1       1.0000 0.98240  0.43140  0.10090  Biso   1.000  H
  H2       1.0000 0.51760  0.93140  0.39910  Biso   1.000  H
  H3       1.0000 0.01760  0.56860  0.89910  Biso   1.000  H
  H4       1.0000 0.48240  0.06860  0.60090  Biso   1.000  H
  C9       1.0000 0.73130  0.46695  0.99690  Biso   1.000  C
  C10      1.0000 0.76870  0.96695  0.50310  Biso   1.000  C
  C11      1.0000 0.26870  0.53305  0.00310  Biso   1.000  C
  C12      1.0000 0.23130  0.03305  0.49690  Biso   1.000  C
  H5       1.0000 0.69290  0.51270  0.06130  Biso   1.000  H
  H6       1.0000 0.80710  0.01270  0.43870  Biso   1.000  H
  H7       1.0000 0.30710  0.48730  0.93870  Biso   1.000  H
  H8       1.0000 0.19290  0.98730  0.56130  Biso   1.000  H
  H9       1.0000 0.69580  0.49150  0.90980  Biso   1.000  H
  H10      1.0000 0.80420  0.99150  0.59020  Biso   1.000  H
  H11      1.0000 0.30420  0.50850  0.09020  Biso   1.000  H
  H12      1.0000 0.19580  0.00850  0.40980  Biso   1.000  H
  C13      1.0000 0.63010  0.37361  0.01710  Biso   1.000  C
  C14      1.0000 0.86990  0.87361  0.48290  Biso   1.000  C
  C15      1.0000 0.36990  0.62639  0.98290  Biso   1.000  C
  C16      1.0000 0.13010  0.12639  0.51710  Biso   1.000  C
  O1       1.0000 0.98930  0.39851  0.79175  Biso   1.000  O
  O2       1.0000 0.51070  0.89851  0.70825  Biso   1.000  O
  O3       1.0000 0.01070  0.60149  0.20825  Biso   1.000  O
  O4       1.0000 0.48930  0.10149  0.29175  Biso   1.000  O
  O5       1.0000 0.05640  0.29843  0.95450  Biso   1.000  O
  O6       1.0000 0.44360  0.79843  0.54550  Biso   1.000  O
  O7       1.0000 0.94360  0.70157  0.04550  Biso   1.000  O
  O8       1.0000 0.55640  0.20157  0.45450  Biso   1.000  O
  O9       1.0000 0.55940  0.32955  0.92150  Biso   1.000  O
  O10      1.0000 0.94060  0.82955  0.57850  Biso   1.000  O
  O11      1.0000 0.44060  0.67045  0.07850  Biso   1.000  O
  O12      1.0000 0.05940  0.17045  0.42150  Biso   1.000  O
  O13      1.0000 0.63050  0.34522  0.13606  Biso   1.000  O
  O14      1.0000 0.86950  0.84522  0.36394  Biso   1.000  O
  O15      1.0000 0.36950  0.65478  0.86394  Biso   1.000  O
  O16      1.0000 0.13050  0.15478  0.63606  Biso   1.000  O
  O17      1.0000 0.78710  0.23352  0.70860  Biso   1.000  O
  O18      1.0000 0.71290  0.73352  0.79140  Biso   1.000  O
  O19      1.0000 0.21290  0.76648  0.29140  Biso   1.000  O
  O20      1.0000 0.28710  0.26648  0.20860  Biso   1.000  O
  H13      1.0000 0.72000  0.27900  0.76000  Biso   1.000  H
  H14      1.0000 0.78000  0.77900  0.74000  Biso   1.000  H
  H15      1.0000 0.28000  0.72100  0.24000  Biso   1.000  H
  H16      1.0000 0.22000  0.22100  0.26000  Biso   1.000  H
  H17      1.0000 0.71900  0.22300  0.62400  Biso   1.000  H
  H18      1.0000 0.78100  0.72300  0.87600  Biso   1.000  H
  H19      1.0000 0.28100  0.77700  0.37600  Biso   1.000  H
  H20      1.0000 0.21900  0.27700  0.12400  Biso   1.000  H
  O21      1.0000 0.94040  0.35293  0.47880  Biso   1.000  O
  O22      1.0000 0.55960  0.85293  0.02120  Biso   1.000  O
  O23      1.0000 0.05960  0.64707  0.52120  Biso   1.000  O
  O24      1.0000 0.44040  0.14707  0.97880  Biso   1.000  O
  H21      1.0000 0.94300  0.29800  0.44600  Biso   1.000  H
  H22      1.0000 0.55700  0.79800  0.05400  Biso   1.000  H
  H23      1.0000 0.05700  0.70200  0.55400  Biso   1.000  H
  H24      1.0000 0.44300  0.20200  0.94600  Biso   1.000  H
  H25      1.0000 0.84400  0.38500  0.46100  Biso   1.000  H
  H26      1.0000 0.65600  0.88500  0.03900  Biso   1.000  H
  H27      1.0000 0.15600  0.61500  0.53900  Biso   1.000  H
  H28      1.0000 0.34400  0.11500  0.96100  Biso   1.000  H
  O25      1.0000 0.30790  0.33251  0.66230  Biso   1.000  O
  O26      1.0000 0.19210  0.83251  0.83770  Biso   1.000  O
  O27      1.0000 0.69210  0.66749  0.33770  Biso   1.000  O
  O28      1.0000 0.80790  0.16749  0.16230  Biso   1.000  O
  H29      1.0000 0.37500  0.29900  0.59700  Biso   1.000  H
  H30      1.0000 0.12500  0.79900  0.90300  Biso   1.000  H
  H31      1.0000 0.62500  0.70100  0.40300  Biso   1.000  H
  H32      1.0000 0.87500  0.20100  0.09700  Biso   1.000  H
  H33      1.0000 0.38400  0.33500  0.74800  Biso   1.000  H
  H34      1.0000 0.11600  0.83500  0.75200  Biso   1.000  H
  H35      1.0000 0.61600  0.66500  0.25200  Biso   1.000  H
  H36      1.0000 0.88400  0.16500  0.24800  Biso   1.000  H
  O29      1.0000 0.21190  0.45680  0.35280  Biso   1.000  O
  O30      1.0000 0.28810  0.95680  0.14720  Biso   1.000  O
  O31      1.0000 0.78810  0.54320  0.64720  Biso   1.000  O
  O32      1.0000 0.71190  0.04320  0.85280  Biso   1.000  O
  H37      1.0000 0.17200  0.50500  0.31200  Biso   1.000  H
  H38      1.0000 0.32800  0.00500  0.18800  Biso   1.000  H
  H39      1.0000 0.82800  0.49500  0.68800  Biso   1.000  H
  H40      1.0000 0.67200  0.99500  0.81200  Biso   1.000  H
  H41      1.0000 0.13100  0.42900  0.40100  Biso   1.000  H
  H42      1.0000 0.36900  0.92900  0.09900  Biso   1.000  H
  H43      1.0000 0.86900  0.57100  0.59900  Biso   1.000  H
  H44      1.0000 0.63100  0.07100  0.90100  Biso   1.000  H
  O33      1.0000 0.11700  0.04480  0.86830  Biso   1.000  O
  O34      1.0000 0.38300  0.54480  0.63170  Biso   1.000  O
  O35      1.0000 0.88300  0.95520  0.13170  Biso   1.000  O
  O36      1.0000 0.61700  0.45520  0.36830  Biso   1.000  O
  H45      1.0000 0.12600  0.07800  0.80100  Biso   1.000  H
  H46      1.0000 0.37400  0.57800  0.69900  Biso   1.000  H
  H47      1.0000 0.87400  0.92200  0.19900  Biso   1.000  H
  H48      1.0000 0.62600  0.42200  0.30100  Biso   1.000  H
  H49      1.0000 0.00900  0.04100  0.89300  Biso   1.000  H
  H50      1.0000 0.49100  0.54100  0.60700  Biso   1.000  H
  H51      1.0000 0.99100  0.95900  0.10700  Biso   1.000  H
  H52      1.0000 0.50900  0.45900  0.39300  Biso   1.000  H
