data_image0
_cell_length_a       10.037
_cell_length_b       32.631
_cell_length_c       8.6398
_cell_angle_alpha    90
_cell_angle_beta     115.3
_cell_angle_gamma    90

_symmetry_space_group_name_H-M    "P 1"
_symmetry_int_tables_number       1

loop_
  _symmetry_equiv_pos_as_xyz
  'x, y, z'

loop_
  _atom_site_label
  _atom_site_occupancy
  _atom_site_fract_x
  _atom_site_fract_y
  _atom_site_fract_z
  _atom_site_thermal_displace_type
  _atom_site_B_iso_or_equiv
  _atom_site_type_symbol
  Cu1      1.0000 0.07875  0.12612  0.41578  Biso   1.000  Cu
  Cu2      1.0000 0.92125  0.62612  0.08422  Biso   1.000  Cu
  Cu3      1.0000 0.92125  0.87388  0.58422  Biso   1.000  Cu
  Cu4      1.0000 0.07875  0.37388  0.91578  Biso   1.000  Cu
  Cl1      1.0000 0.08491  0.12560  0.14830  Biso   1.000  Cl
  Cl2      1.0000 0.91509  0.62560  0.35170  Biso   1.000  Cl
  Cl3      1.0000 0.91509  0.87440  0.85170  Biso   1.000  Cl
  Cl4      1.0000 0.08491  0.37440  0.64830  Biso   1.000  Cl
  Cl5      1.0000 0.83562  0.12057  0.38850  Biso   1.000  Cl
  Cl6      1.0000 0.16438  0.62057  0.11150  Biso   1.000  Cl
  Cl7      1.0000 0.16438  0.87943  0.61150  Biso   1.000  Cl
  Cl8      1.0000 0.83562  0.37943  0.88850  Biso   1.000  Cl
  N1       1.0000 0.10670  0.06415  0.42080  Biso   1.000  N
  N2       1.0000 0.89330  0.56415  0.07920  Biso   1.000  N
  N3       1.0000 0.89330  0.93585  0.57920  Biso   1.000  N
  N4       1.0000 0.10670  0.43585  0.92080  Biso   1.000  N
  N5       1.0000 0.23310  0.04822  0.53300  Biso   1.000  N
  N6       1.0000 0.76690  0.54822  0.96700  Biso   1.000  N
  N7       1.0000 0.76690  0.95178  0.46700  Biso   1.000  N
  N8       1.0000 0.23310  0.45178  0.03300  Biso   1.000  N
  N9       1.0000 0.23050  0.00800  0.49590  Biso   1.000  N
  N10      1.0000 0.76950  0.50800  0.00410  Biso   1.000  N
  N11      1.0000 0.76950  0.99200  0.50410  Biso   1.000  N
  N12      1.0000 0.23050  0.49200  0.99590  Biso   1.000  N
  N13      1.0000 0.25540  0.12909  0.65030  Biso   1.000  N
  N14      1.0000 0.74460  0.62909  0.84970  Biso   1.000  N
  N15      1.0000 0.74460  0.87091  0.34970  Biso   1.000  N
  N16      1.0000 0.25540  0.37091  0.15030  Biso   1.000  N
  N17      1.0000 0.25200  0.13099  0.79980  Biso   1.000  N
  N18      1.0000 0.74800  0.63099  0.70020  Biso   1.000  N
  N19      1.0000 0.74800  0.86901  0.20020  Biso   1.000  N
  N20      1.0000 0.25200  0.36901  0.29980  Biso   1.000  N
  N21      1.0000 0.39120  0.13020  0.91970  Biso   1.000  N
  N22      1.0000 0.60880  0.63020  0.58030  Biso   1.000  N
  N23      1.0000 0.60880  0.86980  0.08030  Biso   1.000  N
  N24      1.0000 0.39120  0.36980  0.41970  Biso   1.000  N
  N25      1.0000 0.07630  0.31168  0.91340  Biso   1.000  N
  N26      1.0000 0.92370  0.81168  0.58660  Biso   1.000  N
  N27      1.0000 0.92370  0.68832  0.08660  Biso   1.000  N
  N28      1.0000 0.07630  0.18832  0.41340  Biso   1.000  N
  N29      1.0000 0.18150  0.29027  0.03580  Biso   1.000  N
  N30      1.0000 0.81850  0.79027  0.46420  Biso   1.000  N
  N31      1.0000 0.81850  0.70973  0.96420  Biso   1.000  N
  N32      1.0000 0.18150  0.20973  0.53580  Biso   1.000  N
  N33      1.0000 0.15460  0.25034  0.99800  Biso   1.000  N
  N34      1.0000 0.84540  0.75034  0.50200  Biso   1.000  N
  N35      1.0000 0.84540  0.74966  0.00200  Biso   1.000  N
  N36      1.0000 0.15460  0.24966  0.49800  Biso   1.000  N
  C1       1.0000 0.02470  0.03460  0.30980  Biso   1.000  C
  C2       1.0000 0.97530  0.53460  0.19020  Biso   1.000  C
  C3       1.0000 0.97530  0.96540  0.69020  Biso   1.000  C
  C4       1.0000 0.02470  0.46540  0.80980  Biso   1.000  C
  C5       1.0000 0.88750  0.03550  0.17300  Biso   1.000  C
  C6       1.0000 0.11250  0.53550  0.32700  Biso   1.000  C
  C7       1.0000 0.11250  0.96450  0.82700  Biso   1.000  C
  C8       1.0000 0.88750  0.46450  0.67300  Biso   1.000  C
  H1       1.0000 0.83190  0.05940  0.14130  Biso   1.000  H
  H2       1.0000 0.16810  0.55940  0.35870  Biso   1.000  H
  H3       1.0000 0.16810  0.94060  0.85870  Biso   1.000  H
  H4       1.0000 0.83190  0.44060  0.64130  Biso   1.000  H
  C9       1.0000 0.83650  0.99910  0.08530  Biso   1.000  C
  C10      1.0000 0.16350  0.49910  0.41470  Biso   1.000  C
  C11      1.0000 0.16350  0.00090  0.91470  Biso   1.000  C
  C12      1.0000 0.83650  0.50090  0.58530  Biso   1.000  C
  H5       1.0000 0.74620  0.99890  0.98950  Biso   1.000  H
  H6       1.0000 0.25380  0.49890  0.51050  Biso   1.000  H
  H7       1.0000 0.25380  0.00110  0.01050  Biso   1.000  H
  H8       1.0000 0.74620  0.50110  0.48950  Biso   1.000  H
  C13      1.0000 0.91850  0.96200  0.13770  Biso   1.000  C
  C14      1.0000 0.08150  0.46200  0.36230  Biso   1.000  C
  C15      1.0000 0.08150  0.03800  0.86230  Biso   1.000  C
  C16      1.0000 0.91850  0.53800  0.63770  Biso   1.000  C
  H9       1.0000 0.87890  0.93810  0.07710  Biso   1.000  H
  H10      1.0000 0.12110  0.43810  0.42290  Biso   1.000  H
  H11      1.0000 0.12110  0.06190  0.92290  Biso   1.000  H
  H12      1.0000 0.87890  0.56190  0.57710  Biso   1.000  H
  C17      1.0000 0.04860  0.96060  0.26940  Biso   1.000  C
  C18      1.0000 0.95140  0.46060  0.23060  Biso   1.000  C
  C19      1.0000 0.95140  0.03940  0.73060  Biso   1.000  C
  C20      1.0000 0.04860  0.53940  0.76940  Biso   1.000  C
  H13      1.0000 0.10220  0.93640  0.30410  Biso   1.000  H
  H14      1.0000 0.89780  0.43640  0.19590  Biso   1.000  H
  H15      1.0000 0.89780  0.06360  0.69590  Biso   1.000  H
  H16      1.0000 0.10220  0.56360  0.80410  Biso   1.000  H
  C21      1.0000 0.10200  0.99840  0.35530  Biso   1.000  C
  C22      1.0000 0.89800  0.49840  0.14470  Biso   1.000  C
  C23      1.0000 0.89800  0.00160  0.64470  Biso   1.000  C
  C24      1.0000 0.10200  0.50160  0.85530  Biso   1.000  C
  C25      1.0000 0.36120  0.98250  0.59890  Biso   1.000  C
  C26      1.0000 0.63880  0.48250  0.90110  Biso   1.000  C
  C27      1.0000 0.63880  0.01750  0.40110  Biso   1.000  C
  C28      1.0000 0.36120  0.51750  0.09890  Biso   1.000  C
  H17      1.0000 0.40810  0.99290  0.71510  Biso   1.000  H
  H18      1.0000 0.59190  0.49290  0.78490  Biso   1.000  H
  H19      1.0000 0.59190  0.00710  0.28490  Biso   1.000  H
  H20      1.0000 0.40810  0.50710  0.21510  Biso   1.000  H
  H21      1.0000 0.33060  0.95450  0.60320  Biso   1.000  H
  H22      1.0000 0.66940  0.45450  0.89680  Biso   1.000  H
  H23      1.0000 0.66940  0.04550  0.39680  Biso   1.000  H
  H24      1.0000 0.33060  0.54550  0.10320  Biso   1.000  H
  C29      1.0000 0.46740  0.98340  0.52110  Biso   1.000  C
  C30      1.0000 0.53260  0.48340  0.97890  Biso   1.000  C
  C31      1.0000 0.53260  0.01660  0.47890  Biso   1.000  C
  C32      1.0000 0.46740  0.51660  0.02110  Biso   1.000  C
  H25      1.0000 0.54930  0.96660  0.59610  Biso   1.000  H
  H26      1.0000 0.45070  0.46660  0.90390  Biso   1.000  H
  H27      1.0000 0.45070  0.03340  0.40390  Biso   1.000  H
  H28      1.0000 0.54930  0.53340  0.09610  Biso   1.000  H
  H29      1.0000 0.41970  0.96800  0.41560  Biso   1.000  H
  H30      1.0000 0.58030  0.46800  0.08440  Biso   1.000  H
  H31      1.0000 0.58030  0.03200  0.58440  Biso   1.000  H
  H32      1.0000 0.41970  0.53200  0.91560  Biso   1.000  H
  C33      1.0000 0.39870  0.12710  0.67590  Biso   1.000  C
  C34      1.0000 0.60130  0.62710  0.82410  Biso   1.000  C
  C35      1.0000 0.60130  0.87290  0.32410  Biso   1.000  C
  C36      1.0000 0.39870  0.37290  0.17590  Biso   1.000  C
  C37      1.0000 0.46000  0.12630  0.55720  Biso   1.000  C
  C38      1.0000 0.54000  0.62630  0.94280  Biso   1.000  C
  C39      1.0000 0.54000  0.87370  0.44280  Biso   1.000  C
  C40      1.0000 0.46000  0.37370  0.05720  Biso   1.000  C
  H33      1.0000 0.40150  0.12670  0.43980  Biso   1.000  H
  H34      1.0000 0.59850  0.62670  0.06020  Biso   1.000  H
  H35      1.0000 0.59850  0.87330  0.56020  Biso   1.000  H
  H36      1.0000 0.40150  0.37330  0.93980  Biso   1.000  H
  C41      1.0000 0.61180  0.12480  0.62400  Biso   1.000  C
  C42      1.0000 0.38820  0.62480  0.87600  Biso   1.000  C
  C43      1.0000 0.38820  0.87520  0.37600  Biso   1.000  C
  C44      1.0000 0.61180  0.37520  0.12400  Biso   1.000  C
  H37      1.0000 0.65610  0.12490  0.54890  Biso   1.000  H
  H38      1.0000 0.34390  0.62490  0.95110  Biso   1.000  H
  H39      1.0000 0.34390  0.87510  0.45110  Biso   1.000  H
  H40      1.0000 0.65610  0.37510  0.04890  Biso   1.000  H
  C45      1.0000 0.69910  0.12300  0.79470  Biso   1.000  C
  C46      1.0000 0.30090  0.62300  0.70530  Biso   1.000  C
  C47      1.0000 0.30090  0.87700  0.20530  Biso   1.000  C
  C48      1.0000 0.69910  0.37700  0.29470  Biso   1.000  C
  H41      1.0000 0.80060  0.12070  0.83290  Biso   1.000  H
  H42      1.0000 0.19940  0.62070  0.66710  Biso   1.000  H
  H43      1.0000 0.19940  0.87930  0.16710  Biso   1.000  H
  H44      1.0000 0.80060  0.37930  0.33290  Biso   1.000  H
  C49      1.0000 0.64050  0.12460  0.91230  Biso   1.000  C
  C50      1.0000 0.35950  0.62460  0.58770  Biso   1.000  C
  C51      1.0000 0.35950  0.87540  0.08770  Biso   1.000  C
  C52      1.0000 0.64050  0.37540  0.41230  Biso   1.000  C
  H45      1.0000 0.69930  0.12370  0.02960  Biso   1.000  H
  H46      1.0000 0.30070  0.62370  0.47040  Biso   1.000  H
  H47      1.0000 0.30070  0.87630  0.97040  Biso   1.000  H
  H48      1.0000 0.69930  0.37630  0.52960  Biso   1.000  H
  C53      1.0000 0.48720  0.12770  0.84450  Biso   1.000  C
  C54      1.0000 0.51280  0.62770  0.65550  Biso   1.000  C
  C55      1.0000 0.51280  0.87230  0.15550  Biso   1.000  C
  C56      1.0000 0.48720  0.37230  0.34450  Biso   1.000  C
  C57      1.0000 0.42530  0.13630  0.10210  Biso   1.000  C
  C58      1.0000 0.57470  0.63630  0.39790  Biso   1.000  C
  C59      1.0000 0.57470  0.86370  0.89790  Biso   1.000  C
  C60      1.0000 0.42530  0.36370  0.60210  Biso   1.000  C
  H49      1.0000 0.49640  0.11590  0.17040  Biso   1.000  H
  H50      1.0000 0.50360  0.61590  0.32960  Biso   1.000  H
  H51      1.0000 0.50360  0.88410  0.82960  Biso   1.000  H
  H52      1.0000 0.49640  0.38410  0.67040  Biso   1.000  H
  H53      1.0000 0.33630  0.13250  0.11850  Biso   1.000  H
  H54      1.0000 0.66370  0.63250  0.38150  Biso   1.000  H
  H55      1.0000 0.66370  0.86750  0.88150  Biso   1.000  H
  H56      1.0000 0.33630  0.36750  0.61850  Biso   1.000  H
  C61      1.0000 0.48690  0.17880  0.16280  Biso   1.000  C
  C62      1.0000 0.51310  0.67880  0.33720  Biso   1.000  C
  C63      1.0000 0.51310  0.82120  0.83720  Biso   1.000  C
  C64      1.0000 0.48690  0.32120  0.66280  Biso   1.000  C
  H57      1.0000 0.50580  0.18170  0.28220  Biso   1.000  H
  H58      1.0000 0.49420  0.68170  0.21780  Biso   1.000  H
  H59      1.0000 0.49420  0.81830  0.71780  Biso   1.000  H
  H60      1.0000 0.50580  0.31830  0.78220  Biso   1.000  H
  H61      1.0000 0.58030  0.18150  0.15550  Biso   1.000  H
  H62      1.0000 0.41970  0.68150  0.34450  Biso   1.000  H
  H63      1.0000 0.41970  0.81850  0.84450  Biso   1.000  H
  H64      1.0000 0.58030  0.31850  0.65550  Biso   1.000  H
  C65      1.0000 0.98740  0.28460  0.79490  Biso   1.000  C
  C66      1.0000 0.01260  0.78460  0.70510  Biso   1.000  C
  C67      1.0000 0.01260  0.71540  0.20510  Biso   1.000  C
  C68      1.0000 0.98740  0.21540  0.29490  Biso   1.000  C
  C69      1.0000 0.86260  0.29160  0.64190  Biso   1.000  C
  C70      1.0000 0.13740  0.79160  0.85810  Biso   1.000  C
  C71      1.0000 0.13740  0.70840  0.35810  Biso   1.000  C
  C72      1.0000 0.86260  0.20840  0.14190  Biso   1.000  C
  H65      1.0000 0.82810  0.31790  0.60440  Biso   1.000  H
  H66      1.0000 0.17190  0.81790  0.89560  Biso   1.000  H
  H67      1.0000 0.17190  0.68210  0.39560  Biso   1.000  H
  H68      1.0000 0.82810  0.18210  0.10440  Biso   1.000  H
  C73      1.0000 0.79400  0.25720  0.55010  Biso   1.000  C
  C74      1.0000 0.20600  0.75720  0.94990  Biso   1.000  C
  C75      1.0000 0.20600  0.74280  0.44990  Biso   1.000  C
  C76      1.0000 0.79400  0.24280  0.05010  Biso   1.000  C
  H69      1.0000 0.71090  0.26050  0.44710  Biso   1.000  H
  H70      1.0000 0.28910  0.76050  0.05290  Biso   1.000  H
  H71      1.0000 0.28910  0.73950  0.55290  Biso   1.000  H
  H72      1.0000 0.71090  0.23950  0.94710  Biso   1.000  H
  C77      1.0000 0.84470  0.21740  0.60620  Biso   1.000  C
  C78      1.0000 0.15530  0.71740  0.89380  Biso   1.000  C
  C79      1.0000 0.15530  0.78260  0.39380  Biso   1.000  C
  C80      1.0000 0.84470  0.28260  0.10620  Biso   1.000  C
  H73      1.0000 0.79330  0.19520  0.54010  Biso   1.000  H
  H74      1.0000 0.20670  0.69520  0.95990  Biso   1.000  H
  H75      1.0000 0.20670  0.80480  0.45990  Biso   1.000  H
  H76      1.0000 0.79330  0.30480  0.04010  Biso   1.000  H
  C81      1.0000 0.96820  0.21020  0.75610  Biso   1.000  C
  C82      1.0000 0.03180  0.71020  0.74390  Biso   1.000  C
  C83      1.0000 0.03180  0.78980  0.24390  Biso   1.000  C
  C84      1.0000 0.96820  0.28980  0.25610  Biso   1.000  C
  H77      1.0000 0.00500  0.18410  0.79320  Biso   1.000  H
  H78      1.0000 0.99500  0.68410  0.70680  Biso   1.000  H
  H79      1.0000 0.99500  0.81590  0.20680  Biso   1.000  H
  H80      1.0000 0.00500  0.31590  0.29320  Biso   1.000  H
  C85      1.0000 0.03190  0.24500  0.84510  Biso   1.000  C
  C86      1.0000 0.96810  0.74500  0.65490  Biso   1.000  C
  C87      1.0000 0.96810  0.75500  0.15490  Biso   1.000  C
  C88      1.0000 0.03190  0.25500  0.34510  Biso   1.000  C
  C89      1.0000 0.25980  0.21980  0.10940  Biso   1.000  C
  C90      1.0000 0.74020  0.71980  0.39060  Biso   1.000  C
  C91      1.0000 0.74020  0.78020  0.89060  Biso   1.000  C
  C92      1.0000 0.25980  0.28020  0.60940  Biso   1.000  C
  H81      1.0000 0.29880  0.22910  0.22720  Biso   1.000  H
  H82      1.0000 0.70120  0.72910  0.27280  Biso   1.000  H
  H83      1.0000 0.70120  0.77090  0.77280  Biso   1.000  H
  H84      1.0000 0.29880  0.27090  0.72720  Biso   1.000  H
  H85      1.0000 0.20880  0.19410  0.10150  Biso   1.000  H
  H86      1.0000 0.79120  0.69410  0.39850  Biso   1.000  H
  H87      1.0000 0.79120  0.80590  0.89850  Biso   1.000  H
  H88      1.0000 0.20880  0.30590  0.60150  Biso   1.000  H
  C93      1.0000 0.38520  0.21290  0.06060  Biso   1.000  C
  C94      1.0000 0.61480  0.71290  0.43940  Biso   1.000  C
  C95      1.0000 0.61480  0.78710  0.93940  Biso   1.000  C
  C96      1.0000 0.38520  0.28710  0.56060  Biso   1.000  C
  H89      1.0000 0.45400  0.24210  0.09700  Biso   1.000  H
  H90      1.0000 0.54600  0.74210  0.40300  Biso   1.000  H
  H91      1.0000 0.54600  0.75790  0.90300  Biso   1.000  H
  H92      1.0000 0.45400  0.25790  0.59700  Biso   1.000  H
  H93      1.0000 0.35400  0.20880  0.92800  Biso   1.000  H
  H94      1.0000 0.64600  0.70880  0.57200  Biso   1.000  H
  H95      1.0000 0.64600  0.79120  0.07200  Biso   1.000  H
  H96      1.0000 0.35400  0.29120  0.42800  Biso   1.000  H
