data_image0
_cell_length_a       11.664
_cell_length_b       15.697
_cell_length_c       17.263
_cell_angle_alpha    90
_cell_angle_beta     90
_cell_angle_gamma    90

_symmetry_space_group_name_H-M    "P 1"
_symmetry_int_tables_number       1

loop_
  _symmetry_equiv_pos_as_xyz
  'x, y, z'

loop_
  _atom_site_label
  _atom_site_occupancy
  _atom_site_fract_x
  _atom_site_fract_y
  _atom_site_fract_z
  _atom_site_thermal_displace_type
  _atom_site_B_iso_or_equiv
  _atom_site_type_symbol
  Cu1      1.0000 0.50000  0.06328  0.37095  Biso   1.000  Cu
  Cu2      1.0000 0.00000  0.56328  0.37095  Biso   1.000  Cu
  Cu3      1.0000 0.50000  0.43672  0.87095  Biso   1.000  Cu
  Cu4      1.0000 0.50000  0.56328  0.12905  Biso   1.000  Cu
  Cu5      1.0000 0.50000  0.93672  0.62905  Biso   1.000  Cu
  Cu6      1.0000 0.00000  0.93672  0.87095  Biso   1.000  Cu
  Cu7      1.0000 0.00000  0.06328  0.12905  Biso   1.000  Cu
  Cu8      1.0000 0.00000  0.43672  0.62905  Biso   1.000  Cu
  O1       1.0000 0.50000  0.16860  0.31140  Biso   1.000  O
  O2       1.0000 0.00000  0.66860  0.31140  Biso   1.000  O
  O3       1.0000 0.50000  0.33140  0.81140  Biso   1.000  O
  O4       1.0000 0.50000  0.66860  0.18860  Biso   1.000  O
  O5       1.0000 0.50000  0.83140  0.68860  Biso   1.000  O
  O6       1.0000 0.00000  0.83140  0.81140  Biso   1.000  O
  O7       1.0000 0.00000  0.16860  0.18860  Biso   1.000  O
  O8       1.0000 0.00000  0.33140  0.68860  Biso   1.000  O
  O9       1.0000 0.50000  0.24590  0.41910  Biso   1.000  O
  O10      1.0000 0.00000  0.74590  0.41910  Biso   1.000  O
  O11      1.0000 0.50000  0.25410  0.91910  Biso   1.000  O
  O12      1.0000 0.50000  0.74590  0.08090  Biso   1.000  O
  O13      1.0000 0.50000  0.75410  0.58090  Biso   1.000  O
  O14      1.0000 0.00000  0.75410  0.91910  Biso   1.000  O
  O15      1.0000 0.00000  0.24590  0.08090  Biso   1.000  O
  O16      1.0000 0.00000  0.25410  0.58090  Biso   1.000  O
  O17      1.0000 0.50000  0.47670  0.23620  Biso   1.000  O
  O18      1.0000 0.00000  0.97670  0.23620  Biso   1.000  O
  O19      1.0000 0.50000  0.02330  0.73620  Biso   1.000  O
  O20      1.0000 0.50000  0.97670  0.26380  Biso   1.000  O
  O21      1.0000 0.50000  0.52330  0.76380  Biso   1.000  O
  O22      1.0000 0.00000  0.52330  0.73620  Biso   1.000  O
  O23      1.0000 0.00000  0.47670  0.26380  Biso   1.000  O
  O24      1.0000 0.00000  0.02330  0.76380  Biso   1.000  O
  O25      1.0000 0.50000  0.43490  0.11605  Biso   1.000  O
  O26      1.0000 0.00000  0.93490  0.11605  Biso   1.000  O
  O27      1.0000 0.50000  0.06510  0.61605  Biso   1.000  O
  O28      1.0000 0.50000  0.93490  0.38395  Biso   1.000  O
  O29      1.0000 0.50000  0.56510  0.88395  Biso   1.000  O
  O30      1.0000 0.00000  0.56510  0.61605  Biso   1.000  O
  O31      1.0000 0.00000  0.43490  0.38395  Biso   1.000  O
  O32      1.0000 0.00000  0.06510  0.88395  Biso   1.000  O
  N1       1.0000 0.33650  0.07403  0.40457  Biso   1.000  N
  N2       1.0000 0.83650  0.57403  0.40457  Biso   1.000  N
  N3       1.0000 0.66350  0.42597  0.90457  Biso   1.000  N
  N4       1.0000 0.66350  0.57403  0.09543  Biso   1.000  N
  N5       1.0000 0.33650  0.92597  0.59543  Biso   1.000  N
  N6       1.0000 0.16350  0.92597  0.90457  Biso   1.000  N
  N7       1.0000 0.16350  0.07403  0.09543  Biso   1.000  N
  N8       1.0000 0.83650  0.42597  0.59543  Biso   1.000  N
  N9       1.0000 0.66350  0.92597  0.59543  Biso   1.000  N
  N10      1.0000 0.16350  0.42597  0.59543  Biso   1.000  N
  N11      1.0000 0.33650  0.57403  0.09543  Biso   1.000  N
  N12      1.0000 0.33650  0.42597  0.90457  Biso   1.000  N
  N13      1.0000 0.66350  0.07403  0.40457  Biso   1.000  N
  N14      1.0000 0.83650  0.07403  0.09543  Biso   1.000  N
  N15      1.0000 0.83650  0.92597  0.90457  Biso   1.000  N
  N16      1.0000 0.16350  0.57403  0.40457  Biso   1.000  N
  N17      1.0000 0.00000  0.11800  0.47830  Biso   1.000  N
  N18      1.0000 0.50000  0.61800  0.47830  Biso   1.000  N
  N19      1.0000 0.00000  0.38200  0.97830  Biso   1.000  N
  N20      1.0000 0.00000  0.61800  0.02170  Biso   1.000  N
  N21      1.0000 0.00000  0.88200  0.52170  Biso   1.000  N
  N22      1.0000 0.50000  0.88200  0.97830  Biso   1.000  N
  N23      1.0000 0.50000  0.11800  0.02170  Biso   1.000  N
  N24      1.0000 0.50000  0.38200  0.52170  Biso   1.000  N
  H1       1.0000 0.00000  0.15500  0.51700  Biso   1.000  H
  H2       1.0000 0.50000  0.65500  0.51700  Biso   1.000  H
  H3       1.0000 0.00000  0.34500  0.01700  Biso   1.000  H
  H4       1.0000 0.00000  0.65500  0.98300  Biso   1.000  H
  H5       1.0000 0.00000  0.84500  0.48300  Biso   1.000  H
  H6       1.0000 0.50000  0.84500  0.01700  Biso   1.000  H
  H7       1.0000 0.50000  0.15500  0.98300  Biso   1.000  H
  H8       1.0000 0.50000  0.34500  0.48300  Biso   1.000  H
  C1       1.0000 0.31050  0.11560  0.46930  Biso   1.000  C
  C2       1.0000 0.81050  0.61560  0.46930  Biso   1.000  C
  C3       1.0000 0.68950  0.38440  0.96930  Biso   1.000  C
  C4       1.0000 0.68950  0.61560  0.03070  Biso   1.000  C
  C5       1.0000 0.31050  0.88440  0.53070  Biso   1.000  C
  C6       1.0000 0.18950  0.88440  0.96930  Biso   1.000  C
  C7       1.0000 0.18950  0.11560  0.03070  Biso   1.000  C
  C8       1.0000 0.81050  0.38440  0.53070  Biso   1.000  C
  C9       1.0000 0.68950  0.88440  0.53070  Biso   1.000  C
  C10      1.0000 0.18950  0.38440  0.53070  Biso   1.000  C
  C11      1.0000 0.31050  0.61560  0.03070  Biso   1.000  C
  C12      1.0000 0.31050  0.38440  0.96930  Biso   1.000  C
  C13      1.0000 0.68950  0.11560  0.46930  Biso   1.000  C
  C14      1.0000 0.81050  0.11560  0.03070  Biso   1.000  C
  C15      1.0000 0.81050  0.88440  0.96930  Biso   1.000  C
  C16      1.0000 0.18950  0.61560  0.46930  Biso   1.000  C
  H9       1.0000 0.37000  0.13580  0.50010  Biso   1.000  H
  H10      1.0000 0.87000  0.63580  0.50010  Biso   1.000  H
  H11      1.0000 0.63000  0.36420  0.00010  Biso   1.000  H
  H12      1.0000 0.63000  0.63580  0.99990  Biso   1.000  H
  H13      1.0000 0.37000  0.86420  0.49990  Biso   1.000  H
  H14      1.0000 0.13000  0.86420  0.00010  Biso   1.000  H
  H15      1.0000 0.13000  0.13580  0.99990  Biso   1.000  H
  H16      1.0000 0.87000  0.36420  0.49990  Biso   1.000  H
  H17      1.0000 0.63000  0.86420  0.49990  Biso   1.000  H
  H18      1.0000 0.13000  0.36420  0.49990  Biso   1.000  H
  H19      1.0000 0.37000  0.63580  0.99990  Biso   1.000  H
  H20      1.0000 0.37000  0.36420  0.00010  Biso   1.000  H
  H21      1.0000 0.63000  0.13580  0.50010  Biso   1.000  H
  H22      1.0000 0.87000  0.13580  0.99990  Biso   1.000  H
  H23      1.0000 0.87000  0.86420  0.00010  Biso   1.000  H
  H24      1.0000 0.13000  0.63580  0.50010  Biso   1.000  H
  C17      1.0000 0.19980  0.13000  0.49290  Biso   1.000  C
  C18      1.0000 0.69980  0.63000  0.49290  Biso   1.000  C
  C19      1.0000 0.80020  0.37000  0.99290  Biso   1.000  C
  C20      1.0000 0.80020  0.63000  0.00710  Biso   1.000  C
  C21      1.0000 0.19980  0.87000  0.50710  Biso   1.000  C
  C22      1.0000 0.30020  0.87000  0.99290  Biso   1.000  C
  C23      1.0000 0.30020  0.13000  0.00710  Biso   1.000  C
  C24      1.0000 0.69980  0.37000  0.50710  Biso   1.000  C
  C25      1.0000 0.80020  0.87000  0.50710  Biso   1.000  C
  C26      1.0000 0.30020  0.37000  0.50710  Biso   1.000  C
  C27      1.0000 0.19980  0.63000  0.00710  Biso   1.000  C
  C28      1.0000 0.19980  0.37000  0.99290  Biso   1.000  C
  C29      1.0000 0.80020  0.13000  0.49290  Biso   1.000  C
  C30      1.0000 0.69980  0.13000  0.00710  Biso   1.000  C
  C31      1.0000 0.69980  0.87000  0.99290  Biso   1.000  C
  C32      1.0000 0.30020  0.63000  0.49290  Biso   1.000  C
  H25      1.0000 0.18620  0.16060  0.53810  Biso   1.000  H
  H26      1.0000 0.68620  0.66060  0.53810  Biso   1.000  H
  H27      1.0000 0.81380  0.33940  0.03810  Biso   1.000  H
  H28      1.0000 0.81380  0.66060  0.96190  Biso   1.000  H
  H29      1.0000 0.18620  0.83940  0.46190  Biso   1.000  H
  H30      1.0000 0.31380  0.83940  0.03810  Biso   1.000  H
  H31      1.0000 0.31380  0.16060  0.96190  Biso   1.000  H
  H32      1.0000 0.68620  0.33940  0.46190  Biso   1.000  H
  H33      1.0000 0.81380  0.83940  0.46190  Biso   1.000  H
  H34      1.0000 0.31380  0.33940  0.46190  Biso   1.000  H
  H35      1.0000 0.18620  0.66060  0.96190  Biso   1.000  H
  H36      1.0000 0.18620  0.33940  0.03810  Biso   1.000  H
  H37      1.0000 0.81380  0.16060  0.53810  Biso   1.000  H
  H38      1.0000 0.68620  0.16060  0.96190  Biso   1.000  H
  H39      1.0000 0.68620  0.83940  0.03810  Biso   1.000  H
  H40      1.0000 0.31380  0.66060  0.53810  Biso   1.000  H
  C33      1.0000 0.10830  0.09980  0.45019  Biso   1.000  C
  C34      1.0000 0.60830  0.59980  0.45019  Biso   1.000  C
  C35      1.0000 0.89170  0.40020  0.95019  Biso   1.000  C
  C36      1.0000 0.89170  0.59980  0.04981  Biso   1.000  C
  C37      1.0000 0.10830  0.90020  0.54981  Biso   1.000  C
  C38      1.0000 0.39170  0.90020  0.95019  Biso   1.000  C
  C39      1.0000 0.39170  0.09980  0.04981  Biso   1.000  C
  C40      1.0000 0.60830  0.40020  0.54981  Biso   1.000  C
  C41      1.0000 0.89170  0.90020  0.54981  Biso   1.000  C
  C42      1.0000 0.39170  0.40020  0.54981  Biso   1.000  C
  C43      1.0000 0.10830  0.59980  0.04981  Biso   1.000  C
  C44      1.0000 0.10830  0.40020  0.95019  Biso   1.000  C
  C45      1.0000 0.89170  0.09980  0.45019  Biso   1.000  C
  C46      1.0000 0.60830  0.09980  0.04981  Biso   1.000  C
  C47      1.0000 0.60830  0.90020  0.95019  Biso   1.000  C
  C48      1.0000 0.39170  0.59980  0.45019  Biso   1.000  C
  C49      1.0000 0.13550  0.05350  0.38480  Biso   1.000  C
  C50      1.0000 0.63550  0.55350  0.38480  Biso   1.000  C
  C51      1.0000 0.86450  0.44650  0.88480  Biso   1.000  C
  C52      1.0000 0.86450  0.55350  0.11520  Biso   1.000  C
  C53      1.0000 0.13550  0.94650  0.61520  Biso   1.000  C
  C54      1.0000 0.36450  0.94650  0.88480  Biso   1.000  C
  C55      1.0000 0.36450  0.05350  0.11520  Biso   1.000  C
  C56      1.0000 0.63550  0.44650  0.61520  Biso   1.000  C
  C57      1.0000 0.86450  0.94650  0.61520  Biso   1.000  C
  C58      1.0000 0.36450  0.44650  0.61520  Biso   1.000  C
  C59      1.0000 0.13550  0.55350  0.11520  Biso   1.000  C
  C60      1.0000 0.13550  0.44650  0.88480  Biso   1.000  C
  C61      1.0000 0.86450  0.05350  0.38480  Biso   1.000  C
  C62      1.0000 0.63550  0.05350  0.11520  Biso   1.000  C
  C63      1.0000 0.63550  0.94650  0.88480  Biso   1.000  C
  C64      1.0000 0.36450  0.55350  0.38480  Biso   1.000  C
  H41      1.0000 0.07780  0.02940  0.35470  Biso   1.000  H
  H42      1.0000 0.57780  0.52940  0.35470  Biso   1.000  H
  H43      1.0000 0.92220  0.47060  0.85470  Biso   1.000  H
  H44      1.0000 0.92220  0.52940  0.14530  Biso   1.000  H
  H45      1.0000 0.07780  0.97060  0.64530  Biso   1.000  H
  H46      1.0000 0.42220  0.97060  0.85470  Biso   1.000  H
  H47      1.0000 0.42220  0.02940  0.14530  Biso   1.000  H
  H48      1.0000 0.57780  0.47060  0.64530  Biso   1.000  H
  H49      1.0000 0.92220  0.97060  0.64530  Biso   1.000  H
  H50      1.0000 0.42220  0.47060  0.64530  Biso   1.000  H
  H51      1.0000 0.07780  0.52940  0.14530  Biso   1.000  H
  H52      1.0000 0.07780  0.47060  0.85470  Biso   1.000  H
  H53      1.0000 0.92220  0.02940  0.35470  Biso   1.000  H
  H54      1.0000 0.57780  0.02940  0.14530  Biso   1.000  H
  H55      1.0000 0.57780  0.97060  0.85470  Biso   1.000  H
  H56      1.0000 0.42220  0.52940  0.35470  Biso   1.000  H
  C65      1.0000 0.24880  0.04310  0.36450  Biso   1.000  C
  C66      1.0000 0.74880  0.54310  0.36450  Biso   1.000  C
  C67      1.0000 0.75120  0.45690  0.86450  Biso   1.000  C
  C68      1.0000 0.75120  0.54310  0.13550  Biso   1.000  C
  C69      1.0000 0.24880  0.95690  0.63550  Biso   1.000  C
  C70      1.0000 0.25120  0.95690  0.86450  Biso   1.000  C
  C71      1.0000 0.25120  0.04310  0.13550  Biso   1.000  C
  C72      1.0000 0.74880  0.45690  0.63550  Biso   1.000  C
  C73      1.0000 0.75120  0.95690  0.63550  Biso   1.000  C
  C74      1.0000 0.25120  0.45690  0.63550  Biso   1.000  C
  C75      1.0000 0.24880  0.54310  0.13550  Biso   1.000  C
  C76      1.0000 0.24880  0.45690  0.86450  Biso   1.000  C
  C77      1.0000 0.75120  0.04310  0.36450  Biso   1.000  C
  C78      1.0000 0.74880  0.04310  0.13550  Biso   1.000  C
  C79      1.0000 0.74880  0.95690  0.86450  Biso   1.000  C
  C80      1.0000 0.25120  0.54310  0.36450  Biso   1.000  C
  H57      1.0000 0.26500  0.01240  0.31970  Biso   1.000  H
  H58      1.0000 0.76500  0.51240  0.31970  Biso   1.000  H
  H59      1.0000 0.73500  0.48760  0.81970  Biso   1.000  H
  H60      1.0000 0.73500  0.51240  0.18030  Biso   1.000  H
  H61      1.0000 0.26500  0.98760  0.68030  Biso   1.000  H
  H62      1.0000 0.23500  0.98760  0.81970  Biso   1.000  H
  H63      1.0000 0.23500  0.01240  0.18030  Biso   1.000  H
  H64      1.0000 0.76500  0.48760  0.68030  Biso   1.000  H
  H65      1.0000 0.73500  0.98760  0.68030  Biso   1.000  H
  H66      1.0000 0.23500  0.48760  0.68030  Biso   1.000  H
  H67      1.0000 0.26500  0.51240  0.18030  Biso   1.000  H
  H68      1.0000 0.26500  0.48760  0.81970  Biso   1.000  H
  H69      1.0000 0.73500  0.01240  0.31970  Biso   1.000  H
  H70      1.0000 0.76500  0.01240  0.18030  Biso   1.000  H
  H71      1.0000 0.76500  0.98760  0.81970  Biso   1.000  H
  H72      1.0000 0.23500  0.51240  0.31970  Biso   1.000  H
  C81      1.0000 0.50000  0.23930  0.34680  Biso   1.000  C
  C82      1.0000 0.00000  0.73930  0.34680  Biso   1.000  C
  C83      1.0000 0.50000  0.26070  0.84680  Biso   1.000  C
  C84      1.0000 0.50000  0.73930  0.15320  Biso   1.000  C
  C85      1.0000 0.50000  0.76070  0.65320  Biso   1.000  C
  C86      1.0000 0.00000  0.76070  0.84680  Biso   1.000  C
  C87      1.0000 0.00000  0.23930  0.15320  Biso   1.000  C
  C88      1.0000 0.00000  0.26070  0.65320  Biso   1.000  C
  C89      1.0000 0.50000  0.32180  0.30110  Biso   1.000  C
  C90      1.0000 0.00000  0.82180  0.30110  Biso   1.000  C
  C91      1.0000 0.50000  0.17820  0.80110  Biso   1.000  C
  C92      1.0000 0.50000  0.82180  0.19890  Biso   1.000  C
  C93      1.0000 0.50000  0.67820  0.69890  Biso   1.000  C
  C94      1.0000 0.00000  0.67820  0.80110  Biso   1.000  C
  C95      1.0000 0.00000  0.32180  0.19890  Biso   1.000  C
  C96      1.0000 0.00000  0.17820  0.69890  Biso   1.000  C
  H73      1.0000 0.43330  0.35370  0.31800  Biso   1.000  H
  H74      1.0000 0.93330  0.85370  0.31800  Biso   1.000  H
  H75      1.0000 0.56670  0.14630  0.81800  Biso   1.000  H
  H76      1.0000 0.56670  0.85370  0.18200  Biso   1.000  H
  H77      1.0000 0.43330  0.64630  0.68200  Biso   1.000  H
  H78      1.0000 0.06670  0.64630  0.81800  Biso   1.000  H
  H79      1.0000 0.06670  0.35370  0.18200  Biso   1.000  H
  H80      1.0000 0.93330  0.14630  0.68200  Biso   1.000  H
  H81      1.0000 0.56670  0.64630  0.68200  Biso   1.000  H
  H82      1.0000 0.06670  0.14630  0.68200  Biso   1.000  H
  H83      1.0000 0.43330  0.85370  0.18200  Biso   1.000  H
  H84      1.0000 0.43330  0.14630  0.81800  Biso   1.000  H
  H85      1.0000 0.56670  0.35370  0.31800  Biso   1.000  H
  H86      1.0000 0.93330  0.35370  0.18200  Biso   1.000  H
  H87      1.0000 0.93330  0.64630  0.81800  Biso   1.000  H
  H88      1.0000 0.06670  0.85370  0.31800  Biso   1.000  H
  C97      1.0000 0.50000  0.32450  0.21450  Biso   1.000  C
  C98      1.0000 0.00000  0.82450  0.21450  Biso   1.000  C
  C99      1.0000 0.50000  0.17550  0.71450  Biso   1.000  C
  C100     1.0000 0.50000  0.82450  0.28550  Biso   1.000  C
  C101     1.0000 0.50000  0.67550  0.78550  Biso   1.000  C
  C102     1.0000 0.00000  0.67550  0.71450  Biso   1.000  C
  C103     1.0000 0.00000  0.32450  0.28550  Biso   1.000  C
  C104     1.0000 0.00000  0.17550  0.78550  Biso   1.000  C
  C105     1.0000 0.50000  0.41820  0.18830  Biso   1.000  C
  C106     1.0000 0.00000  0.91820  0.18830  Biso   1.000  C
  C107     1.0000 0.50000  0.08180  0.68830  Biso   1.000  C
  C108     1.0000 0.50000  0.91820  0.31170  Biso   1.000  C
  C109     1.0000 0.50000  0.58180  0.81170  Biso   1.000  C
  C110     1.0000 0.00000  0.58180  0.68830  Biso   1.000  C
  C111     1.0000 0.00000  0.41820  0.31170  Biso   1.000  C
  C112     1.0000 0.00000  0.08180  0.81170  Biso   1.000  C
  C113     1.0000 0.60330  0.28240  0.18140  Biso   1.000  C
  C114     1.0000 0.10330  0.78240  0.18140  Biso   1.000  C
  C115     1.0000 0.39670  0.21760  0.68140  Biso   1.000  C
  C116     1.0000 0.39670  0.78240  0.31860  Biso   1.000  C
  C117     1.0000 0.60330  0.71760  0.81860  Biso   1.000  C
  C118     1.0000 0.89670  0.71760  0.68140  Biso   1.000  C
  C119     1.0000 0.89670  0.28240  0.31860  Biso   1.000  C
  C120     1.0000 0.10330  0.21760  0.81860  Biso   1.000  C
  C121     1.0000 0.39670  0.71760  0.81860  Biso   1.000  C
  C122     1.0000 0.89670  0.21760  0.81860  Biso   1.000  C
  C123     1.0000 0.60330  0.78240  0.31860  Biso   1.000  C
  C124     1.0000 0.60330  0.21760  0.68140  Biso   1.000  C
  C125     1.0000 0.39670  0.28240  0.18140  Biso   1.000  C
  C126     1.0000 0.10330  0.28240  0.31860  Biso   1.000  C
  C127     1.0000 0.10330  0.71760  0.68140  Biso   1.000  C
  C128     1.0000 0.89670  0.78240  0.18140  Biso   1.000  C
  H89      1.0000 0.60010  0.28490  0.12580  Biso   1.000  H
  H90      1.0000 0.10010  0.78490  0.12580  Biso   1.000  H
  H91      1.0000 0.39990  0.21510  0.62580  Biso   1.000  H
  H92      1.0000 0.39990  0.78490  0.37420  Biso   1.000  H
  H93      1.0000 0.60010  0.71510  0.87420  Biso   1.000  H
  H94      1.0000 0.89990  0.71510  0.62580  Biso   1.000  H
  H95      1.0000 0.89990  0.28490  0.37420  Biso   1.000  H
  H96      1.0000 0.10010  0.21510  0.87420  Biso   1.000  H
  H97      1.0000 0.39990  0.71510  0.87420  Biso   1.000  H
  H98      1.0000 0.89990  0.21510  0.87420  Biso   1.000  H
  H99      1.0000 0.60010  0.78490  0.37420  Biso   1.000  H
  H100     1.0000 0.60010  0.21510  0.62580  Biso   1.000  H
  H101     1.0000 0.39990  0.28490  0.12580  Biso   1.000  H
  H102     1.0000 0.10010  0.28490  0.37420  Biso   1.000  H
  H103     1.0000 0.10010  0.71510  0.62580  Biso   1.000  H
  H104     1.0000 0.89990  0.78490  0.12580  Biso   1.000  H
  H105     1.0000 0.60550  0.22390  0.19770  Biso   1.000  H
  H106     1.0000 0.10550  0.72390  0.19770  Biso   1.000  H
  H107     1.0000 0.39450  0.27610  0.69770  Biso   1.000  H
  H108     1.0000 0.39450  0.72390  0.30230  Biso   1.000  H
  H109     1.0000 0.60550  0.77610  0.80230  Biso   1.000  H
  H110     1.0000 0.89450  0.77610  0.69770  Biso   1.000  H
  H111     1.0000 0.89450  0.22390  0.30230  Biso   1.000  H
  H112     1.0000 0.10550  0.27610  0.80230  Biso   1.000  H
  H113     1.0000 0.39450  0.77610  0.80230  Biso   1.000  H
  H114     1.0000 0.89450  0.27610  0.80230  Biso   1.000  H
  H115     1.0000 0.60550  0.72390  0.30230  Biso   1.000  H
  H116     1.0000 0.60550  0.27610  0.69770  Biso   1.000  H
  H117     1.0000 0.39450  0.22390  0.19770  Biso   1.000  H
  H118     1.0000 0.10550  0.22390  0.30230  Biso   1.000  H
  H119     1.0000 0.10550  0.77610  0.69770  Biso   1.000  H
  H120     1.0000 0.89450  0.72390  0.19770  Biso   1.000  H
  H121     1.0000 0.67100  0.31110  0.19920  Biso   1.000  H
  H122     1.0000 0.17100  0.81110  0.19920  Biso   1.000  H
  H123     1.0000 0.32900  0.18890  0.69920  Biso   1.000  H
  H124     1.0000 0.32900  0.81110  0.30080  Biso   1.000  H
  H125     1.0000 0.67100  0.68890  0.80080  Biso   1.000  H
  H126     1.0000 0.82900  0.68890  0.69920  Biso   1.000  H
  H127     1.0000 0.82900  0.31110  0.30080  Biso   1.000  H
  H128     1.0000 0.17100  0.18890  0.80080  Biso   1.000  H
  H129     1.0000 0.32900  0.68890  0.80080  Biso   1.000  H
  H130     1.0000 0.82900  0.18890  0.80080  Biso   1.000  H
  H131     1.0000 0.67100  0.81110  0.30080  Biso   1.000  H
  H132     1.0000 0.67100  0.18890  0.69920  Biso   1.000  H
  H133     1.0000 0.32900  0.31110  0.19920  Biso   1.000  H
  H134     1.0000 0.17100  0.31110  0.30080  Biso   1.000  H
  H135     1.0000 0.17100  0.68890  0.69920  Biso   1.000  H
  H136     1.0000 0.82900  0.81110  0.19920  Biso   1.000  H
