data_image0
_cell_length_a       9.568
_cell_length_b       16.692
_cell_length_c       14.957
_cell_angle_alpha    90
_cell_angle_beta     94.05
_cell_angle_gamma    90

_symmetry_space_group_name_H-M    "P 1"
_symmetry_int_tables_number       1

loop_
  _symmetry_equiv_pos_as_xyz
  'x, y, z'

loop_
  _atom_site_label
  _atom_site_occupancy
  _atom_site_fract_x
  _atom_site_fract_y
  _atom_site_fract_z
  _atom_site_thermal_displace_type
  _atom_site_B_iso_or_equiv
  _atom_site_type_symbol
  Cu1      1.0000 0.08310  0.23110  0.35130  Biso   1.000  Cu
  Cu2      1.0000 0.91690  0.73110  0.14870  Biso   1.000  Cu
  Cu3      1.0000 0.91690  0.76890  0.64870  Biso   1.000  Cu
  Cu4      1.0000 0.08310  0.26890  0.85130  Biso   1.000  Cu
  N1       1.0000 0.07120  0.11850  0.24080  Biso   1.000  N
  N2       1.0000 0.92880  0.61850  0.25920  Biso   1.000  N
  N3       1.0000 0.92880  0.88150  0.75920  Biso   1.000  N
  N4       1.0000 0.07120  0.38150  0.74080  Biso   1.000  N
  N5       1.0000 0.10160  0.33560  0.45900  Biso   1.000  N
  N6       1.0000 0.89840  0.83560  0.04100  Biso   1.000  N
  N7       1.0000 0.89840  0.66440  0.54100  Biso   1.000  N
  N8       1.0000 0.10160  0.16440  0.95900  Biso   1.000  N
  N9       1.0000 0.21590  0.92370  0.06850  Biso   1.000  N
  N10      1.0000 0.78410  0.42370  0.43150  Biso   1.000  N
  N11      1.0000 0.78410  0.07630  0.93150  Biso   1.000  N
  N12      1.0000 0.21590  0.57630  0.56850  Biso   1.000  N
  N13      1.0000 0.53650  0.64090  0.47290  Biso   1.000  N
  N14      1.0000 0.46350  0.14090  0.02710  Biso   1.000  N
  N15      1.0000 0.46350  0.35910  0.52710  Biso   1.000  N
  N16      1.0000 0.53650  0.85910  0.97290  Biso   1.000  N
  N17      1.0000 0.20240  0.48840  0.32790  Biso   1.000  N
  N18      1.0000 0.79760  0.98840  0.17210  Biso   1.000  N
  N19      1.0000 0.79760  0.51160  0.67210  Biso   1.000  N
  N20      1.0000 0.20240  0.01160  0.82790  Biso   1.000  N
  N21      1.0000 0.59750  0.53040  0.21540  Biso   1.000  N
  N22      1.0000 0.40250  0.03040  0.28460  Biso   1.000  N
  N23      1.0000 0.40250  0.46960  0.78460  Biso   1.000  N
  N24      1.0000 0.59750  0.96960  0.71540  Biso   1.000  N
  N25      1.0000 0.26740  0.26240  0.30530  Biso   1.000  N
  N26      1.0000 0.73260  0.76240  0.19470  Biso   1.000  N
  N27      1.0000 0.73260  0.73760  0.69470  Biso   1.000  N
  N28      1.0000 0.26740  0.23760  0.80530  Biso   1.000  N
  N29      1.0000 0.36070  0.30880  0.35250  Biso   1.000  N
  N30      1.0000 0.63930  0.80880  0.14750  Biso   1.000  N
  N31      1.0000 0.63930  0.69120  0.64750  Biso   1.000  N
  N32      1.0000 0.36070  0.19120  0.85250  Biso   1.000  N
  C1       1.0000 0.46800  0.32690  0.30470  Biso   1.000  C
  C2       1.0000 0.53200  0.82690  0.19530  Biso   1.000  C
  C3       1.0000 0.53200  0.67310  0.69530  Biso   1.000  C
  C4       1.0000 0.46800  0.17310  0.80470  Biso   1.000  C
  C5       1.0000 0.44840  0.29230  0.22650  Biso   1.000  C
  C6       1.0000 0.55160  0.79230  0.27350  Biso   1.000  C
  C7       1.0000 0.55160  0.70770  0.77350  Biso   1.000  C
  C8       1.0000 0.44840  0.20770  0.72650  Biso   1.000  C
  C9       1.0000 0.32270  0.25230  0.22710  Biso   1.000  C
  C10      1.0000 0.67730  0.75230  0.27290  Biso   1.000  C
  C11      1.0000 0.67730  0.74770  0.77290  Biso   1.000  C
  C12      1.0000 0.32270  0.24770  0.72710  Biso   1.000  C
  N33      1.0000 0.17420  0.15700  0.44080  Biso   1.000  N
  N34      1.0000 0.82580  0.65700  0.05920  Biso   1.000  N
  N35      1.0000 0.82580  0.84300  0.55920  Biso   1.000  N
  N36      1.0000 0.17420  0.34300  0.94080  Biso   1.000  N
  N37      1.0000 0.26450  0.10020  0.42430  Biso   1.000  N
  N38      1.0000 0.73550  0.60020  0.07570  Biso   1.000  N
  N39      1.0000 0.73550  0.89980  0.57570  Biso   1.000  N
  N40      1.0000 0.26450  0.39980  0.92430  Biso   1.000  N
  C13      1.0000 0.30630  0.05880  0.49680  Biso   1.000  C
  C14      1.0000 0.69370  0.55880  0.00320  Biso   1.000  C
  C15      1.0000 0.69370  0.94120  0.50320  Biso   1.000  C
  C16      1.0000 0.30630  0.44120  0.99680  Biso   1.000  C
  C17      1.0000 0.23870  0.08930  0.56450  Biso   1.000  C
  C18      1.0000 0.76130  0.58930  0.93550  Biso   1.000  C
  C19      1.0000 0.76130  0.91070  0.43550  Biso   1.000  C
  C20      1.0000 0.23870  0.41070  0.06450  Biso   1.000  C
  C21      1.0000 0.16140  0.14930  0.52750  Biso   1.000  C
  C22      1.0000 0.83860  0.64930  0.97250  Biso   1.000  C
  C23      1.0000 0.83860  0.85070  0.47250  Biso   1.000  C
  C24      1.0000 0.16140  0.35070  0.02750  Biso   1.000  C
  N41      1.0000 0.89590  0.19950  0.39180  Biso   1.000  N
  N42      1.0000 0.10410  0.69950  0.10820  Biso   1.000  N
  N43      1.0000 0.10410  0.80050  0.60820  Biso   1.000  N
  N44      1.0000 0.89590  0.30050  0.89180  Biso   1.000  N
  N45      1.0000 0.80730  0.25080  0.42630  Biso   1.000  N
  N46      1.0000 0.19270  0.75080  0.07370  Biso   1.000  N
  N47      1.0000 0.19270  0.74920  0.57370  Biso   1.000  N
  N48      1.0000 0.80730  0.24920  0.92630  Biso   1.000  N
  C25      1.0000 0.68400  0.21790  0.43660  Biso   1.000  C
  C26      1.0000 0.31600  0.71790  0.06340  Biso   1.000  C
  C27      1.0000 0.31600  0.78210  0.56340  Biso   1.000  C
  C28      1.0000 0.68400  0.28210  0.93660  Biso   1.000  C
  C29      1.0000 0.69140  0.14290  0.40630  Biso   1.000  C
  C30      1.0000 0.30860  0.64290  0.09370  Biso   1.000  C
  C31      1.0000 0.30860  0.85710  0.59370  Biso   1.000  C
  C32      1.0000 0.69140  0.35710  0.90630  Biso   1.000  C
  C33      1.0000 0.82340  0.13350  0.38100  Biso   1.000  C
  C34      1.0000 0.17660  0.63350  0.11900  Biso   1.000  C
  C35      1.0000 0.17660  0.86650  0.61900  Biso   1.000  C
  C36      1.0000 0.82340  0.36650  0.88100  Biso   1.000  C
  N49      1.0000 0.98190  0.30000  0.25980  Biso   1.000  N
  N50      1.0000 0.01810  0.80000  0.24020  Biso   1.000  N
  N51      1.0000 0.01810  0.70000  0.74020  Biso   1.000  N
  N52      1.0000 0.98190  0.20000  0.75980  Biso   1.000  N
  N53      1.0000 0.00080  0.37920  0.25300  Biso   1.000  N
  N54      1.0000 0.99920  0.87920  0.24700  Biso   1.000  N
  N55      1.0000 0.99920  0.62080  0.74700  Biso   1.000  N
  N56      1.0000 0.00080  0.12080  0.75300  Biso   1.000  N
  C37      1.0000 0.90840  0.40980  0.19260  Biso   1.000  C
  C38      1.0000 0.09160  0.90980  0.30740  Biso   1.000  C
  C39      1.0000 0.09160  0.59020  0.80740  Biso   1.000  C
  C40      1.0000 0.90840  0.09020  0.69260  Biso   1.000  C
  C41      1.0000 0.82830  0.35150  0.15630  Biso   1.000  C
  C42      1.0000 0.17170  0.85150  0.34370  Biso   1.000  C
  C43      1.0000 0.17170  0.64850  0.84370  Biso   1.000  C
  C44      1.0000 0.82830  0.14850  0.65630  Biso   1.000  C
  C45      1.0000 0.87690  0.28370  0.20020  Biso   1.000  C
  C46      1.0000 0.12310  0.78370  0.29980  Biso   1.000  C
  C47      1.0000 0.12310  0.71630  0.79980  Biso   1.000  C
  C48      1.0000 0.87690  0.21630  0.70020  Biso   1.000  C
  C49      1.0000 0.09770  0.09380  0.17190  Biso   1.000  C
  C50      1.0000 0.90230  0.59380  0.32810  Biso   1.000  C
  C51      1.0000 0.90230  0.90620  0.82810  Biso   1.000  C
  C52      1.0000 0.09770  0.40620  0.67190  Biso   1.000  C
  C53      1.0000 0.11390  0.38020  0.51610  Biso   1.000  C
  C54      1.0000 0.88610  0.88020  0.98390  Biso   1.000  C
  C55      1.0000 0.88610  0.61980  0.48390  Biso   1.000  C
  C56      1.0000 0.11390  0.11980  0.01610  Biso   1.000  C
  C57      1.0000 0.17550  0.98730  0.07710  Biso   1.000  C
  C58      1.0000 0.82450  0.48730  0.42290  Biso   1.000  C
  C59      1.0000 0.82450  0.01270  0.92290  Biso   1.000  C
  C60      1.0000 0.17550  0.51270  0.57710  Biso   1.000  C
  C61      1.0000 0.12780  0.06660  0.08800  Biso   1.000  C
  C62      1.0000 0.87220  0.56660  0.41200  Biso   1.000  C
  C63      1.0000 0.87220  0.93340  0.91200  Biso   1.000  C
  C64      1.0000 0.12780  0.43340  0.58800  Biso   1.000  C
  C65      1.0000 0.49130  0.60140  0.41640  Biso   1.000  C
  C66      1.0000 0.50870  0.10140  0.08360  Biso   1.000  C
  C67      1.0000 0.50870  0.39860  0.58360  Biso   1.000  C
  C68      1.0000 0.49130  0.89860  0.91640  Biso   1.000  C
  C69      1.0000 0.30840  0.51850  0.33680  Biso   1.000  C
  C70      1.0000 0.69160  0.01850  0.16320  Biso   1.000  C
  C71      1.0000 0.69160  0.48150  0.66320  Biso   1.000  C
  C72      1.0000 0.30840  0.98150  0.83680  Biso   1.000  C
  C73      1.0000 0.52700  0.54020  0.27330  Biso   1.000  C
  C74      1.0000 0.47300  0.04020  0.22670  Biso   1.000  C
  C75      1.0000 0.47300  0.45980  0.72670  Biso   1.000  C
  C76      1.0000 0.52700  0.95980  0.77330  Biso   1.000  C
  C77      1.0000 0.44180  0.55370  0.34310  Biso   1.000  C
  C78      1.0000 0.55820  0.05370  0.15690  Biso   1.000  C
  C79      1.0000 0.55820  0.44630  0.65690  Biso   1.000  C
  C80      1.0000 0.44180  0.94630  0.84310  Biso   1.000  C
  H1       1.0000 0.34400  0.32500  0.41100  Biso   1.000  H
  H2       1.0000 0.65600  0.82500  0.08900  Biso   1.000  H
  H3       1.0000 0.65600  0.67500  0.58900  Biso   1.000  H
  H4       1.0000 0.34400  0.17500  0.91100  Biso   1.000  H
  H5       1.0000 0.53500  0.35600  0.33600  Biso   1.000  H
  H6       1.0000 0.46500  0.85600  0.16400  Biso   1.000  H
  H7       1.0000 0.46500  0.64400  0.66400  Biso   1.000  H
  H8       1.0000 0.53500  0.14400  0.83600  Biso   1.000  H
  H9       1.0000 0.50300  0.28900  0.17600  Biso   1.000  H
  H10      1.0000 0.49700  0.78900  0.32400  Biso   1.000  H
  H11      1.0000 0.49700  0.71100  0.82400  Biso   1.000  H
  H12      1.0000 0.50300  0.21100  0.67600  Biso   1.000  H
  H13      1.0000 0.26200  0.22100  0.18200  Biso   1.000  H
  H14      1.0000 0.73800  0.72100  0.31800  Biso   1.000  H
  H15      1.0000 0.73800  0.77900  0.81800  Biso   1.000  H
  H16      1.0000 0.26200  0.27900  0.68200  Biso   1.000  H
  H17      1.0000 0.29000  0.09600  0.37000  Biso   1.000  H
  H18      1.0000 0.71000  0.59600  0.13000  Biso   1.000  H
  H19      1.0000 0.71000  0.90400  0.63000  Biso   1.000  H
  H20      1.0000 0.29000  0.40400  0.87000  Biso   1.000  H
  H21      1.0000 0.35400  0.01400  0.49100  Biso   1.000  H
  H22      1.0000 0.64600  0.51400  0.00900  Biso   1.000  H
  H23      1.0000 0.64600  0.98600  0.50900  Biso   1.000  H
  H24      1.0000 0.35400  0.48600  0.99100  Biso   1.000  H
  H25      1.0000 0.25100  0.06900  0.62800  Biso   1.000  H
  H26      1.0000 0.74900  0.56900  0.87200  Biso   1.000  H
  H27      1.0000 0.74900  0.93100  0.37200  Biso   1.000  H
  H28      1.0000 0.25100  0.43100  0.12800  Biso   1.000  H
  H29      1.0000 0.10200  0.18000  0.54500  Biso   1.000  H
  H30      1.0000 0.89800  0.68000  0.95500  Biso   1.000  H
  H31      1.0000 0.89800  0.82000  0.45500  Biso   1.000  H
  H32      1.0000 0.10200  0.32000  0.04500  Biso   1.000  H
  H33      1.0000 0.83000  0.30100  0.43700  Biso   1.000  H
  H34      1.0000 0.17000  0.80100  0.06300  Biso   1.000  H
  H35      1.0000 0.17000  0.69900  0.56300  Biso   1.000  H
  H36      1.0000 0.83000  0.19900  0.93700  Biso   1.000  H
  H37      1.0000 0.62000  0.25000  0.46300  Biso   1.000  H
  H38      1.0000 0.38000  0.75000  0.03700  Biso   1.000  H
  H39      1.0000 0.38000  0.75000  0.53700  Biso   1.000  H
  H40      1.0000 0.62000  0.25000  0.96300  Biso   1.000  H
  H41      1.0000 0.63400  0.11100  0.40500  Biso   1.000  H
  H42      1.0000 0.36600  0.61100  0.09500  Biso   1.000  H
  H43      1.0000 0.36600  0.88900  0.59500  Biso   1.000  H
  H44      1.0000 0.63400  0.38900  0.90500  Biso   1.000  H
  H45      1.0000 0.86300  0.09100  0.35500  Biso   1.000  H
  H46      1.0000 0.13700  0.59100  0.14500  Biso   1.000  H
  H47      1.0000 0.13700  0.90900  0.64500  Biso   1.000  H
  H48      1.0000 0.86300  0.40900  0.85500  Biso   1.000  H
  H49      1.0000 0.07100  0.40200  0.29200  Biso   1.000  H
  H50      1.0000 0.92900  0.90200  0.20800  Biso   1.000  H
  H51      1.0000 0.92900  0.59800  0.70800  Biso   1.000  H
  H52      1.0000 0.07100  0.09800  0.79200  Biso   1.000  H
  H53      1.0000 0.90800  0.46200  0.18400  Biso   1.000  H
  H54      1.0000 0.09200  0.96200  0.31600  Biso   1.000  H
  H55      1.0000 0.09200  0.53800  0.81600  Biso   1.000  H
  H56      1.0000 0.90800  0.03800  0.68400  Biso   1.000  H
  H57      1.0000 0.76400  0.35400  0.11200  Biso   1.000  H
  H58      1.0000 0.23600  0.85400  0.38800  Biso   1.000  H
  H59      1.0000 0.23600  0.64600  0.88800  Biso   1.000  H
  H60      1.0000 0.76400  0.14600  0.61200  Biso   1.000  H
  H61      1.0000 0.84500  0.23100  0.19700  Biso   1.000  H
  H62      1.0000 0.15500  0.73100  0.30300  Biso   1.000  H
  H63      1.0000 0.15500  0.76900  0.80300  Biso   1.000  H
  H64      1.0000 0.84500  0.26900  0.69700  Biso   1.000  H
