data_image0
_cell_length_a       7.1346
_cell_length_b       10.649
_cell_length_c       7.34
_cell_angle_alpha    90
_cell_angle_beta     90
_cell_angle_gamma    90

_symmetry_space_group_name_H-M    "P 1"
_symmetry_int_tables_number       1

loop_
  _symmetry_equiv_pos_as_xyz
  'x, y, z'

loop_
  _atom_site_label
  _atom_site_occupancy
  _atom_site_fract_x
  _atom_site_fract_y
  _atom_site_fract_z
  _atom_site_thermal_displace_type
  _atom_site_B_iso_or_equiv
  _atom_site_type_symbol
  Cu1      1.0000 0.00000  0.00000  0.50000  Biso   1.000  Cu
  Cu2      1.0000 0.50000  0.00000  0.50000  Biso   1.000  Cu
  S1       1.0000 0.25000  0.32871  0.19910  Biso   1.000  S
  S2       1.0000 0.25000  0.67129  0.19910  Biso   1.000  S
  S3       1.0000 0.75000  0.32871  0.80090  Biso   1.000  S
  S4       1.0000 0.75000  0.67129  0.80090  Biso   1.000  S
  O1       1.0000 0.25000  0.00000  0.70340  Biso   1.000  O
  O2       1.0000 0.75000  0.00000  0.29660  Biso   1.000  O
  O3       1.0000 0.25000  0.09740  0.94930  Biso   1.000  O
  O4       1.0000 0.25000  0.90260  0.94930  Biso   1.000  O
  O5       1.0000 0.75000  0.09740  0.05070  Biso   1.000  O
  O6       1.0000 0.75000  0.90260  0.05070  Biso   1.000  O
  N1       1.0000 0.15400  0.13420  0.37170  Biso   1.000  N
  N2       1.0000 0.34600  0.86580  0.37170  Biso   1.000  N
  N3       1.0000 0.84600  0.13420  0.62830  Biso   1.000  N
  N4       1.0000 0.65400  0.86580  0.62830  Biso   1.000  N
  N5       1.0000 0.84600  0.86580  0.62830  Biso   1.000  N
  N6       1.0000 0.65400  0.13420  0.62830  Biso   1.000  N
  N7       1.0000 0.15400  0.86580  0.37170  Biso   1.000  N
  N8       1.0000 0.34600  0.13420  0.37170  Biso   1.000  N
  N9       1.0000 0.25000  0.00000  0.87090  Biso   1.000  N
  N10      1.0000 0.75000  0.00000  0.12910  Biso   1.000  N
  C1       1.0000 0.08540  0.22980  0.28480  Biso   1.000  C
  C2       1.0000 0.41460  0.77020  0.28480  Biso   1.000  C
  C3       1.0000 0.91460  0.22980  0.71520  Biso   1.000  C
  C4       1.0000 0.58540  0.77020  0.71520  Biso   1.000  C
  C5       1.0000 0.91460  0.77020  0.71520  Biso   1.000  C
  C6       1.0000 0.58540  0.22980  0.71520  Biso   1.000  C
  C7       1.0000 0.08540  0.77020  0.28480  Biso   1.000  C
  C8       1.0000 0.41460  0.22980  0.28480  Biso   1.000  C
  H1       1.0000 0.95730  0.24300  0.27070  Biso   1.000  H
  H2       1.0000 0.54270  0.75700  0.27070  Biso   1.000  H
  H3       1.0000 0.04270  0.24300  0.72930  Biso   1.000  H
  H4       1.0000 0.45730  0.75700  0.72930  Biso   1.000  H
  H5       1.0000 0.04270  0.75700  0.72930  Biso   1.000  H
  H6       1.0000 0.45730  0.24300  0.72930  Biso   1.000  H
  H7       1.0000 0.95730  0.75700  0.27070  Biso   1.000  H
  H8       1.0000 0.54270  0.24300  0.27070  Biso   1.000  H
  O7       1.0000 0.75000  0.39830  0.31420  Biso   1.000  O
  O8       1.0000 0.75000  0.60170  0.31420  Biso   1.000  O
  O9       1.0000 0.25000  0.39830  0.68580  Biso   1.000  O
  O10      1.0000 0.25000  0.60170  0.68580  Biso   1.000  O
  O11      1.0000 0.93120  0.50000  0.15740  Biso   1.000  O
  O12      1.0000 0.56880  0.50000  0.15740  Biso   1.000  O
  O13      1.0000 0.06880  0.50000  0.84260  Biso   1.000  O
  O14      1.0000 0.43120  0.50000  0.84260  Biso   1.000  O
  N11      1.0000 0.79410  0.50000  0.25710  Biso   1.000  N
  N12      1.0000 0.70590  0.50000  0.25710  Biso   1.000  N
  N13      1.0000 0.20590  0.50000  0.74290  Biso   1.000  N
  N14      1.0000 0.29410  0.50000  0.74290  Biso   1.000  N
