data_image0
_cell_length_a       8.106
_cell_length_b       23.918
_cell_length_c       8.946
_cell_angle_alpha    90
_cell_angle_beta     106.9
_cell_angle_gamma    90

_symmetry_space_group_name_H-M    "P 1"
_symmetry_int_tables_number       1

loop_
  _symmetry_equiv_pos_as_xyz
  'x, y, z'

loop_
  _atom_site_label
  _atom_site_occupancy
  _atom_site_fract_x
  _atom_site_fract_y
  _atom_site_fract_z
  _atom_site_thermal_displace_type
  _atom_site_B_iso_or_equiv
  _atom_site_type_symbol
  Cu1      1.0000 0.95850  0.25987  0.28607  Biso   1.000  Cu
  Cu2      1.0000 0.04150  0.75987  0.21393  Biso   1.000  Cu
  Cu3      1.0000 0.04150  0.74013  0.71393  Biso   1.000  Cu
  Cu4      1.0000 0.95850  0.24013  0.78607  Biso   1.000  Cu
  C1       1.0000 0.74660  0.28239  0.99710  Biso   1.000  C
  C2       1.0000 0.25340  0.78239  0.50290  Biso   1.000  C
  C3       1.0000 0.25340  0.71761  0.00290  Biso   1.000  C
  C4       1.0000 0.74660  0.21761  0.49710  Biso   1.000  C
  C5       1.0000 0.59610  0.29970  0.86000  Biso   1.000  C
  C6       1.0000 0.40390  0.79970  0.64000  Biso   1.000  C
  C7       1.0000 0.40390  0.70030  0.14000  Biso   1.000  C
  C8       1.0000 0.59610  0.20030  0.36000  Biso   1.000  C
  H1       1.0000 0.62240  0.29180  0.76420  Biso   1.000  H
  H2       1.0000 0.37760  0.79180  0.73580  Biso   1.000  H
  H3       1.0000 0.37760  0.70820  0.23580  Biso   1.000  H
  H4       1.0000 0.62240  0.20820  0.26420  Biso   1.000  H
  H5       1.0000 0.57550  0.33900  0.86630  Biso   1.000  H
  H6       1.0000 0.42450  0.83900  0.63370  Biso   1.000  H
  H7       1.0000 0.42450  0.66100  0.13370  Biso   1.000  H
  H8       1.0000 0.57550  0.16100  0.36630  Biso   1.000  H
  H9       1.0000 0.49510  0.27930  0.86250  Biso   1.000  H
  H10      1.0000 0.50490  0.77930  0.63750  Biso   1.000  H
  H11      1.0000 0.50490  0.72070  0.13750  Biso   1.000  H
  H12      1.0000 0.49510  0.22070  0.36250  Biso   1.000  H
  C9       1.0000 0.17830  0.33727  0.41740  Biso   1.000  C
  C10      1.0000 0.82170  0.83727  0.08260  Biso   1.000  C
  C11      1.0000 0.82170  0.66273  0.58260  Biso   1.000  C
  C12      1.0000 0.17830  0.16273  0.91740  Biso   1.000  C
  C13      1.0000 0.33810  0.37225  0.48100  Biso   1.000  C
  C14      1.0000 0.66190  0.87225  0.01900  Biso   1.000  C
  C15      1.0000 0.66190  0.62775  0.51900  Biso   1.000  C
  C16      1.0000 0.33810  0.12775  0.98100  Biso   1.000  C
  C17      1.0000 0.49650  0.36320  0.44390  Biso   1.000  C
  C18      1.0000 0.50350  0.86320  0.05610  Biso   1.000  C
  C19      1.0000 0.50350  0.63680  0.55610  Biso   1.000  C
  C20      1.0000 0.49650  0.13680  0.94390  Biso   1.000  C
  H13      1.0000 0.50360  0.33400  0.37730  Biso   1.000  H
  H14      1.0000 0.49640  0.83400  0.12270  Biso   1.000  H
  H15      1.0000 0.49640  0.66600  0.62270  Biso   1.000  H
  H16      1.0000 0.50360  0.16600  0.87730  Biso   1.000  H
  C21      1.0000 0.64070  0.39724  0.50560  Biso   1.000  C
  C22      1.0000 0.35930  0.89724  0.99440  Biso   1.000  C
  C23      1.0000 0.35930  0.60276  0.49440  Biso   1.000  C
  C24      1.0000 0.64070  0.10276  0.00560  Biso   1.000  C
  H17      1.0000 0.74230  0.39120  0.47960  Biso   1.000  H
  H18      1.0000 0.25770  0.89120  0.02040  Biso   1.000  H
  H19      1.0000 0.25770  0.60880  0.52040  Biso   1.000  H
  H20      1.0000 0.74230  0.10880  0.97960  Biso   1.000  H
  C25      1.0000 0.62920  0.43991  0.60580  Biso   1.000  C
  C26      1.0000 0.37080  0.93991  0.89420  Biso   1.000  C
  C27      1.0000 0.37080  0.56009  0.39420  Biso   1.000  C
  C28      1.0000 0.62920  0.06009  0.10580  Biso   1.000  C
  C29      1.0000 0.47600  0.44926  0.64660  Biso   1.000  C
  C30      1.0000 0.52400  0.94926  0.85340  Biso   1.000  C
  C31      1.0000 0.52400  0.55074  0.35340  Biso   1.000  C
  C32      1.0000 0.47600  0.05074  0.14660  Biso   1.000  C
  H21      1.0000 0.47120  0.47780  0.71580  Biso   1.000  H
  H22      1.0000 0.52880  0.97780  0.78420  Biso   1.000  H
  H23      1.0000 0.52880  0.52220  0.28420  Biso   1.000  H
  H24      1.0000 0.47120  0.02220  0.21580  Biso   1.000  H
  C33      1.0000 0.32980  0.41525  0.58240  Biso   1.000  C
  C34      1.0000 0.67020  0.91525  0.91760  Biso   1.000  C
  C35      1.0000 0.67020  0.58475  0.41760  Biso   1.000  C
  C36      1.0000 0.32980  0.08475  0.08240  Biso   1.000  C
  H25      1.0000 0.22830  0.42170  0.60820  Biso   1.000  H
  H26      1.0000 0.77170  0.92170  0.89180  Biso   1.000  H
  H27      1.0000 0.77170  0.57830  0.39180  Biso   1.000  H
  H28      1.0000 0.22830  0.07830  0.10820  Biso   1.000  H
  C37      1.0000 0.91940  0.54195  0.83630  Biso   1.000  C
  C38      1.0000 0.08060  0.04195  0.66370  Biso   1.000  C
  C39      1.0000 0.08060  0.45805  0.16370  Biso   1.000  C
  C40      1.0000 0.91940  0.95805  0.33630  Biso   1.000  C
  C41      1.0000 0.08410  0.53851  0.78970  Biso   1.000  C
  C42      1.0000 0.91590  0.03851  0.71030  Biso   1.000  C
  C43      1.0000 0.91590  0.46149  0.21030  Biso   1.000  C
  C44      1.0000 0.08410  0.96149  0.28970  Biso   1.000  C
  C45      1.0000 0.89590  0.58020  0.95950  Biso   1.000  C
  C46      1.0000 0.10410  0.08020  0.54050  Biso   1.000  C
  C47      1.0000 0.10410  0.41980  0.04050  Biso   1.000  C
  C48      1.0000 0.89590  0.91980  0.45950  Biso   1.000  C
  C49      1.0000 0.71550  0.58790  0.97590  Biso   1.000  C
  C50      1.0000 0.28450  0.08790  0.52410  Biso   1.000  C
  C51      1.0000 0.28450  0.41210  0.02410  Biso   1.000  C
  C52      1.0000 0.71550  0.91210  0.47590  Biso   1.000  C
  H29      1.0000 0.72010  0.61330  0.06000  Biso   1.000  H
  H30      1.0000 0.27990  0.11330  0.44000  Biso   1.000  H
  H31      1.0000 0.27990  0.38670  0.94000  Biso   1.000  H
  H32      1.0000 0.72010  0.88670  0.56000  Biso   1.000  H
  H33      1.0000 0.67200  0.55240  0.99780  Biso   1.000  H
  H34      1.0000 0.32800  0.05240  0.50220  Biso   1.000  H
  H35      1.0000 0.32800  0.44760  0.00220  Biso   1.000  H
  H36      1.0000 0.67200  0.94760  0.49780  Biso   1.000  H
  H37      1.0000 0.64090  0.60270  0.88040  Biso   1.000  H
  H38      1.0000 0.35910  0.10270  0.61960  Biso   1.000  H
  H39      1.0000 0.35910  0.39730  0.11960  Biso   1.000  H
  H40      1.0000 0.64090  0.89730  0.38040  Biso   1.000  H
  C53      1.0000 0.24230  0.57120  0.87050  Biso   1.000  C
  C54      1.0000 0.75770  0.07120  0.62950  Biso   1.000  C
  C55      1.0000 0.75770  0.42880  0.12950  Biso   1.000  C
  C56      1.0000 0.24230  0.92880  0.37050  Biso   1.000  C
  H41      1.0000 0.33190  0.56310  0.82330  Biso   1.000  H
  H42      1.0000 0.66810  0.06310  0.67670  Biso   1.000  H
  H43      1.0000 0.66810  0.43690  0.17670  Biso   1.000  H
  H44      1.0000 0.33190  0.93690  0.32330  Biso   1.000  H
  H45      1.0000 0.28010  0.56100  0.97900  Biso   1.000  H
  H46      1.0000 0.71990  0.06100  0.52100  Biso   1.000  H
  H47      1.0000 0.71990  0.43900  0.02100  Biso   1.000  H
  H48      1.0000 0.28010  0.93900  0.47900  Biso   1.000  H
  H49      1.0000 0.21640  0.61040  0.86120  Biso   1.000  H
  H50      1.0000 0.78360  0.11040  0.63880  Biso   1.000  H
  H51      1.0000 0.78360  0.38960  0.13880  Biso   1.000  H
  H52      1.0000 0.21640  0.88960  0.36120  Biso   1.000  H
  N1       1.0000 0.77690  0.47437  0.66390  Biso   1.000  N
  N2       1.0000 0.22310  0.97437  0.83610  Biso   1.000  N
  N3       1.0000 0.22310  0.52563  0.33610  Biso   1.000  N
  N4       1.0000 0.77690  0.02563  0.16390  Biso   1.000  N
  H53      1.0000 0.87200  0.47100  0.62500  Biso   1.000  H
  H54      1.0000 0.12800  0.97100  0.87500  Biso   1.000  H
  H55      1.0000 0.12800  0.52900  0.37500  Biso   1.000  H
  H56      1.0000 0.87200  0.02900  0.12500  Biso   1.000  H
  N5       1.0000 0.77790  0.51093  0.77250  Biso   1.000  N
  N6       1.0000 0.22210  0.01093  0.72750  Biso   1.000  N
  N7       1.0000 0.22210  0.48907  0.22750  Biso   1.000  N
  N8       1.0000 0.77790  0.98907  0.27250  Biso   1.000  N
  O1       1.0000 0.01990  0.60409  0.04860  Biso   1.000  O
  O2       1.0000 0.98010  0.10409  0.45140  Biso   1.000  O
  O3       1.0000 0.98010  0.39591  0.95140  Biso   1.000  O
  O4       1.0000 0.01990  0.89591  0.54860  Biso   1.000  O
  O5       1.0000 0.09050  0.50681  0.68230  Biso   1.000  O
  O6       1.0000 0.90950  0.00681  0.81770  Biso   1.000  O
  O7       1.0000 0.90950  0.49319  0.31770  Biso   1.000  O
  O8       1.0000 0.09050  0.99319  0.18230  Biso   1.000  O
  O9       1.0000 0.18810  0.29684  0.32920  Biso   1.000  O
  O10      1.0000 0.81190  0.79684  0.17080  Biso   1.000  O
  O11      1.0000 0.81190  0.70316  0.67080  Biso   1.000  O
  O12      1.0000 0.18810  0.20316  0.82920  Biso   1.000  O
  O13      1.0000 0.04030  0.34837  0.44970  Biso   1.000  O
  O14      1.0000 0.95970  0.84837  0.05030  Biso   1.000  O
  O15      1.0000 0.95970  0.65163  0.55030  Biso   1.000  O
  O16      1.0000 0.04030  0.15163  0.94970  Biso   1.000  O
  O17      1.0000 0.73790  0.28883  0.13650  Biso   1.000  O
  O18      1.0000 0.26210  0.78883  0.36350  Biso   1.000  O
  O19      1.0000 0.26210  0.71117  0.86350  Biso   1.000  O
  O20      1.0000 0.73790  0.21117  0.63650  Biso   1.000  O
  O21      1.0000 0.88460  0.26235  0.97600  Biso   1.000  O
  O22      1.0000 0.11540  0.76235  0.52400  Biso   1.000  O
  O23      1.0000 0.11540  0.73765  0.02400  Biso   1.000  O
  O24      1.0000 0.88460  0.23765  0.47600  Biso   1.000  O
  O25      1.0000 0.01680  0.18300  0.24140  Biso   1.000  O
  O26      1.0000 0.98320  0.68300  0.25860  Biso   1.000  O
  O27      1.0000 0.98320  0.81700  0.75860  Biso   1.000  O
  O28      1.0000 0.01680  0.31700  0.74140  Biso   1.000  O
  H57      1.0000 0.01900  0.15690  0.30500  Biso   1.000  H
  H58      1.0000 0.98100  0.65690  0.19500  Biso   1.000  H
  H59      1.0000 0.98100  0.84310  0.69500  Biso   1.000  H
  H60      1.0000 0.01900  0.34310  0.80500  Biso   1.000  H
  H61      1.0000 0.05600  0.17200  0.16900  Biso   1.000  H
  H62      1.0000 0.94400  0.67200  0.33100  Biso   1.000  H
  H63      1.0000 0.94400  0.82800  0.83100  Biso   1.000  H
  H64      1.0000 0.05600  0.32800  0.66900  Biso   1.000  H
