data_image0
_cell_length_a       15.531
_cell_length_b       10.389
_cell_length_c       15.987
_cell_angle_alpha    90
_cell_angle_beta     90
_cell_angle_gamma    90

_symmetry_space_group_name_H-M    "P 1"
_symmetry_int_tables_number       1

loop_
  _symmetry_equiv_pos_as_xyz
  'x, y, z'

loop_
  _atom_site_label
  _atom_site_occupancy
  _atom_site_fract_x
  _atom_site_fract_y
  _atom_site_fract_z
  _atom_site_thermal_displace_type
  _atom_site_B_iso_or_equiv
  _atom_site_type_symbol
  Cu1      1.0000 0.68084  0.14204  0.21851  Biso   1.000  Cu
  Cu2      1.0000 0.18084  0.35796  0.78149  Biso   1.000  Cu
  Cu3      1.0000 0.31916  0.64204  0.28149  Biso   1.000  Cu
  Cu4      1.0000 0.81916  0.85796  0.71851  Biso   1.000  Cu
  Cu5      1.0000 0.31916  0.85796  0.78149  Biso   1.000  Cu
  Cu6      1.0000 0.81916  0.64204  0.21851  Biso   1.000  Cu
  Cu7      1.0000 0.68084  0.35796  0.71851  Biso   1.000  Cu
  Cu8      1.0000 0.18084  0.14204  0.28149  Biso   1.000  Cu
  S1       1.0000 0.54195  0.20685  0.24225  Biso   1.000  S
  S2       1.0000 0.04195  0.29315  0.75775  Biso   1.000  S
  S3       1.0000 0.45805  0.70685  0.25775  Biso   1.000  S
  S4       1.0000 0.95805  0.79315  0.74225  Biso   1.000  S
  S5       1.0000 0.45805  0.79315  0.75775  Biso   1.000  S
  S6       1.0000 0.95805  0.70685  0.24225  Biso   1.000  S
  S7       1.0000 0.54195  0.29315  0.74225  Biso   1.000  S
  S8       1.0000 0.04195  0.20685  0.25775  Biso   1.000  S
  S9       1.0000 0.67974  0.97460  0.36260  Biso   1.000  S
  S10      1.0000 0.17974  0.52540  0.63740  Biso   1.000  S
  S11      1.0000 0.32026  0.47460  0.13740  Biso   1.000  S
  S12      1.0000 0.82026  0.02540  0.86260  Biso   1.000  S
  S13      1.0000 0.32026  0.02540  0.63740  Biso   1.000  S
  S14      1.0000 0.82026  0.47460  0.36260  Biso   1.000  S
  S15      1.0000 0.67974  0.52540  0.86260  Biso   1.000  S
  S16      1.0000 0.17974  0.97460  0.13740  Biso   1.000  S
  O1       1.0000 0.87020  0.62310  0.95540  Biso   1.000  O
  O2       1.0000 0.37020  0.87690  0.04460  Biso   1.000  O
  O3       1.0000 0.12980  0.12310  0.54460  Biso   1.000  O
  O4       1.0000 0.62980  0.37690  0.45540  Biso   1.000  O
  O5       1.0000 0.12980  0.37690  0.04460  Biso   1.000  O
  O6       1.0000 0.62980  0.12310  0.95540  Biso   1.000  O
  O7       1.0000 0.87020  0.87690  0.45540  Biso   1.000  O
  O8       1.0000 0.37020  0.62310  0.54460  Biso   1.000  O
  C1       1.0000 0.49560  0.08910  0.18560  Biso   1.000  C
  C2       1.0000 0.99560  0.41090  0.81440  Biso   1.000  C
  C3       1.0000 0.50440  0.58910  0.31440  Biso   1.000  C
  C4       1.0000 0.00440  0.91090  0.68560  Biso   1.000  C
  C5       1.0000 0.50440  0.91090  0.81440  Biso   1.000  C
  C6       1.0000 0.00440  0.58910  0.18560  Biso   1.000  C
  C7       1.0000 0.49560  0.41090  0.68560  Biso   1.000  C
  C8       1.0000 0.99560  0.08910  0.31440  Biso   1.000  C
  N1       1.0000 0.54240  0.00210  0.14300  Biso   1.000  N
  N2       1.0000 0.04240  0.49790  0.85700  Biso   1.000  N
  N3       1.0000 0.45760  0.50210  0.35700  Biso   1.000  N
  N4       1.0000 0.95760  0.99790  0.64300  Biso   1.000  N
  N5       1.0000 0.45760  0.99790  0.85700  Biso   1.000  N
  N6       1.0000 0.95760  0.50210  0.14300  Biso   1.000  N
  N7       1.0000 0.54240  0.49790  0.64300  Biso   1.000  N
  N8       1.0000 0.04240  0.00210  0.35700  Biso   1.000  N
  C9       1.0000 0.73100  0.85920  0.31650  Biso   1.000  C
  C10      1.0000 0.23100  0.64080  0.68350  Biso   1.000  C
  C11      1.0000 0.26900  0.35920  0.18350  Biso   1.000  C
  C12      1.0000 0.76900  0.14080  0.81650  Biso   1.000  C
  C13      1.0000 0.26900  0.14080  0.68350  Biso   1.000  C
  C14      1.0000 0.76900  0.35920  0.31650  Biso   1.000  C
  C15      1.0000 0.73100  0.64080  0.81650  Biso   1.000  C
  C16      1.0000 0.23100  0.85920  0.18350  Biso   1.000  C
  C17      1.0000 0.76400  0.91960  0.09140  Biso   1.000  C
  C18      1.0000 0.26400  0.58040  0.90860  Biso   1.000  C
  C19      1.0000 0.23600  0.41960  0.40860  Biso   1.000  C
  C20      1.0000 0.73600  0.08040  0.59140  Biso   1.000  C
  C21      1.0000 0.23600  0.08040  0.90860  Biso   1.000  C
  C22      1.0000 0.73600  0.41960  0.09140  Biso   1.000  C
  C23      1.0000 0.76400  0.58040  0.59140  Biso   1.000  C
  C24      1.0000 0.26400  0.91960  0.40860  Biso   1.000  C
  N9       1.0000 0.63160  0.01070  0.14530  Biso   1.000  N
  N10      1.0000 0.13160  0.48930  0.85470  Biso   1.000  N
  N11      1.0000 0.36840  0.51070  0.35470  Biso   1.000  N
  N12      1.0000 0.86840  0.98930  0.64530  Biso   1.000  N
  N13      1.0000 0.36840  0.98930  0.85470  Biso   1.000  N
  N14      1.0000 0.86840  0.51070  0.14530  Biso   1.000  N
  N15      1.0000 0.63160  0.48930  0.64530  Biso   1.000  N
  N16      1.0000 0.13160  0.01070  0.35470  Biso   1.000  N
  N17      1.0000 0.91840  0.70780  0.98080  Biso   1.000  N
  N18      1.0000 0.41840  0.79220  0.01920  Biso   1.000  N
  N19      1.0000 0.08160  0.20780  0.51920  Biso   1.000  N
  N20      1.0000 0.58160  0.29220  0.48080  Biso   1.000  N
  N21      1.0000 0.08160  0.29220  0.01920  Biso   1.000  N
  N22      1.0000 0.58160  0.20780  0.98080  Biso   1.000  N
  N23      1.0000 0.91840  0.79220  0.48080  Biso   1.000  N
  N24      1.0000 0.41840  0.70780  0.51920  Biso   1.000  N
  O9       1.0000 0.79472  0.10610  0.17504  Biso   1.000  O
  O10      1.0000 0.29472  0.39390  0.82496  Biso   1.000  O
  O11      1.0000 0.20528  0.60610  0.32496  Biso   1.000  O
  O12      1.0000 0.70528  0.89390  0.67504  Biso   1.000  O
  O13      1.0000 0.20528  0.89390  0.82496  Biso   1.000  O
  O14      1.0000 0.70528  0.60610  0.17504  Biso   1.000  O
  O15      1.0000 0.79472  0.39390  0.67504  Biso   1.000  O
  O16      1.0000 0.29472  0.10610  0.32496  Biso   1.000  O
  C25      1.0000 0.79690  0.82030  0.04170  Biso   1.000  C
  C26      1.0000 0.29690  0.67970  0.95830  Biso   1.000  C
  C27      1.0000 0.20310  0.32030  0.45830  Biso   1.000  C
  C28      1.0000 0.70310  0.17970  0.54170  Biso   1.000  C
  C29      1.0000 0.20310  0.17970  0.95830  Biso   1.000  C
  C30      1.0000 0.70310  0.32030  0.04170  Biso   1.000  C
  C31      1.0000 0.79690  0.67970  0.54170  Biso   1.000  C
  C32      1.0000 0.29690  0.82030  0.45830  Biso   1.000  C
  C33      1.0000 0.94100  0.90360  0.06280  Biso   1.000  C
  C34      1.0000 0.44100  0.59640  0.93720  Biso   1.000  C
  C35      1.0000 0.05900  0.40360  0.43720  Biso   1.000  C
  C36      1.0000 0.55900  0.09640  0.56280  Biso   1.000  C
  C37      1.0000 0.05900  0.09640  0.93720  Biso   1.000  C
  C38      1.0000 0.55900  0.40360  0.06280  Biso   1.000  C
  C39      1.0000 0.94100  0.59640  0.56280  Biso   1.000  C
  C40      1.0000 0.44100  0.90360  0.43720  Biso   1.000  C
  C41      1.0000 0.90980  0.00110  0.10920  Biso   1.000  C
  C42      1.0000 0.40980  0.49890  0.89080  Biso   1.000  C
  C43      1.0000 0.09020  0.50110  0.39080  Biso   1.000  C
  C44      1.0000 0.59020  0.99890  0.60920  Biso   1.000  C
  C45      1.0000 0.09020  0.99890  0.89080  Biso   1.000  C
  C46      1.0000 0.59020  0.50110  0.10920  Biso   1.000  C
  C47      1.0000 0.90980  0.49890  0.60920  Biso   1.000  C
  C48      1.0000 0.40980  0.00110  0.39080  Biso   1.000  C
  C49      1.0000 0.88420  0.81290  0.02940  Biso   1.000  C
  C50      1.0000 0.38420  0.68710  0.97060  Biso   1.000  C
  C51      1.0000 0.11580  0.31290  0.47060  Biso   1.000  C
  C52      1.0000 0.61580  0.18710  0.52940  Biso   1.000  C
  C53      1.0000 0.11580  0.18710  0.97060  Biso   1.000  C
  C54      1.0000 0.61580  0.31290  0.02940  Biso   1.000  C
  C55      1.0000 0.88420  0.68710  0.52940  Biso   1.000  C
  C56      1.0000 0.38420  0.81290  0.47060  Biso   1.000  C
  O17      1.0000 0.99600  0.70470  0.96690  Biso   1.000  O
  O18      1.0000 0.49600  0.79530  0.03310  Biso   1.000  O
  O19      1.0000 0.00400  0.20470  0.53310  Biso   1.000  O
  O20      1.0000 0.50400  0.29530  0.46690  Biso   1.000  O
  O21      1.0000 0.00400  0.29530  0.03310  Biso   1.000  O
  O22      1.0000 0.50400  0.20470  0.96690  Biso   1.000  O
  O23      1.0000 0.99600  0.79530  0.46690  Biso   1.000  O
  O24      1.0000 0.49600  0.70470  0.53310  Biso   1.000  O
  N25      1.0000 0.41080  0.07690  0.17850  Biso   1.000  N
  N26      1.0000 0.91080  0.42310  0.82150  Biso   1.000  N
  N27      1.0000 0.58920  0.57690  0.32150  Biso   1.000  N
  N28      1.0000 0.08920  0.92310  0.67850  Biso   1.000  N
  N29      1.0000 0.58920  0.92310  0.82150  Biso   1.000  N
  N30      1.0000 0.08920  0.57690  0.17850  Biso   1.000  N
  N31      1.0000 0.41080  0.42310  0.67850  Biso   1.000  N
  N32      1.0000 0.91080  0.07690  0.32150  Biso   1.000  N
  C57      1.0000 0.67210  0.92640  0.10120  Biso   1.000  C
  C58      1.0000 0.17210  0.57360  0.89880  Biso   1.000  C
  C59      1.0000 0.32790  0.42640  0.39880  Biso   1.000  C
  C60      1.0000 0.82790  0.07360  0.60120  Biso   1.000  C
  C61      1.0000 0.32790  0.07360  0.89880  Biso   1.000  C
  C62      1.0000 0.82790  0.42640  0.10120  Biso   1.000  C
  C63      1.0000 0.67210  0.57360  0.60120  Biso   1.000  C
  C64      1.0000 0.17210  0.92640  0.39880  Biso   1.000  C
  C65      1.0000 0.82040  0.01270  0.12680  Biso   1.000  C
  C66      1.0000 0.32040  0.48730  0.87320  Biso   1.000  C
  C67      1.0000 0.17960  0.51270  0.37320  Biso   1.000  C
  C68      1.0000 0.67960  0.98730  0.62680  Biso   1.000  C
  C69      1.0000 0.17960  0.98730  0.87320  Biso   1.000  C
  C70      1.0000 0.67960  0.51270  0.12680  Biso   1.000  C
  C71      1.0000 0.82040  0.48730  0.62680  Biso   1.000  C
  C72      1.0000 0.32040  0.01270  0.37320  Biso   1.000  C
  N33      1.0000 0.76920  0.77920  0.28360  Biso   1.000  N
  N34      1.0000 0.26920  0.72080  0.71640  Biso   1.000  N
  N35      1.0000 0.23080  0.27920  0.21640  Biso   1.000  N
  N36      1.0000 0.73080  0.22080  0.78360  Biso   1.000  N
  N37      1.0000 0.23080  0.22080  0.71640  Biso   1.000  N
  N38      1.0000 0.73080  0.27920  0.28360  Biso   1.000  N
  N39      1.0000 0.76920  0.72080  0.78360  Biso   1.000  N
  N40      1.0000 0.26920  0.77920  0.21640  Biso   1.000  N
  H1       1.0000 0.76080  0.76010  0.01670  Biso   1.000  H
  H2       1.0000 0.26080  0.73990  0.98330  Biso   1.000  H
  H3       1.0000 0.23920  0.26010  0.48330  Biso   1.000  H
  H4       1.0000 0.73920  0.23990  0.51670  Biso   1.000  H
  H5       1.0000 0.23920  0.23990  0.98330  Biso   1.000  H
  H6       1.0000 0.73920  0.26010  0.01670  Biso   1.000  H
  H7       1.0000 0.76080  0.73990  0.51670  Biso   1.000  H
  H8       1.0000 0.26080  0.76010  0.48330  Biso   1.000  H
  H9       1.0000 0.00040  0.89460  0.05340  Biso   1.000  H
  H10      1.0000 0.50040  0.60540  0.94660  Biso   1.000  H
  H11      1.0000 0.99960  0.39460  0.44660  Biso   1.000  H
  H12      1.0000 0.49960  0.10540  0.55340  Biso   1.000  H
  H13      1.0000 0.99960  0.10540  0.94660  Biso   1.000  H
  H14      1.0000 0.49960  0.39460  0.05340  Biso   1.000  H
  H15      1.0000 0.00040  0.60540  0.55340  Biso   1.000  H
  H16      1.0000 0.50040  0.89460  0.44660  Biso   1.000  H
  H17      1.0000 0.94630  0.06400  0.13010  Biso   1.000  H
  H18      1.0000 0.44630  0.43600  0.86990  Biso   1.000  H
  H19      1.0000 0.05370  0.56400  0.36990  Biso   1.000  H
  H20      1.0000 0.55370  0.93600  0.63010  Biso   1.000  H
  H21      1.0000 0.05370  0.93600  0.86990  Biso   1.000  H
  H22      1.0000 0.55370  0.56400  0.13010  Biso   1.000  H
  H23      1.0000 0.94630  0.43600  0.63010  Biso   1.000  H
  H24      1.0000 0.44630  0.06400  0.36990  Biso   1.000  H
  H25      1.0000 0.63800  0.86370  0.07370  Biso   1.000  H
  H26      1.0000 0.13800  0.63630  0.92630  Biso   1.000  H
  H27      1.0000 0.36200  0.36370  0.42630  Biso   1.000  H
  H28      1.0000 0.86200  0.13630  0.57370  Biso   1.000  H
  H29      1.0000 0.36200  0.13630  0.92630  Biso   1.000  H
  H30      1.0000 0.86200  0.36370  0.07370  Biso   1.000  H
  H31      1.0000 0.63800  0.63630  0.57370  Biso   1.000  H
  H32      1.0000 0.13800  0.86370  0.42630  Biso   1.000  H
  H33      1.0000 0.51790  0.94360  0.11160  Biso   1.000  H
  H34      1.0000 0.01790  0.55640  0.88840  Biso   1.000  H
  H35      1.0000 0.48210  0.44360  0.38840  Biso   1.000  H
  H36      1.0000 0.98210  0.05640  0.61160  Biso   1.000  H
  H37      1.0000 0.48210  0.05640  0.88840  Biso   1.000  H
  H38      1.0000 0.98210  0.44360  0.11160  Biso   1.000  H
  H39      1.0000 0.51790  0.55640  0.61160  Biso   1.000  H
  H40      1.0000 0.01790  0.94360  0.38840  Biso   1.000  H
  H41      1.0000 0.37880  0.12090  0.21160  Biso   1.000  H
  H42      1.0000 0.87880  0.37910  0.78840  Biso   1.000  H
  H43      1.0000 0.62120  0.62090  0.28840  Biso   1.000  H
  H44      1.0000 0.12120  0.87910  0.71160  Biso   1.000  H
  H45      1.0000 0.62120  0.87910  0.78840  Biso   1.000  H
  H46      1.0000 0.12120  0.62090  0.21160  Biso   1.000  H
  H47      1.0000 0.37880  0.37910  0.71160  Biso   1.000  H
  H48      1.0000 0.87880  0.12090  0.28840  Biso   1.000  H
  H49      1.0000 0.39010  0.02660  0.14030  Biso   1.000  H
  H50      1.0000 0.89010  0.47340  0.85970  Biso   1.000  H
  H51      1.0000 0.60990  0.52660  0.35970  Biso   1.000  H
  H52      1.0000 0.10990  0.97340  0.64030  Biso   1.000  H
  H53      1.0000 0.60990  0.97340  0.85970  Biso   1.000  H
  H54      1.0000 0.10990  0.52660  0.14030  Biso   1.000  H
  H55      1.0000 0.39010  0.47340  0.64030  Biso   1.000  H
  H56      1.0000 0.89010  0.02660  0.35970  Biso   1.000  H
