data_image0
_cell_length_a       10.502
_cell_length_b       13.177
_cell_length_c       13.445
_cell_angle_alpha    98.646
_cell_angle_beta     111.193
_cell_angle_gamma    97.421

_symmetry_space_group_name_H-M    "P 1"
_symmetry_int_tables_number       1

loop_
  _symmetry_equiv_pos_as_xyz
  'x, y, z'

loop_
  _atom_site_label
  _atom_site_occupancy
  _atom_site_fract_x
  _atom_site_fract_y
  _atom_site_fract_z
  _atom_site_thermal_displace_type
  _atom_site_B_iso_or_equiv
  _atom_site_type_symbol
  Cu1      1.0000 0.00000  0.00000  0.50000  Biso   1.000  Cu
  O1       1.0000 0.86130  0.87070  0.46910  Biso   1.000  O
  O2       1.0000 0.13870  0.12930  0.53090  Biso   1.000  O
  C1       1.0000 0.68450  0.75010  0.47800  Biso   1.000  C
  C2       1.0000 0.31550  0.24990  0.52200  Biso   1.000  C
  F1       1.0000 0.77000  0.69060  0.52470  Biso   1.000  F
  F2       1.0000 0.23000  0.30940  0.47530  Biso   1.000  F
  F3       1.0000 0.62840  0.71050  0.37170  Biso   1.000  F
  F4       1.0000 0.37160  0.28950  0.62830  Biso   1.000  F
  F5       1.0000 0.58260  0.74130  0.51360  Biso   1.000  F
  F6       1.0000 0.41740  0.25870  0.48640  Biso   1.000  F
  C3       1.0000 0.76330  0.86360  0.50160  Biso   1.000  C
  C4       1.0000 0.23670  0.13640  0.49840  Biso   1.000  C
  C5       1.0000 0.72030  0.94200  0.55520  Biso   1.000  C
  C6       1.0000 0.27970  0.05800  0.44480  Biso   1.000  C
  H1       1.0000 0.65200  0.92500  0.57800  Biso   1.000  H
  H2       1.0000 0.34800  0.07500  0.42200  Biso   1.000  H
  C7       1.0000 0.78540  0.04520  0.57720  Biso   1.000  C
  C8       1.0000 0.21460  0.95480  0.42280  Biso   1.000  C
  C9       1.0000 0.73490  0.12770  0.64040  Biso   1.000  C
  C10      1.0000 0.26510  0.87230  0.35960  Biso   1.000  C
  F7       1.0000 0.82760  0.16590  0.73730  Biso   1.000  F
  F8       1.0000 0.17240  0.83410  0.26270  Biso   1.000  F
  F9       1.0000 0.71700  0.20890  0.59300  Biso   1.000  F
  F10      1.0000 0.28300  0.79110  0.40700  Biso   1.000  F
  F11      1.0000 0.61690  0.09380  0.64620  Biso   1.000  F
  F12      1.0000 0.38310  0.90620  0.35380  Biso   1.000  F
  O3       1.0000 0.88390  0.08440  0.55460  Biso   1.000  O
  O4       1.0000 0.11610  0.91560  0.44540  Biso   1.000  O
  Cu2      1.0000 0.50000  0.50000  0.00000  Biso   1.000  Cu
  O5       1.0000 0.49260  0.55150  0.86780  Biso   1.000  O
  O6       1.0000 0.50740  0.44850  0.13220  Biso   1.000  O
  C11      1.0000 0.52920  0.56780  0.70720  Biso   1.000  C
  C12      1.0000 0.47080  0.43220  0.29280  Biso   1.000  C
  F13      1.0000 0.39760  0.58960  0.66690  Biso   1.000  F
  F14      1.0000 0.60240  0.41040  0.33310  Biso   1.000  F
  F15      1.0000 0.62000  0.65840  0.72820  Biso   1.000  F
  F16      1.0000 0.38000  0.34160  0.27180  Biso   1.000  F
  F17      1.0000 0.53200  0.50490  0.62580  Biso   1.000  F
  F18      1.0000 0.46800  0.49510  0.37420  Biso   1.000  F
  F19      1.0000 0.40300  0.56960  0.66700  Biso   1.000  F
  F20      1.0000 0.59700  0.43040  0.33300  Biso   1.000  F
  F21      1.0000 0.56800  0.50690  0.63660  Biso   1.000  F
  F22      1.0000 0.43200  0.49310  0.36340  Biso   1.000  F
  F23      1.0000 0.59500  0.66000  0.72510  Biso   1.000  F
  F24      1.0000 0.40500  0.34000  0.27490  Biso   1.000  F
  C13      1.0000 0.56140  0.52600  0.81280  Biso   1.000  C
  C14      1.0000 0.43860  0.47400  0.18720  Biso   1.000  C
  C15      1.0000 0.66770  0.46810  0.83830  Biso   1.000  C
  C16      1.0000 0.33230  0.53190  0.16170  Biso   1.000  C
  H3       1.0000 0.69800  0.45600  0.78800  Biso   1.000  H
  H4       1.0000 0.30200  0.54400  0.21200  Biso   1.000  H
  C17      1.0000 0.70900  0.43010  0.93320  Biso   1.000  C
  C18      1.0000 0.29100  0.56990  0.06680  Biso   1.000  C
  C19      1.0000 0.82540  0.36830  0.95630  Biso   1.000  C
  C20      1.0000 0.17460  0.63170  0.04370  Biso   1.000  C
  F25      1.0000 0.89500  0.37600  0.88940  Biso   1.000  F
  F26      1.0000 0.10500  0.62400  0.11060  Biso   1.000  F
  F27      1.0000 0.93200  0.41200  0.05300  Biso   1.000  F
  F28      1.0000 0.06800  0.58800  0.94700  Biso   1.000  F
  F29      1.0000 0.77400  0.26300  0.94300  Biso   1.000  F
  F30      1.0000 0.22600  0.73700  0.05700  Biso   1.000  F
  F31      1.0000 0.91100  0.39600  0.05800  Biso   1.000  F
  F32      1.0000 0.08900  0.60400  0.94200  Biso   1.000  F
  F33      1.0000 0.77800  0.27500  0.95100  Biso   1.000  F
  F34      1.0000 0.22200  0.72500  0.04900  Biso   1.000  F
  F35      1.0000 0.88680  0.36750  0.88650  Biso   1.000  F
  F36      1.0000 0.11320  0.63250  0.11350  Biso   1.000  F
  O7       1.0000 0.65990  0.43740  0.00630  Biso   1.000  O
  O8       1.0000 0.34010  0.56260  0.99370  Biso   1.000  O
  O9       1.0000 0.91910  0.02050  0.32430  Biso   1.000  O
  O10      1.0000 0.08090  0.97950  0.67570  Biso   1.000  O
  N1       1.0000 0.79140  0.03070  0.27090  Biso   1.000  N
  N2       1.0000 0.20860  0.96930  0.72910  Biso   1.000  N
  C21      1.0000 0.75630  0.13550  0.25350  Biso   1.000  C
  C22      1.0000 0.24370  0.86450  0.74650  Biso   1.000  C
  C23      1.0000 0.80750  0.16100  0.16550  Biso   1.000  C
  C24      1.0000 0.19250  0.83900  0.83450  Biso   1.000  C
  H5       1.0000 0.75760  0.10780  0.09800  Biso   1.000  H
  H6       1.0000 0.24240  0.89220  0.90200  Biso   1.000  H
  H7       1.0000 0.90770  0.16180  0.19020  Biso   1.000  H
  H8       1.0000 0.09230  0.83820  0.80980  Biso   1.000  H
  H9       1.0000 0.79020  0.23000  0.15180  Biso   1.000  H
  H10      1.0000 0.20980  0.77000  0.84820  Biso   1.000  H
  C25      1.0000 0.82880  0.21820  0.35890  Biso   1.000  C
  C26      1.0000 0.17120  0.78180  0.64110  Biso   1.000  C
  H11      1.0000 0.79440  0.20000  0.41390  Biso   1.000  H
  H12      1.0000 0.20560  0.80000  0.58610  Biso   1.000  H
  H13      1.0000 0.80900  0.28660  0.34500  Biso   1.000  H
  H14      1.0000 0.19100  0.71340  0.65500  Biso   1.000  H
  H15      1.0000 0.92950  0.22140  0.38550  Biso   1.000  H
  H16      1.0000 0.07050  0.77860  0.61450  Biso   1.000  H
  C27      1.0000 0.59480  0.10680  0.21290  Biso   1.000  C
  C28      1.0000 0.40520  0.89320  0.78710  Biso   1.000  C
  C29      1.0000 0.51650  0.16110  0.12570  Biso   1.000  C
  C30      1.0000 0.48350  0.83890  0.87430  Biso   1.000  C
  H17      1.0000 0.55440  0.15620  0.06880  Biso   1.000  H
  H18      1.0000 0.44560  0.84380  0.93120  Biso   1.000  H
  H19      1.0000 0.52660  0.23500  0.15810  Biso   1.000  H
  H20      1.0000 0.47340  0.76500  0.84190  Biso   1.000  H
  H21      1.0000 0.41770  0.12750  0.09360  Biso   1.000  H
  H22      1.0000 0.58230  0.87250  0.90640  Biso   1.000  H
  C31      1.0000 0.54160  0.11620  0.30480  Biso   1.000  C
  C32      1.0000 0.45840  0.88380  0.69520  Biso   1.000  C
  H23      1.0000 0.59640  0.08300  0.36200  Biso   1.000  H
  H24      1.0000 0.40360  0.91700  0.63800  Biso   1.000  H
  H25      1.0000 0.44340  0.08120  0.27590  Biso   1.000  H
  H26      1.0000 0.55660  0.91880  0.72410  Biso   1.000  H
  H27      1.0000 0.55070  0.19030  0.33550  Biso   1.000  H
  H28      1.0000 0.44930  0.80970  0.66450  Biso   1.000  H
  N3       1.0000 0.57020  0.99160  0.16790  Biso   1.000  N
  N4       1.0000 0.42980  0.00840  0.83210  Biso   1.000  N
  O11      1.0000 0.44850  0.93730  0.10780  Biso   1.000  O
  O12      1.0000 0.55150  0.06270  0.89220  Biso   1.000  O
  C33      1.0000 0.68590  0.95100  0.21070  Biso   1.000  C
  C34      1.0000 0.31410  0.04900  0.78930  Biso   1.000  C
  C35      1.0000 0.69430  0.84350  0.19030  Biso   1.000  C
  C36      1.0000 0.30570  0.15650  0.80970  Biso   1.000  C
  C37      1.0000 0.58850  0.75650  0.12310  Biso   1.000  C
  C38      1.0000 0.41150  0.24350  0.87690  Biso   1.000  C
  H29      1.0000 0.49460  0.76070  0.08330  Biso   1.000  H
  H30      1.0000 0.50540  0.23930  0.91670  Biso   1.000  H
  N5       1.0000 0.63710  0.66790  0.12240  Biso   1.000  N
  N6       1.0000 0.36290  0.33210  0.87760  Biso   1.000  N
  N7       1.0000 0.77410  0.69810  0.19090  Biso   1.000  N
  N8       1.0000 0.22590  0.30190  0.80910  Biso   1.000  N
  C39      1.0000 0.84090  0.61480  0.20200  Biso   1.000  C
  C40      1.0000 0.15910  0.38520  0.79800  Biso   1.000  C
  H31      1.0000 0.89500  0.61280  0.15510  Biso   1.000  H
  H32      1.0000 0.10500  0.38720  0.84490  Biso   1.000  H
  H33      1.0000 0.77020  0.54900  0.17600  Biso   1.000  H
  H34      1.0000 0.22980  0.45100  0.82400  Biso   1.000  H
  C41      1.0000 0.93990  0.61990  0.32040  Biso   1.000  C
  C42      1.0000 0.06010  0.38010  0.67960  Biso   1.000  C
  H35      1.0000 0.88630  0.61960  0.36760  Biso   1.000  H
  H36      1.0000 0.11370  0.38040  0.63240  Biso   1.000  H
  H37      1.0000 0.01050  0.68580  0.34740  Biso   1.000  H
  H38      1.0000 0.98950  0.31420  0.65260  Biso   1.000  H
  C43      1.0000 0.01300  0.52510  0.32620  Biso   1.000  C
  C44      1.0000 0.98700  0.47490  0.67380  Biso   1.000  C
  H39      1.0000 0.94850  0.46280  0.32470  Biso   1.000  H
  H40      1.0000 0.05150  0.53720  0.67530  Biso   1.000  H
  H41      1.0000 0.03630  0.51010  0.26090  Biso   1.000  H
  H42      1.0000 0.96370  0.48990  0.73910  Biso   1.000  H
  C45      1.0000 0.14180  0.54260  0.42450  Biso   1.000  C
  C46      1.0000 0.85820  0.45740  0.57550  Biso   1.000  C
  H43      1.0000 0.18470  0.48090  0.42320  Biso   1.000  H
  H44      1.0000 0.81530  0.51910  0.57680  Biso   1.000  H
  H45      1.0000 0.11950  0.55450  0.48960  Biso   1.000  H
  H46      1.0000 0.88050  0.44550  0.51040  Biso   1.000  H
  H47      1.0000 0.20690  0.60400  0.42650  Biso   1.000  H
  H48      1.0000 0.79310  0.39600  0.57350  Biso   1.000  H
  C47      1.0000 0.88370  0.62350  0.22520  Biso   1.000  C
  C48      1.0000 0.11630  0.37650  0.77480  Biso   1.000  C
  H49      1.0000 0.86290  0.56390  0.16360  Biso   1.000  H
  H50      1.0000 0.13710  0.43610  0.83640  Biso   1.000  H
  H51      1.0000 0.97930  0.66290  0.24450  Biso   1.000  H
  H52      1.0000 0.02070  0.33710  0.75550  Biso   1.000  H
  C49      1.0000 0.87330  0.58540  0.31890  Biso   1.000  C
  C50      1.0000 0.12670  0.41460  0.68110  Biso   1.000  C
  H53      1.0000 0.77430  0.55790  0.30360  Biso   1.000  H
  H54      1.0000 0.22570  0.44210  0.69640  Biso   1.000  H
  H55      1.0000 0.90930  0.64400  0.38360  Biso   1.000  H
  H56      1.0000 0.09070  0.35600  0.61640  Biso   1.000  H
  C51      1.0000 0.95890  0.49670  0.34380  Biso   1.000  C
  C52      1.0000 0.04110  0.50330  0.65620  Biso   1.000  C
  H57      1.0000 0.95500  0.47480  0.41010  Biso   1.000  H
  H58      1.0000 0.04500  0.52520  0.58990  Biso   1.000  H
  H59      1.0000 0.91600  0.43510  0.28230  Biso   1.000  H
  H60      1.0000 0.08400  0.56490  0.71770  Biso   1.000  H
  C53      1.0000 0.10550  0.53120  0.36050  Biso   1.000  C
  C54      1.0000 0.89450  0.46880  0.63950  Biso   1.000  C
  H61      1.0000 0.15490  0.47330  0.37450  Biso   1.000  H
  H62      1.0000 0.84510  0.52670  0.62550  Biso   1.000  H
  H63      1.0000 0.14930  0.59050  0.42310  Biso   1.000  H
  H64      1.0000 0.85070  0.40950  0.57690  Biso   1.000  H
  H65      1.0000 0.10980  0.55280  0.29490  Biso   1.000  H
  H66      1.0000 0.89020  0.44720  0.70510  Biso   1.000  H
  C55      1.0000 0.81190  0.80080  0.23210  Biso   1.000  C
  C56      1.0000 0.18810  0.19920  0.76790  Biso   1.000  C
  H67      1.0000 0.90200  0.82900  0.27800  Biso   1.000  H
  H68      1.0000 0.09800  0.17100  0.72200  Biso   1.000  H
  Br1      1.0000 0.13432  0.20986  0.03293  Biso   1.000  Br
  Br2      1.0000 0.86568  0.79014  0.96707  Biso   1.000  Br
  C57      1.0000 0.11500  0.08100  0.08600  Biso   1.000  C
  C58      1.0000 0.88500  0.91900  0.91400  Biso   1.000  C
  H69      1.0000 0.09700  0.09400  0.15160  Biso   1.000  H
  H70      1.0000 0.90300  0.90600  0.84840  Biso   1.000  H
  H71      1.0000 0.20050  0.05530  0.10290  Biso   1.000  H
  H72      1.0000 0.79950  0.94470  0.89710  Biso   1.000  H
  C59      1.0000 0.00000  0.00000  0.00000  Biso   1.000  C
  H73      1.0000 0.02290  0.98300  0.93730  Biso   1.000  H
  H74      1.0000 0.97710  0.01700  0.06270  Biso   1.000  H
  H75      1.0000 0.91760  0.02940  0.97830  Biso   1.000  H
  H76      1.0000 0.08240  0.97060  0.02170  Biso   1.000  H
  C60      1.0000 0.97100  0.90100  0.03950  Biso   1.000  C
  C61      1.0000 0.02900  0.09900  0.96050  Biso   1.000  C
  H77      1.0000 0.92170  0.90780  0.08700  Biso   1.000  H
  H78      1.0000 0.07830  0.09220  0.91300  Biso   1.000  H
  H79      1.0000 0.05260  0.87250  0.07120  Biso   1.000  H
  H80      1.0000 0.94740  0.12750  0.92880  Biso   1.000  H
  C62      1.0000 0.86910  0.83570  0.90810  Biso   1.000  C
  C63      1.0000 0.13090  0.16430  0.09190  Biso   1.000  C
  H81      1.0000 0.83270  0.76480  0.90730  Biso   1.000  H
  H82      1.0000 0.16730  0.23520  0.09270  Biso   1.000  H
  H83      1.0000 0.79340  0.87090  0.87950  Biso   1.000  H
  H84      1.0000 0.20660  0.12910  0.12050  Biso   1.000  H
  H85      1.0000 0.92320  0.83590  0.86390  Biso   1.000  H
  H86      1.0000 0.07680  0.16410  0.13610  Biso   1.000  H
