data_image0
_cell_length_a       10.7539
_cell_length_b       13.328
_cell_length_c       13.738
_cell_angle_alpha    98.882
_cell_angle_beta     112.109
_cell_angle_gamma    96.311

_symmetry_space_group_name_H-M    "P 1"
_symmetry_int_tables_number       1

loop_
  _symmetry_equiv_pos_as_xyz
  'x, y, z'

loop_
  _atom_site_label
  _atom_site_occupancy
  _atom_site_fract_x
  _atom_site_fract_y
  _atom_site_fract_z
  _atom_site_thermal_displace_type
  _atom_site_B_iso_or_equiv
  _atom_site_type_symbol
  Cu1      1.0000 0.00000  0.00000  0.50000  Biso   1.000  Cu
  O1       1.0000 0.87030  0.87220  0.47300  Biso   1.000  O
  O2       1.0000 0.12970  0.12780  0.52700  Biso   1.000  O
  C1       1.0000 0.70510  0.75400  0.48360  Biso   1.000  C
  C2       1.0000 0.29490  0.24600  0.51640  Biso   1.000  C
  F1       1.0000 0.78350  0.69250  0.51770  Biso   1.000  F
  F2       1.0000 0.21650  0.30750  0.48230  Biso   1.000  F
  F3       1.0000 0.64430  0.71590  0.38170  Biso   1.000  F
  F4       1.0000 0.35570  0.28410  0.61830  Biso   1.000  F
  F5       1.0000 0.61160  0.74160  0.51930  Biso   1.000  F
  F6       1.0000 0.38840  0.25840  0.48070  Biso   1.000  F
  C3       1.0000 0.77620  0.86310  0.50650  Biso   1.000  C
  C4       1.0000 0.22380  0.13690  0.49350  Biso   1.000  C
  C5       1.0000 0.73840  0.94240  0.55540  Biso   1.000  C
  C6       1.0000 0.26160  0.05760  0.44460  Biso   1.000  C
  H1       1.0000 0.67400  0.92500  0.55400  Biso   1.000  H
  H2       1.0000 0.32600  0.07500  0.44600  Biso   1.000  H
  C7       1.0000 0.79090  0.04330  0.57710  Biso   1.000  C
  C8       1.0000 0.20910  0.95670  0.42290  Biso   1.000  C
  C9       1.0000 0.73520  0.11930  0.63000  Biso   1.000  C
  C10      1.0000 0.26480  0.88070  0.37000  Biso   1.000  C
  F7       1.0000 0.82320  0.15780  0.72730  Biso   1.000  F
  F8       1.0000 0.17680  0.84220  0.27270  Biso   1.000  F
  F9       1.0000 0.72440  0.20230  0.59730  Biso   1.000  F
  F10      1.0000 0.27560  0.79770  0.40270  Biso   1.000  F
  F11      1.0000 0.63360  0.09210  0.64560  Biso   1.000  F
  F12      1.0000 0.36640  0.90790  0.35440  Biso   1.000  F
  O3       1.0000 0.88870  0.08180  0.55600  Biso   1.000  O
  O4       1.0000 0.11130  0.91820  0.44400  Biso   1.000  O
  Cu2      1.0000 0.50000  0.50000  0.00000  Biso   1.000  Cu
  O5       1.0000 0.48810  0.54790  0.86860  Biso   1.000  O
  O6       1.0000 0.51190  0.45210  0.13140  Biso   1.000  O
  C11      1.0000 0.51800  0.56090  0.71170  Biso   1.000  C
  C12      1.0000 0.48200  0.43910  0.28830  Biso   1.000  C
  F13      1.0000 0.41300  0.59700  0.68400  Biso   1.000  F
  F14      1.0000 0.58700  0.40300  0.31600  Biso   1.000  F
  F15      1.0000 0.60500  0.64600  0.72600  Biso   1.000  F
  F16      1.0000 0.39500  0.35400  0.27400  Biso   1.000  F
  F17      1.0000 0.51700  0.49200  0.62800  Biso   1.000  F
  F18      1.0000 0.48300  0.50800  0.37200  Biso   1.000  F
  F19      1.0000 0.36900  0.54200  0.65800  Biso   1.000  F
  F20      1.0000 0.63100  0.45800  0.34200  Biso   1.000  F
  F21      1.0000 0.56600  0.51800  0.64800  Biso   1.000  F
  F22      1.0000 0.43400  0.48200  0.35200  Biso   1.000  F
  F23      1.0000 0.55700  0.64880  0.72500  Biso   1.000  F
  F24      1.0000 0.44300  0.35120  0.27500  Biso   1.000  F
  C13      1.0000 0.54970  0.51970  0.81330  Biso   1.000  C
  C14      1.0000 0.45030  0.48030  0.18670  Biso   1.000  C
  C15      1.0000 0.65250  0.46230  0.83940  Biso   1.000  C
  C16      1.0000 0.34750  0.53770  0.16060  Biso   1.000  C
  H3       1.0000 0.69000  0.44400  0.79300  Biso   1.000  H
  H4       1.0000 0.31000  0.55600  0.20700  Biso   1.000  H
  C17      1.0000 0.69760  0.42490  0.93270  Biso   1.000  C
  C18      1.0000 0.30240  0.57510  0.06730  Biso   1.000  C
  C19      1.0000 0.81180  0.36310  0.95250  Biso   1.000  C
  C20      1.0000 0.18820  0.63690  0.04750  Biso   1.000  C
  F25      1.0000 0.89200  0.38100  0.90600  Biso   1.000  F
  F26      1.0000 0.10800  0.61900  0.09400  Biso   1.000  F
  F27      1.0000 0.92200  0.42000  0.02700  Biso   1.000  F
  F28      1.0000 0.07800  0.58000  0.97300  Biso   1.000  F
  F29      1.0000 0.77500  0.27200  0.96800  Biso   1.000  F
  F30      1.0000 0.22500  0.72800  0.03200  Biso   1.000  F
  F31      1.0000 0.89700  0.37900  0.05000  Biso   1.000  F
  F32      1.0000 0.10300  0.62100  0.95000  Biso   1.000  F
  F33      1.0000 0.77000  0.26960  0.93200  Biso   1.000  F
  F34      1.0000 0.23000  0.73040  0.06800  Biso   1.000  F
  F35      1.0000 0.84200  0.33820  0.86400  Biso   1.000  F
  F36      1.0000 0.15800  0.66180  0.13600  Biso   1.000  F
  O7       1.0000 0.65350  0.43570  0.00470  Biso   1.000  O
  O8       1.0000 0.34650  0.56430  0.99530  Biso   1.000  O
  O9       1.0000 0.90610  0.01730  0.32220  Biso   1.000  O
  O10      1.0000 0.09390  0.98270  0.67780  Biso   1.000  O
  N1       1.0000 0.78060  0.02480  0.26990  Biso   1.000  N
  N2       1.0000 0.21940  0.97520  0.73010  Biso   1.000  N
  C21      1.0000 0.74320  0.12910  0.25480  Biso   1.000  C
  C22      1.0000 0.25680  0.87090  0.74520  Biso   1.000  C
  C23      1.0000 0.78930  0.15630  0.16710  Biso   1.000  C
  C24      1.0000 0.21070  0.84370  0.83290  Biso   1.000  C
  H5       1.0000 0.74140  0.10510  0.10180  Biso   1.000  H
  H6       1.0000 0.25860  0.89490  0.89820  Biso   1.000  H
  H7       1.0000 0.88570  0.15800  0.19020  Biso   1.000  H
  H8       1.0000 0.11430  0.84200  0.80980  Biso   1.000  H
  H9       1.0000 0.76950  0.22280  0.15450  Biso   1.000  H
  H10      1.0000 0.23050  0.77720  0.84550  Biso   1.000  H
  C25      1.0000 0.81240  0.20920  0.35750  Biso   1.000  C
  C26      1.0000 0.18760  0.79080  0.64250  Biso   1.000  C
  H11      1.0000 0.77950  0.19170  0.40980  Biso   1.000  H
  H12      1.0000 0.22050  0.80830  0.59020  Biso   1.000  H
  H13      1.0000 0.79270  0.27550  0.34410  Biso   1.000  H
  H14      1.0000 0.20730  0.72450  0.65590  Biso   1.000  H
  H15      1.0000 0.90930  0.21170  0.38420  Biso   1.000  H
  H16      1.0000 0.09070  0.78830  0.61580  Biso   1.000  H
  C27      1.0000 0.58610  0.09900  0.21280  Biso   1.000  C
  C28      1.0000 0.41390  0.90100  0.78720  Biso   1.000  C
  C29      1.0000 0.50280  0.15020  0.12450  Biso   1.000  C
  C30      1.0000 0.49720  0.84980  0.87550  Biso   1.000  C
  H17      1.0000 0.53820  0.14590  0.06980  Biso   1.000  H
  H18      1.0000 0.46180  0.85410  0.93020  Biso   1.000  H
  H19      1.0000 0.50840  0.22150  0.15440  Biso   1.000  H
  H20      1.0000 0.49160  0.77850  0.84560  Biso   1.000  H
  H21      1.0000 0.40920  0.11570  0.09370  Biso   1.000  H
  H22      1.0000 0.59080  0.88430  0.90630  Biso   1.000  H
  C31      1.0000 0.53310  0.10760  0.30160  Biso   1.000  C
  C32      1.0000 0.46690  0.89240  0.69840  Biso   1.000  C
  H23      1.0000 0.58640  0.07530  0.35710  Biso   1.000  H
  H24      1.0000 0.41360  0.92470  0.64290  Biso   1.000  H
  H25      1.0000 0.43930  0.07370  0.27240  Biso   1.000  H
  H26      1.0000 0.56070  0.92630  0.72760  Biso   1.000  H
  H27      1.0000 0.54010  0.17910  0.33130  Biso   1.000  H
  H28      1.0000 0.45990  0.82090  0.66870  Biso   1.000  H
  N3       1.0000 0.56520  0.98490  0.16670  Biso   1.000  N
  N4       1.0000 0.43480  0.01510  0.83330  Biso   1.000  N
  O11      1.0000 0.44990  0.93180  0.10660  Biso   1.000  O
  O12      1.0000 0.55010  0.06820  0.89340  Biso   1.000  O
  C33      1.0000 0.67860  0.94670  0.20640  Biso   1.000  C
  C34      1.0000 0.32140  0.05330  0.79360  Biso   1.000  C
  C35      1.0000 0.69110  0.84160  0.18710  Biso   1.000  C
  C36      1.0000 0.30890  0.15840  0.81290  Biso   1.000  C
  C37      1.0000 0.59150  0.75630  0.12130  Biso   1.000  C
  C38      1.0000 0.40850  0.24370  0.87870  Biso   1.000  C
  H29      1.0000 0.50070  0.75970  0.08260  Biso   1.000  H
  H30      1.0000 0.49930  0.24030  0.91740  Biso   1.000  H
  N5       1.0000 0.64210  0.66870  0.12040  Biso   1.000  N
  N6       1.0000 0.35790  0.33130  0.87960  Biso   1.000  N
  N7       1.0000 0.77510  0.69760  0.18710  Biso   1.000  N
  N8       1.0000 0.22490  0.30240  0.81290  Biso   1.000  N
  C39      1.0000 0.86410  0.62320  0.20640  Biso   1.000  C
  C40      1.0000 0.13590  0.37680  0.79360  Biso   1.000  C
  H31      1.0000 0.92330  0.63610  0.16930  Biso   1.000  H
  H32      1.0000 0.07670  0.36390  0.83070  Biso   1.000  H
  H33      1.0000 0.80670  0.55620  0.16920  Biso   1.000  H
  H34      1.0000 0.19330  0.44380  0.83080  Biso   1.000  H
  C41      1.0000 0.95400  0.61100  0.31530  Biso   1.000  C
  C42      1.0000 0.04600  0.38900  0.68470  Biso   1.000  C
  H35      1.0000 0.90890  0.62610  0.36330  Biso   1.000  H
  H36      1.0000 0.09110  0.37390  0.63670  Biso   1.000  H
  H37      1.0000 0.03740  0.66200  0.34140  Biso   1.000  H
  H38      1.0000 0.96260  0.33800  0.65860  Biso   1.000  H
  C43      1.0000 0.99500  0.50300  0.32300  Biso   1.000  C
  C44      1.0000 0.00500  0.49700  0.67700  Biso   1.000  C
  H39      1.0000 0.93290  0.45790  0.34020  Biso   1.000  H
  H40      1.0000 0.06710  0.54210  0.65980  Biso   1.000  H
  H41      1.0000 0.00400  0.46980  0.25900  Biso   1.000  H
  H42      1.0000 0.99600  0.53020  0.74100  Biso   1.000  H
  C45      1.0000 0.13400  0.54200  0.41900  Biso   1.000  C
  C46      1.0000 0.86600  0.45800  0.58100  Biso   1.000  C
  H43      1.0000 0.18590  0.48710  0.42610  Biso   1.000  H
  H44      1.0000 0.81410  0.51290  0.57390  Biso   1.000  H
  H45      1.0000 0.11990  0.56240  0.48320  Biso   1.000  H
  H46      1.0000 0.88010  0.43760  0.51680  Biso   1.000  H
  H47      1.0000 0.18260  0.59960  0.40580  Biso   1.000  H
  H48      1.0000 0.81740  0.40040  0.59420  Biso   1.000  H
  C47      1.0000 0.89300  0.60200  0.31600  Biso   1.000  C
  C48      1.0000 0.10700  0.39800  0.68400  Biso   1.000  C
  H49      1.0000 0.81080  0.60120  0.32910  Biso   1.000  H
  H50      1.0000 0.18920  0.39880  0.67090  Biso   1.000  H
  H51      1.0000 0.96170  0.65850  0.36870  Biso   1.000  H
  H52      1.0000 0.03830  0.34150  0.63130  Biso   1.000  H
  C49      1.0000 0.94500  0.49900  0.33500  Biso   1.000  C
  C50      1.0000 0.05500  0.50100  0.66500  Biso   1.000  C
  H53      1.0000 0.96130  0.48870  0.40690  Biso   1.000  H
  H54      1.0000 0.03870  0.51130  0.59310  Biso   1.000  H
  H55      1.0000 0.88320  0.43960  0.28190  Biso   1.000  H
  H56      1.0000 0.11680  0.56040  0.71810  Biso   1.000  H
  C51      1.0000 0.07500  0.52600  0.31900  Biso   1.000  C
  C52      1.0000 0.92500  0.47400  0.68100  Biso   1.000  C
  H57      1.0000 0.12980  0.47370  0.33760  Biso   1.000  H
  H58      1.0000 0.87020  0.52630  0.66240  Biso   1.000  H
  H59      1.0000 0.12560  0.59150  0.36520  Biso   1.000  H
  H60      1.0000 0.87440  0.40850  0.63480  Biso   1.000  H
  H61      1.0000 0.05400  0.52950  0.24580  Biso   1.000  H
  H62      1.0000 0.94600  0.47050  0.75420  Biso   1.000  H
  C53      1.0000 0.80620  0.79890  0.22680  Biso   1.000  C
  C54      1.0000 0.19380  0.20110  0.77320  Biso   1.000  C
  H63      1.0000 0.88400  0.82400  0.27300  Biso   1.000  H
  H64      1.0000 0.11600  0.17600  0.72700  Biso   1.000  H
  Br1      1.0000 0.12050  0.19570  0.02730  Biso   1.000  Br
  Br2      1.0000 0.87950  0.80430  0.97270  Biso   1.000  Br
  C55      1.0000 0.03500  0.09320  0.08400  Biso   1.000  C
  C56      1.0000 0.96500  0.90680  0.91600  Biso   1.000  C
  H65      1.0000 0.01660  0.10620  0.14950  Biso   1.000  H
  H66      1.0000 0.98340  0.89380  0.85050  Biso   1.000  H
  H67      1.0000 0.12000  0.06750  0.10080  Biso   1.000  H
  H68      1.0000 0.88000  0.93250  0.89920  Biso   1.000  H
  C57      1.0000 0.00000  0.00000  0.00000  Biso   1.000  C
  H69      1.0000 0.02290  0.98300  0.93730  Biso   1.000  H
  H70      1.0000 0.97710  0.01700  0.06270  Biso   1.000  H
  H71      1.0000 0.91760  0.02940  0.97830  Biso   1.000  H
  H72      1.0000 0.08240  0.97060  0.02170  Biso   1.000  H
  C58      1.0000 0.88700  0.92300  0.98700  Biso   1.000  C
  C59      1.0000 0.11300  0.07700  0.01300  Biso   1.000  C
  H73      1.0000 0.83760  0.92970  0.03410  Biso   1.000  H
  H74      1.0000 0.16240  0.07030  0.96590  Biso   1.000  H
  H75      1.0000 0.96860  0.89440  0.01830  Biso   1.000  H
  H76      1.0000 0.03140  0.10560  0.98170  Biso   1.000  H
  C60      1.0000 0.86510  0.84580  0.87560  Biso   1.000  C
  C61      1.0000 0.13490  0.15420  0.12440  Biso   1.000  C
  H77      1.0000 0.82870  0.77480  0.87480  Biso   1.000  H
  H78      1.0000 0.17130  0.22520  0.12520  Biso   1.000  H
  H79      1.0000 0.78940  0.88090  0.84700  Biso   1.000  H
  H80      1.0000 0.21060  0.11910  0.15300  Biso   1.000  H
  H81      1.0000 0.91920  0.84590  0.83130  Biso   1.000  H
  H82      1.0000 0.08080  0.15410  0.16870  Biso   1.000  H
