data_image0
_cell_length_a       10.664
_cell_length_b       13.279
_cell_length_c       13.623
_cell_angle_alpha    98.903
_cell_angle_beta     112.051
_cell_angle_gamma    96.525

_symmetry_space_group_name_H-M    "P 1"
_symmetry_int_tables_number       1

loop_
  _symmetry_equiv_pos_as_xyz
  'x, y, z'

loop_
  _atom_site_label
  _atom_site_occupancy
  _atom_site_fract_x
  _atom_site_fract_y
  _atom_site_fract_z
  _atom_site_thermal_displace_type
  _atom_site_B_iso_or_equiv
  _atom_site_type_symbol
  Cu1      1.0000 0.00000  0.00000  0.50000  Biso   1.000  Cu
  O1       1.0000 0.86850  0.87180  0.47160  Biso   1.000  O
  O2       1.0000 0.13150  0.12820  0.52840  Biso   1.000  O
  C1       1.0000 0.69770  0.75220  0.47970  Biso   1.000  C
  C2       1.0000 0.30230  0.24780  0.52030  Biso   1.000  C
  F1       1.0000 0.78110  0.69290  0.52060  Biso   1.000  F
  F2       1.0000 0.21890  0.30710  0.47940  Biso   1.000  F
  F3       1.0000 0.63940  0.71300  0.37710  Biso   1.000  F
  F4       1.0000 0.36060  0.28700  0.62290  Biso   1.000  F
  F5       1.0000 0.60170  0.74180  0.51720  Biso   1.000  F
  F6       1.0000 0.39830  0.25820  0.48280  Biso   1.000  F
  C3       1.0000 0.77330  0.86360  0.50420  Biso   1.000  C
  C4       1.0000 0.22670  0.13640  0.49580  Biso   1.000  C
  C5       1.0000 0.72930  0.94190  0.55540  Biso   1.000  C
  C6       1.0000 0.27070  0.05810  0.44460  Biso   1.000  C
  H1       1.0000 0.65800  0.91900  0.56800  Biso   1.000  H
  H2       1.0000 0.34200  0.08100  0.43200  Biso   1.000  H
  C7       1.0000 0.79130  0.04420  0.57810  Biso   1.000  C
  C8       1.0000 0.20870  0.95580  0.42190  Biso   1.000  C
  C9       1.0000 0.73840  0.12390  0.63660  Biso   1.000  C
  C10      1.0000 0.26160  0.87610  0.36340  Biso   1.000  C
  F7       1.0000 0.82550  0.16220  0.73160  Biso   1.000  F
  F8       1.0000 0.17450  0.83780  0.26840  Biso   1.000  F
  F9       1.0000 0.72210  0.20480  0.59550  Biso   1.000  F
  F10      1.0000 0.27790  0.79520  0.40450  Biso   1.000  F
  F11      1.0000 0.62440  0.09290  0.64230  Biso   1.000  F
  F12      1.0000 0.37560  0.90710  0.35770  Biso   1.000  F
  O3       1.0000 0.88740  0.08280  0.55550  Biso   1.000  O
  O4       1.0000 0.11260  0.91720  0.44450  Biso   1.000  O
  Cu2      1.0000 0.50000  0.50000  0.00000  Biso   1.000  Cu
  O5       1.0000 0.48730  0.54870  0.86780  Biso   1.000  O
  O6       1.0000 0.51270  0.45130  0.13220  Biso   1.000  O
  C11      1.0000 0.51680  0.56100  0.70760  Biso   1.000  C
  C12      1.0000 0.48320  0.43900  0.29240  Biso   1.000  C
  F13      1.0000 0.40300  0.59200  0.67700  Biso   1.000  F
  F14      1.0000 0.59700  0.40800  0.32300  Biso   1.000  F
  F15      1.0000 0.61600  0.64800  0.73300  Biso   1.000  F
  F16      1.0000 0.38400  0.35200  0.26700  Biso   1.000  F
  F17      1.0000 0.51700  0.49500  0.62800  Biso   1.000  F
  F18      1.0000 0.48300  0.50500  0.37200  Biso   1.000  F
  F19      1.0000 0.38200  0.55400  0.66000  Biso   1.000  F
  F20      1.0000 0.61800  0.44600  0.34000  Biso   1.000  F
  F21      1.0000 0.55800  0.51100  0.64000  Biso   1.000  F
  F22      1.0000 0.44200  0.48900  0.36000  Biso   1.000  F
  F23      1.0000 0.56400  0.65390  0.71660  Biso   1.000  F
  F24      1.0000 0.43600  0.34610  0.28340  Biso   1.000  F
  C13      1.0000 0.55400  0.52160  0.81270  Biso   1.000  C
  C14      1.0000 0.44600  0.47840  0.18730  Biso   1.000  C
  C15      1.0000 0.65770  0.46370  0.83900  Biso   1.000  C
  C16      1.0000 0.34230  0.53630  0.16100  Biso   1.000  C
  H3       1.0000 0.68100  0.45300  0.79700  Biso   1.000  H
  H4       1.0000 0.31900  0.54700  0.20300  Biso   1.000  H
  C17      1.0000 0.70080  0.42670  0.93120  Biso   1.000  C
  C18      1.0000 0.29920  0.57330  0.06880  Biso   1.000  C
  C19      1.0000 0.81790  0.36570  0.95350  Biso   1.000  C
  C20      1.0000 0.18210  0.63430  0.04650  Biso   1.000  C
  F25      1.0000 0.88700  0.37400  0.89700  Biso   1.000  F
  F26      1.0000 0.11300  0.62600  0.10300  Biso   1.000  F
  F27      1.0000 0.92700  0.41300  0.04000  Biso   1.000  F
  F28      1.0000 0.07300  0.58700  0.96000  Biso   1.000  F
  F29      1.0000 0.76700  0.25930  0.94870  Biso   1.000  F
  F30      1.0000 0.23300  0.74070  0.05130  Biso   1.000  F
  F31      1.0000 0.90300  0.39000  0.05480  Biso   1.000  F
  F32      1.0000 0.09700  0.61000  0.94520  Biso   1.000  F
  F33      1.0000 0.78500  0.28230  0.95000  Biso   1.000  F
  F34      1.0000 0.21500  0.71770  0.05000  Biso   1.000  F
  F35      1.0000 0.86600  0.35500  0.87800  Biso   1.000  F
  F36      1.0000 0.13400  0.64500  0.12200  Biso   1.000  F
  O7       1.0000 0.65640  0.43570  0.00510  Biso   1.000  O
  O8       1.0000 0.34360  0.56430  0.99490  Biso   1.000  O
  O9       1.0000 0.91030  0.01830  0.32380  Biso   1.000  O
  O10      1.0000 0.08970  0.98170  0.67620  Biso   1.000  O
  N1       1.0000 0.78330  0.02760  0.27030  Biso   1.000  N
  N2       1.0000 0.21670  0.97240  0.72970  Biso   1.000  N
  C21      1.0000 0.74570  0.13020  0.25430  Biso   1.000  C
  C22      1.0000 0.25430  0.86980  0.74570  Biso   1.000  C
  C23      1.0000 0.79460  0.15970  0.16820  Biso   1.000  C
  C24      1.0000 0.20540  0.84030  0.83180  Biso   1.000  C
  H5       1.0000 0.74700  0.10850  0.10080  Biso   1.000  H
  H6       1.0000 0.25300  0.89150  0.89920  Biso   1.000  H
  H7       1.0000 0.89310  0.16190  0.19290  Biso   1.000  H
  H8       1.0000 0.10690  0.83810  0.80710  Biso   1.000  H
  H9       1.0000 0.77470  0.22740  0.15640  Biso   1.000  H
  H10      1.0000 0.22530  0.77260  0.84360  Biso   1.000  H
  C25      1.0000 0.81680  0.21140  0.35770  Biso   1.000  C
  C26      1.0000 0.18320  0.78860  0.64230  Biso   1.000  C
  H11      1.0000 0.78390  0.19410  0.41150  Biso   1.000  H
  H12      1.0000 0.21610  0.80590  0.58850  Biso   1.000  H
  H13      1.0000 0.79710  0.27860  0.34380  Biso   1.000  H
  H14      1.0000 0.20290  0.72140  0.65620  Biso   1.000  H
  H15      1.0000 0.91550  0.21380  0.38440  Biso   1.000  H
  H16      1.0000 0.08450  0.78620  0.61560  Biso   1.000  H
  C27      1.0000 0.58640  0.10070  0.21170  Biso   1.000  C
  C28      1.0000 0.41360  0.89930  0.78830  Biso   1.000  C
  C29      1.0000 0.50460  0.15290  0.12360  Biso   1.000  C
  C30      1.0000 0.49540  0.84710  0.87640  Biso   1.000  C
  H17      1.0000 0.54100  0.14840  0.06790  Biso   1.000  H
  H18      1.0000 0.45900  0.85160  0.93210  Biso   1.000  H
  H19      1.0000 0.51160  0.22530  0.15450  Biso   1.000  H
  H20      1.0000 0.48840  0.77470  0.84550  Biso   1.000  H
  H21      1.0000 0.40870  0.11860  0.09180  Biso   1.000  H
  H22      1.0000 0.59130  0.88140  0.90820  Biso   1.000  H
  C31      1.0000 0.53320  0.10990  0.30200  Biso   1.000  C
  C32      1.0000 0.46680  0.89010  0.69800  Biso   1.000  C
  H23      1.0000 0.58740  0.07710  0.35840  Biso   1.000  H
  H24      1.0000 0.41260  0.92290  0.64160  Biso   1.000  H
  H25      1.0000 0.43740  0.07570  0.27250  Biso   1.000  H
  H26      1.0000 0.56260  0.92430  0.72750  Biso   1.000  H
  H27      1.0000 0.54120  0.18260  0.33230  Biso   1.000  H
  H28      1.0000 0.45880  0.81740  0.66770  Biso   1.000  H
  N3       1.0000 0.56600  0.98680  0.16630  Biso   1.000  N
  N4       1.0000 0.43400  0.01320  0.83370  Biso   1.000  N
  O11      1.0000 0.44740  0.93330  0.10600  Biso   1.000  O
  O12      1.0000 0.55260  0.06670  0.89400  Biso   1.000  O
  C33      1.0000 0.68090  0.94850  0.20940  Biso   1.000  C
  C34      1.0000 0.31910  0.05150  0.79060  Biso   1.000  C
  C35      1.0000 0.69240  0.84170  0.18850  Biso   1.000  C
  C36      1.0000 0.30760  0.15830  0.81150  Biso   1.000  C
  C37      1.0000 0.59010  0.75630  0.12220  Biso   1.000  C
  C38      1.0000 0.40990  0.24370  0.87780  Biso   1.000  C
  H29      1.0000 0.49760  0.76010  0.08360  Biso   1.000  H
  H30      1.0000 0.50240  0.23990  0.91640  Biso   1.000  H
  N5       1.0000 0.64010  0.66880  0.12040  Biso   1.000  N
  N6       1.0000 0.35990  0.33120  0.87960  Biso   1.000  N
  N7       1.0000 0.77480  0.69760  0.18860  Biso   1.000  N
  N8       1.0000 0.22520  0.30240  0.81140  Biso   1.000  N
  C39      1.0000 0.84900  0.61000  0.20300  Biso   1.000  C
  C40      1.0000 0.15100  0.39000  0.79700  Biso   1.000  C
  H31      1.0000 0.90290  0.60770  0.15790  Biso   1.000  H
  H32      1.0000 0.09710  0.39230  0.84210  Biso   1.000  H
  H33      1.0000 0.78310  0.54480  0.17890  Biso   1.000  H
  H34      1.0000 0.21690  0.45520  0.82110  Biso   1.000  H
  C41      1.0000 0.94570  0.62230  0.32100  Biso   1.000  C
  C42      1.0000 0.05430  0.37770  0.67900  Biso   1.000  C
  H35      1.0000 0.89930  0.64020  0.36950  Biso   1.000  H
  H36      1.0000 0.10070  0.35980  0.63050  Biso   1.000  H
  H37      1.0000 0.02820  0.67520  0.34140  Biso   1.000  H
  H38      1.0000 0.97180  0.32480  0.65860  Biso   1.000  H
  C43      1.0000 0.98200  0.51210  0.32300  Biso   1.000  C
  C44      1.0000 0.01800  0.48790  0.67700  Biso   1.000  C
  H39      1.0000 0.92580  0.46940  0.34960  Biso   1.000  H
  H40      1.0000 0.07420  0.53060  0.65040  Biso   1.000  H
  H41      1.0000 0.97280  0.47570  0.25160  Biso   1.000  H
  H42      1.0000 0.02720  0.52430  0.74840  Biso   1.000  H
  C45      1.0000 0.13200  0.54370  0.40300  Biso   1.000  C
  C46      1.0000 0.86800  0.45630  0.59700  Biso   1.000  C
  H43      1.0000 0.17630  0.48390  0.40440  Biso   1.000  H
  H44      1.0000 0.82370  0.51610  0.59560  Biso   1.000  H
  H45      1.0000 0.13560  0.56990  0.47520  Biso   1.000  H
  H46      1.0000 0.86440  0.43010  0.52480  Biso   1.000  H
  H47      1.0000 0.17880  0.59740  0.38190  Biso   1.000  H
  H48      1.0000 0.82120  0.40260  0.61810  Biso   1.000  H
  C47      1.0000 0.88000  0.62900  0.21520  Biso   1.000  C
  C48      1.0000 0.12000  0.37100  0.78480  Biso   1.000  C
  H49      1.0000 0.85930  0.57310  0.15190  Biso   1.000  H
  H50      1.0000 0.14070  0.42690  0.84810  Biso   1.000  H
  H51      1.0000 0.97180  0.66920  0.23400  Biso   1.000  H
  H52      1.0000 0.02820  0.33080  0.76600  Biso   1.000  H
  C49      1.0000 0.87890  0.58400  0.30600  Biso   1.000  C
  C50      1.0000 0.12110  0.41600  0.69400  Biso   1.000  C
  H53      1.0000 0.78440  0.54980  0.28850  Biso   1.000  H
  H54      1.0000 0.21560  0.45020  0.71150  Biso   1.000  H
  H55      1.0000 0.90520  0.64050  0.36960  Biso   1.000  H
  H56      1.0000 0.09480  0.35950  0.63040  Biso   1.000  H
  C51      1.0000 0.99200  0.49100  0.34200  Biso   1.000  C
  C52      1.0000 0.00800  0.50900  0.65800  Biso   1.000  C
  H57      1.0000 0.01600  0.48270  0.41670  Biso   1.000  H
  H58      1.0000 0.98400  0.51730  0.58330  Biso   1.000  H
  H59      1.0000 0.95360  0.42260  0.29200  Biso   1.000  H
  H60      1.0000 0.04640  0.57740  0.70800  Biso   1.000  H
  C53      1.0000 0.07400  0.53100  0.33100  Biso   1.000  C
  C54      1.0000 0.92600  0.46900  0.66900  Biso   1.000  C
  H61      1.0000 0.14550  0.48930  0.34140  Biso   1.000  H
  H62      1.0000 0.85450  0.51070  0.65860  Biso   1.000  H
  H63      1.0000 0.11080  0.59590  0.38420  Biso   1.000  H
  H64      1.0000 0.88920  0.40410  0.61580  Biso   1.000  H
  H65      1.0000 0.04250  0.54410  0.25880  Biso   1.000  H
  H66      1.0000 0.95750  0.45590  0.74120  Biso   1.000  H
  C55      1.0000 0.81020  0.79950  0.22950  Biso   1.000  C
  C56      1.0000 0.18980  0.20050  0.77050  Biso   1.000  C
  H67      1.0000 0.90300  0.83500  0.27900  Biso   1.000  H
  H68      1.0000 0.09700  0.16500  0.72100  Biso   1.000  H
  Br1      1.0000 0.12650  0.20290  0.03540  Biso   1.000  Br
  Br2      1.0000 0.87350  0.79710  0.96460  Biso   1.000  Br
  C57      1.0000 0.08900  0.06500  0.10900  Biso   1.000  C
  C58      1.0000 0.91100  0.93500  0.89100  Biso   1.000  C
  H69      1.0000 0.07120  0.07770  0.17440  Biso   1.000  H
  H70      1.0000 0.92880  0.92230  0.82560  Biso   1.000  H
  H71      1.0000 0.17470  0.03900  0.12570  Biso   1.000  H
  H72      1.0000 0.82530  0.96100  0.87430  Biso   1.000  H
  C59      1.0000 0.00000  0.00000  0.00000  Biso   1.000  C
  H73      1.0000 0.02290  0.98300  0.93730  Biso   1.000  H
  H74      1.0000 0.97710  0.01700  0.06270  Biso   1.000  H
  H75      1.0000 0.91760  0.02940  0.97830  Biso   1.000  H
  H76      1.0000 0.08240  0.97060  0.02170  Biso   1.000  H
  C60      1.0000 0.08600  0.08910  0.99900  Biso   1.000  C
  C61      1.0000 0.91400  0.91090  0.00100  Biso   1.000  C
  H77      1.0000 0.13600  0.08220  0.95150  Biso   1.000  H
  H78      1.0000 0.86400  0.91780  0.04850  Biso   1.000  H
  H79      1.0000 0.99500  0.88250  0.03270  Biso   1.000  H
  H80      1.0000 0.00500  0.11750  0.96730  Biso   1.000  H
  C62      1.0000 0.85830  0.84160  0.87320  Biso   1.000  C
  C63      1.0000 0.14170  0.15840  0.12680  Biso   1.000  C
  H81      1.0000 0.82180  0.77070  0.87240  Biso   1.000  H
  H82      1.0000 0.17820  0.22930  0.12760  Biso   1.000  H
  H83      1.0000 0.78260  0.87680  0.84470  Biso   1.000  H
  H84      1.0000 0.21740  0.12320  0.15530  Biso   1.000  H
  H85      1.0000 0.91240  0.84180  0.82900  Biso   1.000  H
  H86      1.0000 0.08760  0.15820  0.17100  Biso   1.000  H
