data_image0
_cell_length_a       9.219
_cell_length_b       13.13
_cell_length_c       14.279
_cell_angle_alpha    109.14
_cell_angle_beta     92.435
_cell_angle_gamma    107.299

_symmetry_space_group_name_H-M    "P 1"
_symmetry_int_tables_number       1

loop_
  _symmetry_equiv_pos_as_xyz
  'x, y, z'

loop_
  _atom_site_label
  _atom_site_occupancy
  _atom_site_fract_x
  _atom_site_fract_y
  _atom_site_fract_z
  _atom_site_thermal_displace_type
  _atom_site_B_iso_or_equiv
  _atom_site_type_symbol
  Cu1      1.0000 0.00000  0.00000  0.00000  Biso   1.000  Cu
  O1       1.0000 0.90920  0.11070  0.07970  Biso   1.000  O
  O2       1.0000 0.09080  0.88930  0.92030  Biso   1.000  O
  C1       1.0000 0.73010  0.18920  0.15900  Biso   1.000  C
  C2       1.0000 0.26990  0.81080  0.84100  Biso   1.000  C
  F1       1.0000 0.57920  0.16780  0.15290  Biso   1.000  F
  F2       1.0000 0.42080  0.83220  0.84710  Biso   1.000  F
  F3       1.0000 0.78900  0.22830  0.25280  Biso   1.000  F
  F4       1.0000 0.21100  0.77170  0.74720  Biso   1.000  F
  F5       1.0000 0.78340  0.27400  0.12450  Biso   1.000  F
  F6       1.0000 0.21660  0.72600  0.87550  Biso   1.000  F
  C3       1.0000 0.77320  0.08530  0.09980  Biso   1.000  C
  C4       1.0000 0.22680  0.91470  0.90020  Biso   1.000  C
  C5       1.0000 0.66860  0.97950  0.08110  Biso   1.000  C
  C6       1.0000 0.33140  0.02050  0.91890  Biso   1.000  C
  H1       1.0000 0.56720  0.97340  0.09510  Biso   1.000  H
  H2       1.0000 0.43280  0.02660  0.90490  Biso   1.000  H
  C7       1.0000 0.70690  0.87970  0.04180  Biso   1.000  C
  C8       1.0000 0.29310  0.12030  0.95820  Biso   1.000  C
  C9       1.0000 0.58510  0.76660  0.03000  Biso   1.000  C
  C10      1.0000 0.41490  0.23340  0.97000  Biso   1.000  C
  F7       1.0000 0.45290  0.77740  0.05790  Biso   1.000  F
  F8       1.0000 0.54710  0.22260  0.94210  Biso   1.000  F
  F9       1.0000 0.55230  0.69480  0.93610  Biso   1.000  F
  F10      1.0000 0.44770  0.30520  0.06390  Biso   1.000  F
  F11      1.0000 0.63420  0.71730  0.08670  Biso   1.000  F
  F12      1.0000 0.36580  0.28270  0.91330  Biso   1.000  F
  O3       1.0000 0.82790  0.86950  0.01620  Biso   1.000  O
  O4       1.0000 0.17210  0.13050  0.98380  Biso   1.000  O
  Cu2      1.0000 0.00000  0.50000  0.50000  Biso   1.000  Cu
  O5       1.0000 0.87810  0.52110  0.39710  Biso   1.000  O
  O6       1.0000 0.12190  0.47890  0.60290  Biso   1.000  O
  C11      1.0000 0.66410  0.52760  0.31120  Biso   1.000  C
  C12      1.0000 0.33590  0.47240  0.68880  Biso   1.000  C
  F13      1.0000 0.51260  0.48080  0.28720  Biso   1.000  F
  F14      1.0000 0.48740  0.51920  0.71280  Biso   1.000  F
  F15      1.0000 0.72520  0.51750  0.22960  Biso   1.000  F
  F16      1.0000 0.27480  0.48250  0.77040  Biso   1.000  F
  F17      1.0000 0.69170  0.63950  0.35950  Biso   1.000  F
  F18      1.0000 0.30830  0.36050  0.64050  Biso   1.000  F
  C13      1.0000 0.73200  0.47800  0.37660  Biso   1.000  C
  C14      1.0000 0.26800  0.52200  0.62340  Biso   1.000  C
  C15      1.0000 0.63640  0.39960  0.40980  Biso   1.000  C
  C16      1.0000 0.36360  0.60040  0.59020  Biso   1.000  C
  H3       1.0000 0.52840  0.37930  0.39260  Biso   1.000  H
  H4       1.0000 0.47160  0.62070  0.60740  Biso   1.000  H
  C17      1.0000 0.69180  0.34890  0.46750  Biso   1.000  C
  C18      1.0000 0.30820  0.65110  0.53250  Biso   1.000  C
  C19      1.0000 0.58330  0.25000  0.49140  Biso   1.000  C
  C20      1.0000 0.41670  0.75000  0.50860  Biso   1.000  C
  F19      1.0000 0.59430  0.26790  0.58460  Biso   1.000  F
  F20      1.0000 0.40570  0.73210  0.41540  Biso   1.000  F
  F21      1.0000 0.43680  0.22720  0.45390  Biso   1.000  F
  F22      1.0000 0.56320  0.77280  0.54610  Biso   1.000  F
  F23      1.0000 0.61560  0.15270  0.44350  Biso   1.000  F
  F24      1.0000 0.38440  0.84730  0.55650  Biso   1.000  F
  O7       1.0000 0.82910  0.37060  0.50330  Biso   1.000  O
  O8       1.0000 0.17090  0.62940  0.49670  Biso   1.000  O
  O9       1.0000 0.17170  0.03680  0.12900  Biso   1.000  O
  O10      1.0000 0.82830  0.96320  0.87100  Biso   1.000  O
  N1       1.0000 0.14650  0.01740  0.21240  Biso   1.000  N
  N2       1.0000 0.85350  0.98260  0.78760  Biso   1.000  N
  C21      1.0000 0.16400  0.91330  0.22540  Biso   1.000  C
  C22      1.0000 0.83600  0.08670  0.77460  Biso   1.000  C
  C23      1.0000 0.08670  0.80850  0.13390  Biso   1.000  C
  C24      1.0000 0.91330  0.19150  0.86610  Biso   1.000  C
  H5       1.0000 0.14210  0.81330  0.07750  Biso   1.000  H
  H6       1.0000 0.85790  0.18670  0.92250  Biso   1.000  H
  H7       1.0000 0.98020  0.80370  0.11680  Biso   1.000  H
  H8       1.0000 0.01980  0.19630  0.88320  Biso   1.000  H
  H9       1.0000 0.08760  0.74040  0.14780  Biso   1.000  H
  H10      1.0000 0.91240  0.25960  0.85220  Biso   1.000  H
  C25      1.0000 0.33660  0.93590  0.24300  Biso   1.000  C
  C26      1.0000 0.66340  0.06410  0.75700  Biso   1.000  C
  H11      1.0000 0.37780  0.93370  0.18050  Biso   1.000  H
  H12      1.0000 0.62220  0.06630  0.81950  Biso   1.000  H
  H13      1.0000 0.35630  0.87720  0.26500  Biso   1.000  H
  H14      1.0000 0.64370  0.12280  0.73500  Biso   1.000  H
  H15      1.0000 0.38670  0.01130  0.29490  Biso   1.000  H
  H16      1.0000 0.61330  0.98870  0.70510  Biso   1.000  H
  C27      1.0000 0.08580  0.91510  0.31910  Biso   1.000  C
  C28      1.0000 0.91420  0.08490  0.68090  Biso   1.000  C
  C29      1.0000 0.91060  0.86030  0.29730  Biso   1.000  C
  C30      1.0000 0.08940  0.13970  0.70270  Biso   1.000  C
  H17      1.0000 0.87050  0.86470  0.36040  Biso   1.000  H
  H18      1.0000 0.12950  0.13530  0.63960  Biso   1.000  H
  H19      1.0000 0.88310  0.78020  0.25340  Biso   1.000  H
  H20      1.0000 0.11690  0.21980  0.74660  Biso   1.000  H
  H21      1.0000 0.86610  0.90110  0.26410  Biso   1.000  H
  H22      1.0000 0.13390  0.09890  0.73590  Biso   1.000  H
  C31      1.0000 0.15350  0.87650  0.39200  Biso   1.000  C
  C32      1.0000 0.84650  0.12350  0.60800  Biso   1.000  C
  H23      1.0000 0.09460  0.88100  0.44790  Biso   1.000  H
  H24      1.0000 0.90540  0.11900  0.55210  Biso   1.000  H
  H25      1.0000 0.26060  0.92570  0.41760  Biso   1.000  H
  H26      1.0000 0.73940  0.07430  0.58240  Biso   1.000  H
  H27      1.0000 0.14990  0.79740  0.35860  Biso   1.000  H
  H28      1.0000 0.85010  0.20260  0.64140  Biso   1.000  H
  N3       1.0000 0.11420  0.04310  0.36810  Biso   1.000  N
  N4       1.0000 0.88580  0.95690  0.63190  Biso   1.000  N
  O11      1.0000 0.10600  0.09160  0.45710  Biso   1.000  O
  O12      1.0000 0.89400  0.90840  0.54290  Biso   1.000  O
  C33      1.0000 0.13300  0.09020  0.29510  Biso   1.000  C
  C34      1.0000 0.86700  0.90980  0.70490  Biso   1.000  C
  C35      1.0000 0.13480  0.20670  0.31570  Biso   1.000  C
  C36      1.0000 0.86520  0.79330  0.68430  Biso   1.000  C
  C37      1.0000 0.09870  0.27890  0.39680  Biso   1.000  C
  C38      1.0000 0.90130  0.72110  0.60320  Biso   1.000  C
  H29      1.0000 0.07370  0.26200  0.45510  Biso   1.000  H
  H30      1.0000 0.92630  0.73800  0.54490  Biso   1.000  H
  N5       1.0000 0.10240  0.37460  0.38490  Biso   1.000  N
  N6       1.0000 0.89760  0.62540  0.61510  Biso   1.000  N
  N7       1.0000 0.14030  0.36300  0.29300  Biso   1.000  N
  N8       1.0000 0.85970  0.63700  0.70700  Biso   1.000  N
  C39      1.0000 0.14720  0.45630  0.25630  Biso   1.000  C
  C40      1.0000 0.85280  0.54370  0.74370  Biso   1.000  C
  H31      1.0000 0.22810  0.52670  0.30090  Biso   1.000  H
  H32      1.0000 0.77190  0.47330  0.69910  Biso   1.000  H
  H33      1.0000 0.04770  0.47070  0.25950  Biso   1.000  H
  H34      1.0000 0.95230  0.52930  0.74050  Biso   1.000  H
  C41      1.0000 0.18120  0.43070  0.14870  Biso   1.000  C
  C42      1.0000 0.81880  0.56930  0.85130  Biso   1.000  C
  H35      1.0000 0.28100  0.41690  0.14510  Biso   1.000  H
  H36      1.0000 0.71900  0.58310  0.85490  Biso   1.000  H
  H37      1.0000 0.10050  0.36060  0.10360  Biso   1.000  H
  H38      1.0000 0.89950  0.63940  0.89640  Biso   1.000  H
  C43      1.0000 0.22100  0.50980  0.01040  Biso   1.000  C
  C44      1.0000 0.77900  0.49020  0.98960  Biso   1.000  C
  H39      1.0000 0.22300  0.57650  0.99310  Biso   1.000  H
  H40      1.0000 0.77700  0.42350  0.00690  Biso   1.000  H
  H41      1.0000 0.14130  0.44190  0.96350  Biso   1.000  H
  H42      1.0000 0.85870  0.55810  0.03650  Biso   1.000  H
  H43      1.0000 0.32130  0.49870  0.00600  Biso   1.000  H
  H44      1.0000 0.67870  0.50130  0.99400  Biso   1.000  H
  C45      1.0000 0.18680  0.52850  0.11410  Biso   1.000  C
  C46      1.0000 0.81320  0.47150  0.88590  Biso   1.000  C
  H45      1.0000 0.08660  0.54160  0.11810  Biso   1.000  H
  H46      1.0000 0.91340  0.45840  0.88190  Biso   1.000  H
  H47      1.0000 0.26640  0.59850  0.16050  Biso   1.000  H
  H48      1.0000 0.73360  0.40150  0.83950  Biso   1.000  H
  C47      1.0000 0.15920  0.26470  0.24700  Biso   1.000  C
  C48      1.0000 0.84080  0.73530  0.75300  Biso   1.000  C
  H49      1.0000 0.18400  0.23800  0.18150  Biso   1.000  H
  H50      1.0000 0.81600  0.76200  0.81850  Biso   1.000  H
