data_image0
_cell_length_a       10.7839
_cell_length_b       13.273
_cell_length_c       13.554
_cell_angle_alpha    98.481
_cell_angle_beta     111.726
_cell_angle_gamma    97.182

_symmetry_space_group_name_H-M    "P 1"
_symmetry_int_tables_number       1

loop_
  _symmetry_equiv_pos_as_xyz
  'x, y, z'

loop_
  _atom_site_label
  _atom_site_occupancy
  _atom_site_fract_x
  _atom_site_fract_y
  _atom_site_fract_z
  _atom_site_thermal_displace_type
  _atom_site_B_iso_or_equiv
  _atom_site_type_symbol
  Cu1      1.0000 0.50000  0.50000  0.00000  Biso   1.000  Cu
  O1       1.0000 0.38830  0.58215  0.05600  Biso   1.000  O
  O2       1.0000 0.61170  0.41785  0.94400  Biso   1.000  O
  C1       1.0000 0.24160  0.62390  0.13830  Biso   1.000  C
  C2       1.0000 0.75840  0.37610  0.86170  Biso   1.000  C
  F1       1.0000 0.34640  0.67780  0.23000  Biso   1.000  F
  F2       1.0000 0.65360  0.32220  0.77000  Biso   1.000  F
  F3       1.0000 0.14750  0.59100  0.17030  Biso   1.000  F
  F4       1.0000 0.85250  0.40900  0.82970  Biso   1.000  F
  F5       1.0000 0.20500  0.69500  0.08320  Biso   1.000  F
  F6       1.0000 0.79500  0.30500  0.91680  Biso   1.000  F
  F7       1.0000 0.25300  0.70930  0.11690  Biso   1.000  F
  F8       1.0000 0.74700  0.29070  0.88310  Biso   1.000  F
  F9       1.0000 0.29080  0.62780  0.23800  Biso   1.000  F
  F10      1.0000 0.70920  0.37220  0.76200  Biso   1.000  F
  F11      1.0000 0.10810  0.59260  0.10860  Biso   1.000  F
  F12      1.0000 0.89190  0.40740  0.89140  Biso   1.000  F
  C3       1.0000 0.29300  0.54380  0.07840  Biso   1.000  C
  C4       1.0000 0.70700  0.45620  0.92160  Biso   1.000  C
  C5       1.0000 0.23130  0.44080  0.05500  Biso   1.000  C
  C6       1.0000 0.76870  0.55920  0.94500  Biso   1.000  C
  H1       1.0000 0.15810  0.42310  0.07500  Biso   1.000  H
  H2       1.0000 0.84190  0.57690  0.92500  Biso   1.000  H
  C7       1.0000 0.27300  0.36250  0.00320  Biso   1.000  C
  C8       1.0000 0.72700  0.63750  0.99680  Biso   1.000  C
  C9       1.0000 0.19670  0.25070  0.97960  Biso   1.000  C
  C10      1.0000 0.80330  0.74930  0.02040  Biso   1.000  C
  F13      1.0000 0.16400  0.20290  0.88340  Biso   1.000  F
  F14      1.0000 0.83600  0.79710  0.11660  Biso   1.000  F
  F15      1.0000 0.08480  0.24520  0.00470  Biso   1.000  F
  F16      1.0000 0.91520  0.75480  0.99530  Biso   1.000  F
  F17      1.0000 0.27860  0.19130  0.04160  Biso   1.000  F
  F18      1.0000 0.72140  0.80870  0.95840  Biso   1.000  F
  F19      1.0000 0.27870  0.19270  0.00840  Biso   1.000  F
  F20      1.0000 0.72130  0.80730  0.99160  Biso   1.000  F
  F21      1.0000 0.12560  0.23470  0.02950  Biso   1.000  F
  F22      1.0000 0.87440  0.76530  0.97050  Biso   1.000  F
  F23      1.0000 0.12120  0.22220  0.87630  Biso   1.000  F
  F24      1.0000 0.87880  0.77780  0.12370  Biso   1.000  F
  O3       1.0000 0.36830  0.37173  0.97150  Biso   1.000  O
  O4       1.0000 0.63170  0.62827  0.02850  Biso   1.000  O
  Cu2      1.0000 0.00000  0.00000  0.50000  Biso   1.000  Cu
  O5       1.0000 0.01540  0.95079  0.63390  Biso   1.000  O
  O6       1.0000 0.98460  0.04921  0.36610  Biso   1.000  O
  C11      1.0000 0.99080  0.93890  0.79620  Biso   1.000  C
  C12      1.0000 0.00920  0.06110  0.20380  Biso   1.000  C
  F25      1.0000 0.12120  0.94770  0.84910  Biso   1.000  F
  F26      1.0000 0.87880  0.05230  0.15090  Biso   1.000  F
  F27      1.0000 0.89600  0.85090  0.77780  Biso   1.000  F
  F28      1.0000 0.10400  0.14910  0.22220  Biso   1.000  F
  F29      1.0000 0.98720  0.00490  0.87430  Biso   1.000  F
  F30      1.0000 0.01280  0.99510  0.12570  Biso   1.000  F
  F31      1.0000 0.94720  0.84510  0.78400  Biso   1.000  F
  F32      1.0000 0.05280  0.15490  0.21600  Biso   1.000  F
  F33      1.0000 0.94920  0.98430  0.86760  Biso   1.000  F
  F34      1.0000 0.05080  0.01570  0.13240  Biso   1.000  F
  F35      1.0000 0.10800  0.91110  0.82140  Biso   1.000  F
  F36      1.0000 0.89200  0.08890  0.17860  Biso   1.000  F
  C13      1.0000 0.95180  0.97780  0.69040  Biso   1.000  C
  C14      1.0000 0.04820  0.02220  0.30960  Biso   1.000  C
  C15      1.0000 0.84980  0.03570  0.66760  Biso   1.000  C
  C16      1.0000 0.15020  0.96430  0.33240  Biso   1.000  C
  H3       1.0000 0.81040  0.05010  0.71810  Biso   1.000  H
  H4       1.0000 0.18960  0.94990  0.28190  Biso   1.000  H
  C17      1.0000 0.80440  0.07260  0.57310  Biso   1.000  C
  C18      1.0000 0.19560  0.92740  0.42690  Biso   1.000  C
  C19      1.0000 0.69070  0.13410  0.55310  Biso   1.000  C
  C20      1.0000 0.30930  0.86590  0.44690  Biso   1.000  C
  F37      1.0000 0.73130  0.21250  0.55250  Biso   1.000  F
  F38      1.0000 0.26870  0.78750  0.44750  Biso   1.000  F
  F39      1.0000 0.61840  0.12390  0.60800  Biso   1.000  F
  F40      1.0000 0.38160  0.87610  0.39200  Biso   1.000  F
  F41      1.0000 0.59300  0.09810  0.45700  Biso   1.000  F
  F42      1.0000 0.40700  0.90190  0.54300  Biso   1.000  F
  F43      1.0000 0.73470  0.24210  0.55530  Biso   1.000  F
  F44      1.0000 0.26530  0.75790  0.44470  Biso   1.000  F
  F45      1.0000 0.64930  0.14430  0.63390  Biso   1.000  F
  F46      1.0000 0.35070  0.85570  0.36610  Biso   1.000  F
  O7       1.0000 0.84660  0.06397  0.49790  Biso   1.000  O
  O8       1.0000 0.15340  0.93603  0.50210  Biso   1.000  O
  O9       1.0000 0.41180  0.51910  0.82240  Biso   1.000  O
  O10      1.0000 0.58820  0.48090  0.17760  Biso   1.000  O
  N1       1.0000 0.28700  0.52800  0.77030  Biso   1.000  N
  N2       1.0000 0.71300  0.47200  0.22970  Biso   1.000  N
  C21      1.0000 0.24850  0.63050  0.75430  Biso   1.000  C
  C22      1.0000 0.75150  0.36950  0.24570  Biso   1.000  C
  C23      1.0000 0.29730  0.65880  0.66640  Biso   1.000  C
  C24      1.0000 0.70270  0.34120  0.33360  Biso   1.000  C
  H5       1.0000 0.39590  0.67230  0.69540  Biso   1.000  H
  H6       1.0000 0.60410  0.32770  0.30460  Biso   1.000  H
  H7       1.0000 0.26500  0.72040  0.64480  Biso   1.000  H
  H8       1.0000 0.73500  0.27960  0.35520  Biso   1.000  H
  H9       1.0000 0.26150  0.60150  0.60380  Biso   1.000  H
  H10      1.0000 0.73850  0.39850  0.39620  Biso   1.000  H
  C25      1.0000 0.32060  0.71190  0.85890  Biso   1.000  C
  C26      1.0000 0.67940  0.28810  0.14110  Biso   1.000  C
  H11      1.0000 0.41830  0.71930  0.88100  Biso   1.000  H
  H12      1.0000 0.58170  0.28070  0.11900  Biso   1.000  H
  H13      1.0000 0.29520  0.69050  0.91540  Biso   1.000  H
  H14      1.0000 0.70480  0.30950  0.08460  Biso   1.000  H
  H15      1.0000 0.29440  0.77780  0.84720  Biso   1.000  H
  H16      1.0000 0.70560  0.22220  0.15280  Biso   1.000  H
  C27      1.0000 0.09190  0.60080  0.71370  Biso   1.000  C
  C28      1.0000 0.90810  0.39920  0.28630  Biso   1.000  C
  C29      1.0000 0.01190  0.65330  0.62590  Biso   1.000  C
  C30      1.0000 0.98810  0.34670  0.37410  Biso   1.000  C
  H17      1.0000 0.91540  0.63140  0.60740  Biso   1.000  H
  H18      1.0000 0.08460  0.36860  0.39260  Biso   1.000  H
  H19      1.0000 0.03130  0.63420  0.56190  Biso   1.000  H
  H20      1.0000 0.96870  0.36580  0.43810  Biso   1.000  H
  H21      1.0000 0.03770  0.72800  0.65180  Biso   1.000  H
  H22      1.0000 0.96230  0.27200  0.34820  Biso   1.000  H
  C31      1.0000 0.04080  0.60840  0.80470  Biso   1.000  C
  C32      1.0000 0.95920  0.39160  0.19530  Biso   1.000  C
  H23      1.0000 0.94210  0.59470  0.77370  Biso   1.000  H
  H24      1.0000 0.05790  0.40530  0.22630  Biso   1.000  H
  H25      1.0000 0.07500  0.67760  0.85030  Biso   1.000  H
  H26      1.0000 0.92500  0.32240  0.14970  Biso   1.000  H
  H27      1.0000 0.07280  0.55780  0.84800  Biso   1.000  H
  H28      1.0000 0.92720  0.44220  0.15200  Biso   1.000  H
  N3       1.0000 0.06930  0.48650  0.66770  Biso   1.000  N
  N4       1.0000 0.93070  0.51350  0.33230  Biso   1.000  N
  O11      1.0000 0.95200  0.43230  0.60890  Biso   1.000  O
  O12      1.0000 0.04800  0.56770  0.39110  Biso   1.000  O
  C33      1.0000 0.18390  0.44750  0.70910  Biso   1.000  C
  C34      1.0000 0.81610  0.55250  0.29090  Biso   1.000  C
  C35      1.0000 0.19430  0.34160  0.68900  Biso   1.000  C
  C36      1.0000 0.80570  0.65840  0.31100  Biso   1.000  C
  C37      1.0000 0.09270  0.25550  0.62130  Biso   1.000  C
  C38      1.0000 0.90730  0.74450  0.37870  Biso   1.000  C
  H29      1.0000 0.00140  0.25910  0.58250  Biso   1.000  H
  H30      1.0000 0.99860  0.74090  0.41750  Biso   1.000  H
  N5       1.0000 0.14140  0.16910  0.61900  Biso   1.000  N
  N6       1.0000 0.85860  0.83090  0.38100  Biso   1.000  N
  N7       1.0000 0.27550  0.19810  0.68630  Biso   1.000  N
  N8       1.0000 0.72450  0.80190  0.31370  Biso   1.000  N
  C39      1.0000 0.36330  0.12160  0.70630  Biso   1.000  C
  C40      1.0000 0.63670  0.87840  0.29370  Biso   1.000  C
  H31      1.0000 0.31160  0.05470  0.65810  Biso   1.000  H
  H32      1.0000 0.68840  0.94530  0.34190  Biso   1.000  H
  H33      1.0000 0.43980  0.14290  0.68650  Biso   1.000  H
  H34      1.0000 0.56020  0.85710  0.31350  Biso   1.000  H
  C41      1.0000 0.41590  0.10720  0.81420  Biso   1.000  C
  C42      1.0000 0.58410  0.89280  0.18580  Biso   1.000  C
  H35      1.0000 0.34090  0.09640  0.83830  Biso   1.000  H
  H36      1.0000 0.65910  0.90360  0.16170  Biso   1.000  H
  H37      1.0000 0.47980  0.17050  0.86120  Biso   1.000  H
  H38      1.0000 0.52020  0.82950  0.13880  Biso   1.000  H
  C43      1.0000 0.49130  0.01190  0.82840  Biso   1.000  C
  C44      1.0000 0.50870  0.98810  0.17160  Biso   1.000  C
  H39      1.0000 0.46200  0.97140  0.87350  Biso   1.000  H
  H40      1.0000 0.53800  0.02860  0.12650  Biso   1.000  H
  H41      1.0000 0.46550  0.96670  0.75700  Biso   1.000  H
  H42      1.0000 0.53450  0.03330  0.24300  Biso   1.000  H
  C45      1.0000 0.61040  0.03940  0.86890  Biso   1.000  C
  C46      1.0000 0.38960  0.96060  0.13110  Biso   1.000  C
  H43      1.0000 0.65330  0.97940  0.86770  Biso   1.000  H
  H44      1.0000 0.34670  0.02060  0.13230  Biso   1.000  H
  H45      1.0000 0.63750  0.07550  0.94340  Biso   1.000  H
  H46      1.0000 0.36250  0.92450  0.05660  Biso   1.000  H
  H47      1.0000 0.63870  0.08570  0.82880  Biso   1.000  H
  H48      1.0000 0.36130  0.91430  0.17120  Biso   1.000  H
  C47      1.0000 0.30950  0.29910  0.72810  Biso   1.000  C
  C48      1.0000 0.69050  0.70090  0.27190  Biso   1.000  C
  H49      1.0000 0.39680  0.33560  0.77600  Biso   1.000  H
  H50      1.0000 0.60320  0.66440  0.22400  Biso   1.000  H
  I1       1.0000 0.37300  0.30150  0.44310  Biso   1.000  I
  I2       1.0000 0.62700  0.69850  0.55690  Biso   1.000  I
  C49      1.0000 0.46500  0.42930  0.56390  Biso   1.000  C
  C50      1.0000 0.53500  0.57070  0.43610  Biso   1.000  C
  H51      1.0000 0.55010  0.41020  0.56540  Biso   1.000  H
  H52      1.0000 0.44990  0.58980  0.43460  Biso   1.000  H
  H53      1.0000 0.46880  0.45220  0.63600  Biso   1.000  H
  H54      1.0000 0.53120  0.54780  0.36400  Biso   1.000  H
  C51      1.0000 0.50000  0.50000  0.50000  Biso   1.000  C
  H55      1.0000 0.41870  0.52260  0.50430  Biso   1.000  H
  H56      1.0000 0.58130  0.47740  0.49570  Biso   1.000  H
  H57      1.0000 0.48430  0.47230  0.42610  Biso   1.000  H
  H58      1.0000 0.51570  0.52770  0.57390  Biso   1.000  H
  C52      1.0000 0.61390  0.58840  0.59880  Biso   1.000  C
  C53      1.0000 0.38610  0.41160  0.40120  Biso   1.000  C
  H59      1.0000 0.68800  0.56870  0.57890  Biso   1.000  H
  H60      1.0000 0.31200  0.43130  0.42110  Biso   1.000  H
  H61      1.0000 0.64320  0.59970  0.67570  Biso   1.000  H
  H62      1.0000 0.35680  0.40030  0.32430  Biso   1.000  H
  C54      1.0000 0.58540  0.67010  0.51630  Biso   1.000  C
  C55      1.0000 0.41460  0.32990  0.48370  Biso   1.000  C
  H63      1.0000 0.66960  0.72490  0.54970  Biso   1.000  H
  H64      1.0000 0.33040  0.27510  0.45030  Biso   1.000  H
  H65      1.0000 0.55800  0.65980  0.43960  Biso   1.000  H
  H66      1.0000 0.44200  0.34020  0.56040  Biso   1.000  H
  H67      1.0000 0.51270  0.69110  0.53750  Biso   1.000  H
  H68      1.0000 0.48730  0.30890  0.46250  Biso   1.000  H
