data_image0
_cell_length_a       10.4323
_cell_length_b       12.9645
_cell_length_c       13.452
_cell_angle_alpha    97.625
_cell_angle_beta     109.325
_cell_angle_gamma    99.737

_symmetry_space_group_name_H-M    "P 1"
_symmetry_int_tables_number       1

loop_
  _symmetry_equiv_pos_as_xyz
  'x, y, z'

loop_
  _atom_site_label
  _atom_site_occupancy
  _atom_site_fract_x
  _atom_site_fract_y
  _atom_site_fract_z
  _atom_site_thermal_displace_type
  _atom_site_B_iso_or_equiv
  _atom_site_type_symbol
  Cu1      1.0000 0.50000  0.50000  0.00000  Biso   1.000  Cu
  O1       1.0000 0.36315  0.59656  0.05904  Biso   1.000  O
  O2       1.0000 0.63685  0.40344  0.94096  Biso   1.000  O
  C1       1.0000 0.22450  0.62530  0.16050  Biso   1.000  C
  C2       1.0000 0.77550  0.37470  0.83950  Biso   1.000  C
  F1       1.0000 0.34750  0.66200  0.26530  Biso   1.000  F
  F2       1.0000 0.65250  0.33800  0.73470  Biso   1.000  F
  F3       1.0000 0.12220  0.58080  0.18250  Biso   1.000  F
  F4       1.0000 0.87780  0.41920  0.81750  Biso   1.000  F
  F5       1.0000 0.19540  0.70850  0.11480  Biso   1.000  F
  F6       1.0000 0.80460  0.29150  0.88520  Biso   1.000  F
  F7       1.0000 0.21690  0.71900  0.13730  Biso   1.000  F
  F8       1.0000 0.78310  0.28100  0.86270  Biso   1.000  F
  F9       1.0000 0.30030  0.64760  0.24670  Biso   1.000  F
  F10      1.0000 0.69970  0.35240  0.75330  Biso   1.000  F
  F11      1.0000 0.09910  0.58630  0.16550  Biso   1.000  F
  F12      1.0000 0.90090  0.41370  0.83450  Biso   1.000  F
  C3       1.0000 0.26870  0.55099  0.08579  Biso   1.000  C
  C4       1.0000 0.73130  0.44901  0.91421  Biso   1.000  C
  C5       1.0000 0.20300  0.44242  0.05820  Biso   1.000  C
  C6       1.0000 0.79700  0.55758  0.94180  Biso   1.000  C
  H1       1.0000 0.12770  0.41970  0.08090  Biso   1.000  H
  H2       1.0000 0.87230  0.58030  0.91910  Biso   1.000  H
  C7       1.0000 0.24270  0.36666  0.99944  Biso   1.000  C
  C8       1.0000 0.75730  0.63334  0.00056  Biso   1.000  C
  C9       1.0000 0.16060  0.25070  0.97280  Biso   1.000  C
  C10      1.0000 0.83940  0.74930  0.02720  Biso   1.000  C
  F13      1.0000 0.12830  0.20830  0.87380  Biso   1.000  F
  F14      1.0000 0.87170  0.79170  0.12620  Biso   1.000  F
  F15      1.0000 0.04920  0.23470  0.00330  Biso   1.000  F
  F16      1.0000 0.95080  0.76530  0.99670  Biso   1.000  F
  F17      1.0000 0.24470  0.19670  0.03300  Biso   1.000  F
  F18      1.0000 0.75530  0.80330  0.96700  Biso   1.000  F
  F19      1.0000 0.24310  0.18180  0.99740  Biso   1.000  F
  F20      1.0000 0.75690  0.81820  0.00260  Biso   1.000  F
  F21      1.0000 0.07130  0.23400  0.01470  Biso   1.000  F
  F22      1.0000 0.92870  0.76600  0.98530  Biso   1.000  F
  F23      1.0000 0.08830  0.21880  0.86340  Biso   1.000  F
  F24      1.0000 0.91170  0.78120  0.13660  Biso   1.000  F
  O3       1.0000 0.34017  0.37852  0.96332  Biso   1.000  O
  O4       1.0000 0.65983  0.62148  0.03668  Biso   1.000  O
  Cu2      1.0000 0.00000  0.00000  0.50000  Biso   1.000  Cu
  O5       1.0000 0.00126  0.94635  0.63082  Biso   1.000  O
  O6       1.0000 0.99874  0.05365  0.36918  Biso   1.000  O
  C11      1.0000 0.97010  0.93572  0.79370  Biso   1.000  C
  C12      1.0000 0.02990  0.06428  0.20630  Biso   1.000  C
  F25      1.0000 0.12440  0.94180  0.84480  Biso   1.000  F
  F26      1.0000 0.87560  0.05820  0.15520  Biso   1.000  F
  F27      1.0000 0.89460  0.83060  0.76750  Biso   1.000  F
  F28      1.0000 0.10540  0.16940  0.23250  Biso   1.000  F
  F29      1.0000 0.94960  0.99020  0.87020  Biso   1.000  F
  F30      1.0000 0.05040  0.00980  0.12980  Biso   1.000  F
  F31      1.0000 0.91560  0.83540  0.78110  Biso   1.000  F
  F32      1.0000 0.08440  0.16460  0.21890  Biso   1.000  F
  F33      1.0000 0.91270  0.98840  0.86180  Biso   1.000  F
  F34      1.0000 0.08730  0.01160  0.13820  Biso   1.000  F
  F35      1.0000 0.08870  0.93910  0.83070  Biso   1.000  F
  F36      1.0000 0.91130  0.06090  0.16930  Biso   1.000  F
  C13      1.0000 0.93580  0.97625  0.68807  Biso   1.000  C
  C14      1.0000 0.06420  0.02375  0.31193  Biso   1.000  C
  C15      1.0000 0.83420  0.03703  0.66527  Biso   1.000  C
  C16      1.0000 0.16580  0.96297  0.33473  Biso   1.000  C
  H3       1.0000 0.79210  0.05390  0.71620  Biso   1.000  H
  H4       1.0000 0.20790  0.94610  0.28380  Biso   1.000  H
  C17      1.0000 0.79460  0.07271  0.56947  Biso   1.000  C
  C18      1.0000 0.20540  0.92729  0.43053  Biso   1.000  C
  C19      1.0000 0.67910  0.13559  0.54730  Biso   1.000  C
  C20      1.0000 0.32090  0.86441  0.45270  Biso   1.000  C
  F37      1.0000 0.72920  0.22685  0.55540  Biso   1.000  F
  F38      1.0000 0.27080  0.77315  0.44460  Biso   1.000  F
  F39      1.0000 0.60610  0.13610  0.60310  Biso   1.000  F
  F40      1.0000 0.39390  0.86390  0.39690  Biso   1.000  F
  F41      1.0000 0.58244  0.09602  0.44941  Biso   1.000  F
  F42      1.0000 0.41756  0.90398  0.55059  Biso   1.000  F
  F43      1.0000 0.73390  0.24870  0.54400  Biso   1.000  F
  F44      1.0000 0.26610  0.75130  0.45600  Biso   1.000  F
  F45      1.0000 0.62150  0.13280  0.62980  Biso   1.000  F
  F46      1.0000 0.37850  0.86720  0.37020  Biso   1.000  F
  O7       1.0000 0.84198  0.06347  0.49520  Biso   1.000  O
  O8       1.0000 0.15802  0.93653  0.50480  Biso   1.000  O
  O9       1.0000 0.44642  0.51748  0.84682  Biso   1.000  O
  O10      1.0000 0.55358  0.48252  0.15318  Biso   1.000  O
  N1       1.0000 0.32400  0.53383  0.79189  Biso   1.000  N
  N2       1.0000 0.67600  0.46617  0.20811  Biso   1.000  N
  C21      1.0000 0.30720  0.64372  0.77338  Biso   1.000  C
  C22      1.0000 0.69280  0.35628  0.22662  Biso   1.000  C
  C23      1.0000 0.37610  0.66586  0.69150  Biso   1.000  C
  C24      1.0000 0.62390  0.33414  0.30850  Biso   1.000  C
  H5       1.0000 0.47760  0.67870  0.72640  Biso   1.000  H
  H6       1.0000 0.52240  0.32130  0.27360  Biso   1.000  H
  H7       1.0000 0.35160  0.72900  0.66400  Biso   1.000  H
  H8       1.0000 0.64840  0.27100  0.33600  Biso   1.000  H
  H9       1.0000 0.34290  0.60400  0.63170  Biso   1.000  H
  H10      1.0000 0.65710  0.39600  0.36830  Biso   1.000  H
  C25      1.0000 0.37790  0.72736  0.87691  Biso   1.000  C
  C26      1.0000 0.62210  0.27264  0.12309  Biso   1.000  C
  H11      1.0000 0.47920  0.73550  0.90030  Biso   1.000  H
  H12      1.0000 0.52080  0.26450  0.09970  Biso   1.000  H
  H13      1.0000 0.34540  0.70470  0.93280  Biso   1.000  H
  H14      1.0000 0.65460  0.29530  0.06720  Biso   1.000  H
  H15      1.0000 0.35460  0.79580  0.86440  Biso   1.000  H
  H16      1.0000 0.64540  0.20420  0.13560  Biso   1.000  H
  C27      1.0000 0.14610  0.62268  0.72693  Biso   1.000  C
  C28      1.0000 0.85390  0.37732  0.27307  Biso   1.000  C
  C29      1.0000 0.08680  0.68311  0.63830  Biso   1.000  C
  C30      1.0000 0.91320  0.31689  0.36170  Biso   1.000  C
  H17      1.0000 0.98470  0.66520  0.61360  Biso   1.000  H
  H18      1.0000 0.01530  0.33480  0.38640  Biso   1.000  H
  H19      1.0000 0.11620  0.66260  0.57790  Biso   1.000  H
  H20      1.0000 0.88380  0.33740  0.42210  Biso   1.000  H
  H21      1.0000 0.12150  0.76020  0.66670  Biso   1.000  H
  H22      1.0000 0.87850  0.23980  0.33330  Biso   1.000  H
  C31      1.0000 0.08030  0.63535  0.81249  Biso   1.000  C
  C32      1.0000 0.91970  0.36465  0.18751  Biso   1.000  C
  H23      1.0000 0.97870  0.62080  0.77750  Biso   1.000  H
  H24      1.0000 0.02130  0.37920  0.22250  Biso   1.000  H
  H25      1.0000 0.11500  0.70850  0.85490  Biso   1.000  H
  H26      1.0000 0.88500  0.29150  0.14510  Biso   1.000  H
  H27      1.0000 0.10510  0.58490  0.85990  Biso   1.000  H
  H28      1.0000 0.89490  0.41510  0.14010  Biso   1.000  H
  N3       1.0000 0.10990  0.50470  0.67964  Biso   1.000  N
  N4       1.0000 0.89010  0.49530  0.32036  Biso   1.000  N
  O11      1.0000 0.98940  0.45552  0.61362  Biso   1.000  O
  O12      1.0000 0.01060  0.54448  0.38638  Biso   1.000  O
  C33      1.0000 0.21570  0.45687  0.72572  Biso   1.000  C
  C34      1.0000 0.78430  0.54313  0.27428  Biso   1.000  C
  C35      1.0000 0.21120  0.34569  0.70139  Biso   1.000  C
  C36      1.0000 0.78880  0.65431  0.29861  Biso   1.000  C
  C37      1.0000 0.10210  0.26295  0.62660  Biso   1.000  C
  C38      1.0000 0.89790  0.73705  0.37340  Biso   1.000  C
  H29      1.0000 0.01400  0.27290  0.58380  Biso   1.000  H
  H30      1.0000 0.98600  0.72710  0.41620  Biso   1.000  H
  N5       1.0000 0.13860  0.16962  0.62389  Biso   1.000  N
  N6       1.0000 0.86140  0.83038  0.37611  Biso   1.000  N
  N7       1.0000 0.27095  0.19107  0.69731  Biso   1.000  N
  N8       1.0000 0.72905  0.80893  0.30269  Biso   1.000  N
  C39      1.0000 0.34460  0.10389  0.71142  Biso   1.000  C
  C40      1.0000 0.65540  0.89611  0.28858  Biso   1.000  C
  H31      1.0000 0.38810  0.09640  0.65650  Biso   1.000  H
  H32      1.0000 0.61190  0.90360  0.34350  Biso   1.000  H
  H33      1.0000 0.27580  0.03620  0.69870  Biso   1.000  H
  H34      1.0000 0.72420  0.96380  0.30130  Biso   1.000  H
  C41      1.0000 0.45700  0.12037  0.82229  Biso   1.000  C
  C42      1.0000 0.54300  0.87963  0.17771  Biso   1.000  C
  H35      1.0000 0.41430  0.12520  0.87790  Biso   1.000  H
  H36      1.0000 0.58570  0.87480  0.12210  Biso   1.000  H
  H37      1.0000 0.52610  0.18820  0.83630  Biso   1.000  H
  H38      1.0000 0.47390  0.81180  0.16370  Biso   1.000  H
  C43      1.0000 0.52960  0.02794  0.82860  Biso   1.000  C
  C44      1.0000 0.47040  0.97206  0.17140  Biso   1.000  C
  H39      1.0000 0.56690  0.02100  0.76980  Biso   1.000  H
  H40      1.0000 0.43310  0.97900  0.23020  Biso   1.000  H
  H41      1.0000 0.46020  0.96100  0.81720  Biso   1.000  H
  H42      1.0000 0.53980  0.03900  0.18280  Biso   1.000  H
  C45      1.0000 0.64840  0.04150  0.93550  Biso   1.000  C
  C46      1.0000 0.35160  0.95850  0.06450  Biso   1.000  C
  H43      1.0000 0.69110  0.97980  0.93480  Biso   1.000  H
  H44      1.0000 0.30890  0.02020  0.06520  Biso   1.000  H
  H45      1.0000 0.61190  0.04660  0.99400  Biso   1.000  H
  H46      1.0000 0.38810  0.95340  0.00600  Biso   1.000  H
  H47      1.0000 0.71860  0.10680  0.94670  Biso   1.000  H
  H48      1.0000 0.28140  0.89320  0.05330  Biso   1.000  H
  C47      1.0000 0.31860  0.29359  0.74411  Biso   1.000  C
  C48      1.0000 0.68140  0.70641  0.25589  Biso   1.000  C
  H49      1.0000 0.40840  0.32580  0.79660  Biso   1.000  H
  H50      1.0000 0.59160  0.67420  0.20340  Biso   1.000  H
  I1       1.0000 0.34516  0.30316  0.46174  Biso   1.000  I
  I2       1.0000 0.65484  0.69684  0.53826  Biso   1.000  I
  C49      1.0000 0.52770  0.43240  0.55510  Biso   1.000  C
  C50      1.0000 0.47230  0.56760  0.44490  Biso   1.000  C
  H51      1.0000 0.61320  0.41320  0.55660  Biso   1.000  H
  H52      1.0000 0.38680  0.58680  0.44340  Biso   1.000  H
  H53      1.0000 0.53180  0.45520  0.62720  Biso   1.000  H
  H54      1.0000 0.46820  0.54480  0.37280  Biso   1.000  H
  C51      1.0000 0.50000  0.50000  0.50000  Biso   1.000  C
  H55      1.0000 0.41870  0.52260  0.50430  Biso   1.000  H
  H56      1.0000 0.58130  0.47740  0.49570  Biso   1.000  H
  H57      1.0000 0.48430  0.47230  0.42610  Biso   1.000  H
  H58      1.0000 0.51570  0.52770  0.57390  Biso   1.000  H
  C52      1.0000 0.65350  0.61030  0.55870  Biso   1.000  C
  C53      1.0000 0.34650  0.38970  0.44130  Biso   1.000  C
  H59      1.0000 0.72760  0.59060  0.53880  Biso   1.000  H
  H60      1.0000 0.27240  0.40940  0.46120  Biso   1.000  H
  H61      1.0000 0.68280  0.62150  0.63570  Biso   1.000  H
  H62      1.0000 0.31720  0.37850  0.36430  Biso   1.000  H
  C54      1.0000 0.63230  0.70030  0.52280  Biso   1.000  C
  C55      1.0000 0.36770  0.29970  0.47720  Biso   1.000  C
  H63      1.0000 0.71650  0.75510  0.55620  Biso   1.000  H
  H64      1.0000 0.28350  0.24490  0.44380  Biso   1.000  H
  H65      1.0000 0.60490  0.69000  0.44600  Biso   1.000  H
  H66      1.0000 0.39510  0.31000  0.55400  Biso   1.000  H
  H67      1.0000 0.55960  0.72130  0.54390  Biso   1.000  H
  H68      1.0000 0.44040  0.27870  0.45610  Biso   1.000  H
