data_image0
_cell_length_a       9.448
_cell_length_b       13.5
_cell_length_c       13.744
_cell_angle_alpha    107.42
_cell_angle_beta     96.285
_cell_angle_gamma    100.873

_symmetry_space_group_name_H-M    "P 1"
_symmetry_int_tables_number       1

loop_
  _symmetry_equiv_pos_as_xyz
  'x, y, z'

loop_
  _atom_site_label
  _atom_site_occupancy
  _atom_site_fract_x
  _atom_site_fract_y
  _atom_site_fract_z
  _atom_site_thermal_displace_type
  _atom_site_B_iso_or_equiv
  _atom_site_type_symbol
  Cu1      1.0000 0.00000  0.50000  0.50000  Biso   1.000  Cu
  O1       1.0000 0.89630  0.60120  0.57660  Biso   1.000  O
  O2       1.0000 0.10370  0.39880  0.42340  Biso   1.000  O
  C1       1.0000 0.71390  0.67110  0.65830  Biso   1.000  C
  C2       1.0000 0.28610  0.32890  0.34170  Biso   1.000  C
  F1       1.0000 0.75500  0.75300  0.63800  Biso   1.000  F
  F2       1.0000 0.24500  0.24700  0.36200  Biso   1.000  F
  F3       1.0000 0.57600  0.65600  0.66060  Biso   1.000  F
  F4       1.0000 0.42400  0.34400  0.33940  Biso   1.000  F
  F5       1.0000 0.78600  0.72400  0.73400  Biso   1.000  F
  F6       1.0000 0.21400  0.27600  0.26600  Biso   1.000  F
  F7       1.0000 0.71300  0.72500  0.58200  Biso   1.000  F
  F8       1.0000 0.28700  0.27500  0.41800  Biso   1.000  F
  F9       1.0000 0.57900  0.64300  0.64900  Biso   1.000  F
  F10      1.0000 0.42100  0.35700  0.35100  Biso   1.000  F
  F11      1.0000 0.75700  0.69500  0.77200  Biso   1.000  F
  F12      1.0000 0.24300  0.30500  0.22800  Biso   1.000  F
  C3       1.0000 0.77550  0.57570  0.60380  Biso   1.000  C
  C4       1.0000 0.22450  0.42430  0.39620  Biso   1.000  C
  C5       1.0000 0.69720  0.47560  0.59380  Biso   1.000  C
  C6       1.0000 0.30280  0.52440  0.40620  Biso   1.000  C
  H1       1.0000 0.60610  0.46830  0.61570  Biso   1.000  H
  H2       1.0000 0.39390  0.53170  0.38430  Biso   1.000  H
  C7       1.0000 0.74790  0.38570  0.55270  Biso   1.000  C
  C8       1.0000 0.25210  0.61430  0.44730  Biso   1.000  C
  C9       1.0000 0.65200  0.27910  0.54770  Biso   1.000  C
  C10      1.0000 0.34800  0.72090  0.45230  Biso   1.000  C
  F13      1.0000 0.60700  0.21780  0.44730  Biso   1.000  F
  F14      1.0000 0.39300  0.78220  0.55270  Biso   1.000  F
  F15      1.0000 0.73300  0.21120  0.59370  Biso   1.000  F
  F16      1.0000 0.26700  0.78880  0.40630  Biso   1.000  F
  F17      1.0000 0.57600  0.27550  0.62170  Biso   1.000  F
  F18      1.0000 0.42400  0.72450  0.37830  Biso   1.000  F
  F19      1.0000 0.72600  0.23670  0.55930  Biso   1.000  F
  F20      1.0000 0.27400  0.76330  0.44070  Biso   1.000  F
  F21      1.0000 0.51400  0.29040  0.55090  Biso   1.000  F
  F22      1.0000 0.48600  0.70960  0.44910  Biso   1.000  F
  O3       1.0000 0.86430  0.37990  0.52110  Biso   1.000  O
  O4       1.0000 0.13570  0.62010  0.47890  Biso   1.000  O
  Cu2      1.0000 0.00000  0.00000  0.00000  Biso   1.000  Cu
  O5       1.0000 0.82160  0.89760  0.99820  Biso   1.000  O
  O6       1.0000 0.17840  0.10240  0.00180  Biso   1.000  O
  C11      1.0000 0.56970  0.81290  0.97000  Biso   1.000  C
  C12      1.0000 0.43030  0.18710  0.03000  Biso   1.000  C
  F23      1.0000 0.57700  0.81800  0.06500  Biso   1.000  F
  F24      1.0000 0.42300  0.18200  0.93500  Biso   1.000  F
  F25      1.0000 0.50240  0.73750  0.87930  Biso   1.000  F
  F26      1.0000 0.49760  0.26250  0.12070  Biso   1.000  F
  F27      1.0000 0.59900  0.71520  0.93300  Biso   1.000  F
  F28      1.0000 0.40100  0.28480  0.06700  Biso   1.000  F
  F29      1.0000 0.46900  0.86180  0.99520  Biso   1.000  F
  F30      1.0000 0.53100  0.13820  0.00480  Biso   1.000  F
  F31      1.0000 0.45100  0.80200  0.92100  Biso   1.000  F
  F32      1.0000 0.54900  0.19800  0.07900  Biso   1.000  F
  F33      1.0000 0.61100  0.77000  0.03200  Biso   1.000  F
  F34      1.0000 0.38900  0.23000  0.96800  Biso   1.000  F
  C13      1.0000 0.69880  0.88710  0.94610  Biso   1.000  C
  C14      1.0000 0.30120  0.11290  0.05390  Biso   1.000  C
  C15      1.0000 0.66680  0.93670  0.87280  Biso   1.000  C
  C16      1.0000 0.33320  0.06330  0.12720  Biso   1.000  C
  H3       1.0000 0.56990  0.92060  0.83780  Biso   1.000  H
  H4       1.0000 0.43010  0.07940  0.16220  Biso   1.000  H
  C17      1.0000 0.77090  0.00750  0.85050  Biso   1.000  C
  C18      1.0000 0.22910  0.99250  0.14950  Biso   1.000  C
  C19      1.0000 0.72260  0.05620  0.77290  Biso   1.000  C
  C20      1.0000 0.27740  0.94380  0.22710  Biso   1.000  C
  F35      1.0000 0.61400  0.98650  0.69500  Biso   1.000  F
  F36      1.0000 0.38600  0.01350  0.30500  Biso   1.000  F
  F37      1.0000 0.82820  0.07630  0.70360  Biso   1.000  F
  F38      1.0000 0.17180  0.92370  0.29640  Biso   1.000  F
  F39      1.0000 0.75500  0.16130  0.81400  Biso   1.000  F
  F40      1.0000 0.24500  0.83870  0.18600  Biso   1.000  F
  F41      1.0000 0.78800  0.04100  0.72200  Biso   1.000  F
  F42      1.0000 0.21200  0.95900  0.27800  Biso   1.000  F
  F43      1.0000 0.67900  0.14000  0.80460  Biso   1.000  F
  F44      1.0000 0.32100  0.86000  0.19540  Biso   1.000  F
  F45      1.0000 0.59100  0.03790  0.73800  Biso   1.000  F
  F46      1.0000 0.40900  0.96210  0.26200  Biso   1.000  F
  O7       1.0000 0.90520  0.03890  0.88830  Biso   1.000  O
  O8       1.0000 0.09480  0.96110  0.11170  Biso   1.000  O
  O9       1.0000 0.18610  0.53800  0.63820  Biso   1.000  O
  O10      1.0000 0.81390  0.46200  0.36180  Biso   1.000  O
  N1       1.0000 0.17340  0.52230  0.72370  Biso   1.000  N
  N2       1.0000 0.82660  0.47770  0.27630  Biso   1.000  N
  C21      1.0000 0.20390  0.42710  0.75750  Biso   1.000  C
  C22      1.0000 0.79610  0.57290  0.24250  Biso   1.000  C
  C23      1.0000 0.15500  0.33030  0.65150  Biso   1.000  C
  C24      1.0000 0.84500  0.66970  0.34850  Biso   1.000  C
  H5       1.0000 0.16960  0.26540  0.66340  Biso   1.000  H
  H6       1.0000 0.83040  0.73460  0.33660  Biso   1.000  H
  H7       1.0000 0.21330  0.34500  0.60140  Biso   1.000  H
  H8       1.0000 0.78670  0.65500  0.39860  Biso   1.000  H
  H9       1.0000 0.05230  0.32160  0.62520  Biso   1.000  H
  H10      1.0000 0.94770  0.67840  0.37480  Biso   1.000  H
  C25      1.0000 0.36580  0.43520  0.75920  Biso   1.000  C
  C26      1.0000 0.63420  0.56480  0.24080  Biso   1.000  C
  H11      1.0000 0.42070  0.49140  0.82130  Biso   1.000  H
  H12      1.0000 0.57930  0.50860  0.17870  Biso   1.000  H
  H13      1.0000 0.39270  0.45150  0.69860  Biso   1.000  H
  H14      1.0000 0.60730  0.54850  0.30140  Biso   1.000  H
  H15      1.0000 0.38810  0.36780  0.75860  Biso   1.000  H
  H16      1.0000 0.61190  0.63220  0.24140  Biso   1.000  H
  C27      1.0000 0.16700  0.44100  0.85900  Biso   1.000  C
  C28      1.0000 0.83300  0.55900  0.14100  Biso   1.000  C
  C29      1.0000 0.18490  0.39370  0.92860  Biso   1.000  C
  C30      1.0000 0.81510  0.60630  0.07140  Biso   1.000  C
  H17      1.0000 0.28200  0.42390  0.97040  Biso   1.000  H
  H18      1.0000 0.71800  0.57610  0.02960  Biso   1.000  H
  H19      1.0000 0.17380  0.31790  0.89410  Biso   1.000  H
  H20      1.0000 0.82620  0.68210  0.10590  Biso   1.000  H
  H21      1.0000 0.11190  0.40420  0.97280  Biso   1.000  H
  H22      1.0000 0.88810  0.59580  0.02720  Biso   1.000  H
  C31      1.0000 0.98600  0.36770  0.79630  Biso   1.000  C
  C32      1.0000 0.01400  0.63230  0.20370  Biso   1.000  C
  H23      1.0000 0.98260  0.29190  0.77380  Biso   1.000  H
  H24      1.0000 0.01740  0.70810  0.22620  Biso   1.000  H
  H25      1.0000 0.95760  0.38860  0.73670  Biso   1.000  H
  H26      1.0000 0.04240  0.61140  0.26330  Biso   1.000  H
  H27      1.0000 0.91850  0.38280  0.84440  Biso   1.000  H
  H28      1.0000 0.08150  0.61720  0.15560  Biso   1.000  H
  N3       1.0000 0.15630  0.55530  0.88800  Biso   1.000  N
  N4       1.0000 0.84370  0.44470  0.11200  Biso   1.000  N
  O11      1.0000 0.15040  0.59920  0.97930  Biso   1.000  O
  O12      1.0000 0.84960  0.40080  0.02070  Biso   1.000  O
  C33      1.0000 0.15660  0.59550  0.81180  Biso   1.000  C
  C34      1.0000 0.84340  0.40450  0.18820  Biso   1.000  C
  C35      1.0000 0.13360  0.69850  0.82010  Biso   1.000  C
  C36      1.0000 0.86640  0.30150  0.17990  Biso   1.000  C
  C37      1.0000 0.09470  0.77200  0.90440  Biso   1.000  C
  C38      1.0000 0.90530  0.22800  0.09560  Biso   1.000  C
  H29      1.0000 0.07730  0.75940  0.96620  Biso   1.000  H
  H30      1.0000 0.92270  0.24060  0.03380  Biso   1.000  H
  N5       1.0000 0.08620  0.85970  0.88440  Biso   1.000  N
  N6       1.0000 0.91380  0.14030  0.11560  Biso   1.000  N
  N7       1.0000 0.12010  0.84480  0.78760  Biso   1.000  N
  N8       1.0000 0.87990  0.15520  0.21240  Biso   1.000  N
  C39      1.0000 0.12650  0.92750  0.73910  Biso   1.000  C
  C40      1.0000 0.87350  0.07250  0.26090  Biso   1.000  C
  H31      1.0000 0.03220  0.90810  0.69240  Biso   1.000  H
  H32      1.0000 0.96780  0.09190  0.30760  Biso   1.000  H
  H33      1.0000 0.12560  0.99260  0.79490  Biso   1.000  H
  H34      1.0000 0.87440  0.00740  0.20510  Biso   1.000  H
  C41      1.0000 0.20900  0.95280  0.69510  Biso   1.000  C
  C42      1.0000 0.79100  0.04720  0.30490  Biso   1.000  C
  H35      1.0000 0.20500  0.89070  0.63460  Biso   1.000  H
  H36      1.0000 0.79500  0.10930  0.36540  Biso   1.000  H
  H37      1.0000 0.30500  0.96880  0.73860  Biso   1.000  H
  H38      1.0000 0.69500  0.03120  0.26140  Biso   1.000  H
  C43      1.0000 0.20400  0.04810  0.65530  Biso   1.000  C
  C44      1.0000 0.79600  0.95190  0.34470  Biso   1.000  C
  H39      1.0000 0.10190  0.05080  0.63870  Biso   1.000  H
  H40      1.0000 0.89810  0.94920  0.36130  Biso   1.000  H
  H41      1.0000 0.25370  0.11420  0.71140  Biso   1.000  H
  H42      1.0000 0.74630  0.88580  0.28860  Biso   1.000  H
  C45      1.0000 0.26100  0.04540  0.57860  Biso   1.000  C
  C46      1.0000 0.73900  0.95460  0.42140  Biso   1.000  C
  H43      1.0000 0.25500  0.10830  0.55960  Biso   1.000  H
  H44      1.0000 0.74500  0.89170  0.44040  Biso   1.000  H
  H45      1.0000 0.21090  0.98190  0.52140  Biso   1.000  H
  H46      1.0000 0.78910  0.01810  0.47860  Biso   1.000  H
  H47      1.0000 0.36350  0.04400  0.59420  Biso   1.000  H
  H48      1.0000 0.63650  0.95600  0.40580  Biso   1.000  H
  C47      1.0000 0.15100  0.74990  0.74790  Biso   1.000  C
  C48      1.0000 0.84900  0.25010  0.25210  Biso   1.000  C
  H49      1.0000 0.17920  0.72340  0.68340  Biso   1.000  H
  H50      1.0000 0.82080  0.27660  0.31660  Biso   1.000  H
