data_image0
_cell_length_a       21.3236
_cell_length_b       13.2001
_cell_length_c       13.4815
_cell_angle_alpha    98.383
_cell_angle_beta     111.874
_cell_angle_gamma    97.434

_symmetry_space_group_name_H-M    "P 1"
_symmetry_int_tables_number       1

loop_
  _symmetry_equiv_pos_as_xyz
  'x, y, z'

loop_
  _atom_site_label
  _atom_site_occupancy
  _atom_site_fract_x
  _atom_site_fract_y
  _atom_site_fract_z
  _atom_site_thermal_displace_type
  _atom_site_B_iso_or_equiv
  _atom_site_type_symbol
  Cu1      1.0000 0.50000  0.50000  0.00000  Biso   1.000  Cu
  O1       1.0000 0.43213  0.37152  0.96677  Biso   1.000  O
  O2       1.0000 0.56787  0.62848  0.03323  Biso   1.000  O
  C1       1.0000 0.34110  0.25240  0.96570  Biso   1.000  C
  C2       1.0000 0.65890  0.74760  0.03430  Biso   1.000  C
  F1       1.0000 0.38197  0.19240  0.01500  Biso   1.000  F
  F2       1.0000 0.61803  0.80760  0.98500  Biso   1.000  F
  F3       1.0000 0.31593  0.21290  0.86120  Biso   1.000  F
  F4       1.0000 0.68407  0.78710  0.13880  Biso   1.000  F
  F5       1.0000 0.28980  0.24330  0.99750  Biso   1.000  F
  F6       1.0000 0.71020  0.75670  0.00250  Biso   1.000  F
  C3       1.0000 0.38132  0.36450  0.99250  Biso   1.000  C
  C4       1.0000 0.61868  0.63550  0.00750  Biso   1.000  C
  C5       1.0000 0.35868  0.44360  0.04060  Biso   1.000  C
  C6       1.0000 0.64132  0.55640  0.95940  Biso   1.000  C
  H1       1.0000 0.32000  0.42670  0.05580  Biso   1.000  H
  H2       1.0000 0.68000  0.57330  0.94420  Biso   1.000  H
  C7       1.0000 0.39188  0.54700  0.06680  Biso   1.000  C
  C8       1.0000 0.60812  0.45300  0.93320  Biso   1.000  C
  C9       1.0000 0.36490  0.62910  0.12330  Biso   1.000  C
  C10      1.0000 0.63510  0.37090  0.87670  Biso   1.000  C
  F7       1.0000 0.35080  0.70510  0.06840  Biso   1.000  F
  F8       1.0000 0.64920  0.29490  0.93160  Biso   1.000  F
  F9       1.0000 0.31140  0.59680  0.14370  Biso   1.000  F
  F10      1.0000 0.68860  0.40320  0.85630  Biso   1.000  F
  F11      1.0000 0.41310  0.67400  0.22010  Biso   1.000  F
  F12      1.0000 0.58690  0.32600  0.77990  Biso   1.000  F
  F13      1.0000 0.29830  0.59440  0.09810  Biso   1.000  F
  F14      1.0000 0.70170  0.40560  0.90190  Biso   1.000  F
  F15      1.0000 0.39970  0.65500  0.22310  Biso   1.000  F
  F16      1.0000 0.60030  0.34500  0.77690  Biso   1.000  F
  F17      1.0000 0.36600  0.71340  0.08750  Biso   1.000  F
  F18      1.0000 0.63400  0.28660  0.91250  Biso   1.000  F
  O3       1.0000 0.44342  0.58433  0.05076  Biso   1.000  O
  O4       1.0000 0.55658  0.41567  0.94924  Biso   1.000  O
  Cu2      1.0000 0.75364  0.99491  0.51445  Biso   1.000  Cu
  Cu3      1.0000 0.24636  0.00509  0.48555  Biso   1.000  Cu
  O5       1.0000 0.67517  0.05675  0.51014  Biso   1.000  O
  O6       1.0000 0.32483  0.94325  0.48986  Biso   1.000  O
  C11      1.0000 0.59564  0.12730  0.56300  Biso   1.000  C
  C12      1.0000 0.40436  0.87270  0.43700  Biso   1.000  C
  F19      1.0000 0.54651  0.09100  0.46370  Biso   1.000  F
  F20      1.0000 0.45349  0.90900  0.53630  Biso   1.000  F
  F21      1.0000 0.56547  0.12670  0.63310  Biso   1.000  F
  F22      1.0000 0.43453  0.87330  0.36690  Biso   1.000  F
  F23      1.0000 0.61951  0.22589  0.56800  Biso   1.000  F
  F24      1.0000 0.38049  0.77411  0.43200  Biso   1.000  F
  C13      1.0000 0.65281  0.06520  0.58460  Biso   1.000  C
  C14      1.0000 0.34719  0.93480  0.41540  Biso   1.000  C
  C15      1.0000 0.67540  0.02840  0.68040  Biso   1.000  C
  C16      1.0000 0.32460  0.97160  0.31960  Biso   1.000  C
  H3       1.0000 0.65560  0.04340  0.73030  Biso   1.000  H
  H4       1.0000 0.34440  0.95660  0.26970  Biso   1.000  H
  C17      1.0000 0.72686  0.96980  0.70430  Biso   1.000  C
  C18      1.0000 0.27314  0.03020  0.29570  Biso   1.000  C
  C19      1.0000 0.74530  0.92990  0.81030  Biso   1.000  C
  C20      1.0000 0.25470  0.07010  0.18970  Biso   1.000  C
  F25      1.0000 0.73586  0.99020  0.88730  Biso   1.000  F
  F26      1.0000 0.26414  0.00980  0.11270  Biso   1.000  F
  F27      1.0000 0.70705  0.83610  0.79150  Biso   1.000  F
  F28      1.0000 0.29295  0.16390  0.20850  Biso   1.000  F
  F29      1.0000 0.80892  0.91640  0.84900  Biso   1.000  F
  F30      1.0000 0.19108  0.08360  0.15100  Biso   1.000  F
  O7       1.0000 0.75973  0.94312  0.64810  Biso   1.000  O
  O8       1.0000 0.24027  0.05688  0.35190  Biso   1.000  O
  O9       1.0000 0.74621  0.04696  0.38090  Biso   1.000  O
  O10      1.0000 0.25379  0.95304  0.61910  Biso   1.000  O
  C21      1.0000 0.75580  0.05690  0.21510  Biso   1.000  C
  C22      1.0000 0.24420  0.94310  0.78490  Biso   1.000  C
  F31      1.0000 0.69082  0.06350  0.17650  Biso   1.000  F
  F32      1.0000 0.30918  0.93650  0.82350  Biso   1.000  F
  F33      1.0000 0.79039  0.15280  0.23110  Biso   1.000  F
  F34      1.0000 0.20961  0.84720  0.76890  Biso   1.000  F
  F35      1.0000 0.76639  0.99750  0.13850  Biso   1.000  F
  F36      1.0000 0.23361  0.00250  0.86150  Biso   1.000  F
  C23      1.0000 0.77737  0.01890  0.32240  Biso   1.000  C
  C24      1.0000 0.22263  0.98110  0.67760  Biso   1.000  C
  C25      1.0000 0.82881  0.96030  0.34530  Biso   1.000  C
  C26      1.0000 0.17119  0.03970  0.65470  Biso   1.000  C
  H5       1.0000 0.84770  0.94490  0.29410  Biso   1.000  H
  H6       1.0000 0.15230  0.05510  0.70590  Biso   1.000  H
  C27      1.0000 0.85286  0.92440  0.44070  Biso   1.000  C
  C28      1.0000 0.14714  0.07560  0.55930  Biso   1.000  C
  C29      1.0000 0.91120  0.86470  0.46140  Biso   1.000  C
  C30      1.0000 0.08880  0.13530  0.53860  Biso   1.000  C
  F37      1.0000 0.88935  0.76580  0.45740  Biso   1.000  F
  F38      1.0000 0.11065  0.23420  0.54260  Biso   1.000  F
  F39      1.0000 0.94038  0.86690  0.39060  Biso   1.000  F
  F40      1.0000 0.05962  0.13310  0.60940  Biso   1.000  F
  F41      1.0000 0.96067  0.90180  0.55960  Biso   1.000  F
  F42      1.0000 0.03933  0.09820  0.44040  Biso   1.000  F
  O11      1.0000 0.83202  0.93316  0.51740  Biso   1.000  O
  O12      1.0000 0.16798  0.06684  0.48260  Biso   1.000  O
  Cu4      1.0000 0.00000  0.50000  0.00000  Biso   1.000  Cu
  O13      1.0000 0.07213  0.62770  0.02850  Biso   1.000  O
  O14      1.0000 0.92787  0.37230  0.97150  Biso   1.000  O
  C31      1.0000 0.15150  0.75110  0.00750  Biso   1.000  C
  C32      1.0000 0.84850  0.24890  0.99250  Biso   1.000  C
  F43      1.0000 0.20039  0.76360  0.97000  Biso   1.000  F
  F44      1.0000 0.79961  0.23640  0.03000  Biso   1.000  F
  F45      1.0000 0.18001  0.79430  0.11240  Biso   1.000  F
  F46      1.0000 0.81999  0.20570  0.88760  Biso   1.000  F
  F47      1.0000 0.10659  0.80740  0.96180  Biso   1.000  F
  F48      1.0000 0.89341  0.19260  0.03820  Biso   1.000  F
  C33      1.0000 0.11580  0.63790  0.98720  Biso   1.000  C
  C34      1.0000 0.88420  0.36210  0.01280  Biso   1.000  C
  C35      1.0000 0.13390  0.56230  0.92800  Biso   1.000  C
  C36      1.0000 0.86610  0.43770  0.07200  Biso   1.000  C
  H7       1.0000 0.16640  0.58280  0.90050  Biso   1.000  H
  H8       1.0000 0.83360  0.41720  0.09950  Biso   1.000  H
  C37      1.0000 0.10578  0.45610  0.90730  Biso   1.000  C
  C38      1.0000 0.89422  0.54390  0.09270  Biso   1.000  C
  C39      1.0000 0.12810  0.38100  0.83710  Biso   1.000  C
  C40      1.0000 0.87190  0.61900  0.16290  Biso   1.000  C
  F49      1.0000 0.14260  0.30030  0.88140  Biso   1.000  F
  F50      1.0000 0.85740  0.69970  0.11860  Biso   1.000  F
  F51      1.0000 0.18070  0.41470  0.82460  Biso   1.000  F
  F52      1.0000 0.81930  0.58530  0.17540  Biso   1.000  F
  F53      1.0000 0.08020  0.33760  0.74890  Biso   1.000  F
  F54      1.0000 0.91980  0.66240  0.25110  Biso   1.000  F
  O15      1.0000 0.06322  0.41400  0.93850  Biso   1.000  O
  O16      1.0000 0.93678  0.58600  0.06150  Biso   1.000  O
  O17      1.0000 0.53946  0.48039  0.18090  Biso   1.000  O
  O18      1.0000 0.46054  0.51961  0.81910  Biso   1.000  O
  N1       1.0000 0.60114  0.46810  0.23620  Biso   1.000  N
  N2       1.0000 0.39886  0.53190  0.76380  Biso   1.000  N
  C41      1.0000 0.61650  0.36230  0.25310  Biso   1.000  C
  C42      1.0000 0.38350  0.63770  0.74690  Biso   1.000  C
  C43      1.0000 0.58970  0.33610  0.33930  Biso   1.000  C
  C44      1.0000 0.41030  0.66390  0.66070  Biso   1.000  C
  H9       1.0000 0.54020  0.32110  0.30760  Biso   1.000  H
  H10      1.0000 0.45980  0.67890  0.69240  Biso   1.000  H
  H11      1.0000 0.60610  0.39460  0.40000  Biso   1.000  H
  H12      1.0000 0.39390  0.60540  0.60000  Biso   1.000  H
  H13      1.0000 0.60610  0.27620  0.36420  Biso   1.000  H
  H14      1.0000 0.39390  0.72380  0.63580  Biso   1.000  H
  C45      1.0000 0.58020  0.28150  0.14700  Biso   1.000  C
  C46      1.0000 0.41980  0.71850  0.85300  Biso   1.000  C
  H15      1.0000 0.53130  0.27080  0.12670  Biso   1.000  H
  H16      1.0000 0.46870  0.72920  0.87330  Biso   1.000  H
  H17      1.0000 0.59530  0.21690  0.15670  Biso   1.000  H
  H18      1.0000 0.40470  0.78310  0.84330  Biso   1.000  H
  H19      1.0000 0.59110  0.30580  0.09050  Biso   1.000  H
  H20      1.0000 0.40890  0.69420  0.90950  Biso   1.000  H
  C47      1.0000 0.69620  0.38790  0.29620  Biso   1.000  C
  C48      1.0000 0.30380  0.61210  0.70380  Biso   1.000  C
  C49      1.0000 0.72380  0.37890  0.20680  Biso   1.000  C
  C50      1.0000 0.27620  0.62110  0.79320  Biso   1.000  C
  H21      1.0000 0.77330  0.39570  0.23950  Biso   1.000  H
  H22      1.0000 0.22670  0.60430  0.76050  Biso   1.000  H
  H23      1.0000 0.70690  0.42650  0.16040  Biso   1.000  H
  H24      1.0000 0.29310  0.57350  0.83960  Biso   1.000  H
  H25      1.0000 0.70870  0.30870  0.16420  Biso   1.000  H
  H26      1.0000 0.29130  0.69130  0.83580  Biso   1.000  H
  C51      1.0000 0.73300  0.33070  0.38360  Biso   1.000  C
  C52      1.0000 0.26700  0.66930  0.61640  Biso   1.000  C
  H27      1.0000 0.78190  0.35090  0.40570  Biso   1.000  H
  H28      1.0000 0.21810  0.64910  0.59430  Biso   1.000  H
  H29      1.0000 0.71880  0.25670  0.35490  Biso   1.000  H
  H30      1.0000 0.28120  0.74330  0.64510  Biso   1.000  H
  H31      1.0000 0.72150  0.34840  0.44560  Biso   1.000  H
  H32      1.0000 0.27850  0.65160  0.55440  Biso   1.000  H
  N3       1.0000 0.71060  0.50270  0.34430  Biso   1.000  N
  N4       1.0000 0.28940  0.49730  0.65570  Biso   1.000  N
  O19      1.0000 0.77099  0.55350  0.40720  Biso   1.000  O
  O20      1.0000 0.22901  0.44650  0.59280  Biso   1.000  O
  C53      1.0000 0.65465  0.54530  0.30010  Biso   1.000  C
  C54      1.0000 0.34535  0.45470  0.69990  Biso   1.000  C
  C55      1.0000 0.65264  0.65420  0.32030  Biso   1.000  C
  C56      1.0000 0.34736  0.34580  0.67970  Biso   1.000  C
  C57      1.0000 0.59619  0.70080  0.27640  Biso   1.000  C
  C58      1.0000 0.40381  0.29920  0.72360  Biso   1.000  C
  H33      1.0000 0.55220  0.66680  0.22670  Biso   1.000  H
  H34      1.0000 0.44780  0.33320  0.77330  Biso   1.000  H
  N5       1.0000 0.61692  0.80280  0.31870  Biso   1.000  N
  N6       1.0000 0.38308  0.19720  0.68130  Biso   1.000  N
  N7       1.0000 0.68452  0.82830  0.39020  Biso   1.000  N
  N8       1.0000 0.31548  0.17170  0.60980  Biso   1.000  N
  C59      1.0000 0.57680  0.88560  0.29740  Biso   1.000  C
  C60      1.0000 0.42320  0.11440  0.70260  Biso   1.000  C
  H35      1.0000 0.54740  0.88310  0.33770  Biso   1.000  H
  H36      1.0000 0.45260  0.11690  0.66230  Biso   1.000  H
  H37      1.0000 0.60860  0.95250  0.32640  Biso   1.000  H
  H38      1.0000 0.39140  0.04750  0.67360  Biso   1.000  H
  C61      1.0000 0.53450  0.88090  0.18540  Biso   1.000  C
  C62      1.0000 0.46550  0.11910  0.81460  Biso   1.000  C
  H39      1.0000 0.50080  0.81580  0.15630  Biso   1.000  H
  H40      1.0000 0.49920  0.18420  0.84370  Biso   1.000  H
  H41      1.0000 0.56300  0.88190  0.14370  Biso   1.000  H
  H42      1.0000 0.43700  0.11810  0.85630  Biso   1.000  H
  C63      1.0000 0.49640  0.97430  0.17200  Biso   1.000  C
  C64      1.0000 0.50360  0.02570  0.82800  Biso   1.000  C
  H43      1.0000 0.48780  0.99390  0.23730  Biso   1.000  H
  H44      1.0000 0.51220  0.00610  0.76270  Biso   1.000  H
  H45      1.0000 0.52730  0.03320  0.16870  Biso   1.000  H
  H46      1.0000 0.47270  0.96680  0.83130  Biso   1.000  H
  C65      1.0000 0.43540  0.95850  0.08350  Biso   1.000  C
  C66      1.0000 0.56460  0.04150  0.91650  Biso   1.000  C
  H47      1.0000 0.41670  0.02080  0.08410  Biso   1.000  H
  H48      1.0000 0.58330  0.97920  0.91590  Biso   1.000  H
  H49      1.0000 0.40350  0.90180  0.08640  Biso   1.000  H
  H50      1.0000 0.59650  0.09820  0.91360  Biso   1.000  H
  H51      1.0000 0.44300  0.94190  0.01770  Biso   1.000  H
  H52      1.0000 0.55700  0.05810  0.98230  Biso   1.000  H
  C67      1.0000 0.70578  0.73820  0.38990  Biso   1.000  C
  C68      1.0000 0.29422  0.26180  0.61010  Biso   1.000  C
  H53      1.0000 0.75050  0.73140  0.43080  Biso   1.000  H
  H54      1.0000 0.24950  0.26860  0.56920  Biso   1.000  H
  O21      1.0000 0.96038  0.51671  0.84140  Biso   1.000  O
  O22      1.0000 0.03962  0.48329  0.15860  Biso   1.000  O
  N9       1.0000 0.89637  0.52460  0.78880  Biso   1.000  N
  N10      1.0000 0.10363  0.47540  0.21120  Biso   1.000  N
  C69      1.0000 0.87700  0.62770  0.76870  Biso   1.000  C
  C70      1.0000 0.12300  0.37230  0.23130  Biso   1.000  C
  C71      1.0000 0.90000  0.65240  0.67900  Biso   1.000  C
  C72      1.0000 0.10000  0.34760  0.32100  Biso   1.000  C
  H55      1.0000 0.94940  0.67070  0.70810  Biso   1.000  H
  H56      1.0000 0.05060  0.32930  0.29190  Biso   1.000  H
  H57      1.0000 0.88090  0.70990  0.65220  Biso   1.000  H
  H58      1.0000 0.11910  0.29010  0.34780  Biso   1.000  H
  H59      1.0000 0.88410  0.59220  0.62020  Biso   1.000  H
  H60      1.0000 0.11590  0.40780  0.37980  Biso   1.000  H
  C73      1.0000 0.91320  0.71310  0.87170  Biso   1.000  C
  C74      1.0000 0.08680  0.28690  0.12830  Biso   1.000  C
  H61      1.0000 0.96190  0.72690  0.88930  Biso   1.000  H
  H62      1.0000 0.03810  0.27310  0.11070  Biso   1.000  H
  H63      1.0000 0.90500  0.69070  0.93110  Biso   1.000  H
  H64      1.0000 0.09500  0.30930  0.06890  Biso   1.000  H
  H65      1.0000 0.89560  0.77560  0.85950  Biso   1.000  H
  H66      1.0000 0.10440  0.22440  0.14050  Biso   1.000  H
  C75      1.0000 0.79772  0.59700  0.73010  Biso   1.000  C
  C76      1.0000 0.20228  0.40300  0.26990  Biso   1.000  C
  C77      1.0000 0.77270  0.60620  0.82240  Biso   1.000  C
  C78      1.0000 0.22730  0.39380  0.17760  Biso   1.000  C
  H67      1.0000 0.72340  0.58610  0.79240  Biso   1.000  H
  H68      1.0000 0.27660  0.41390  0.20760  Biso   1.000  H
  H69      1.0000 0.78650  0.67730  0.86270  Biso   1.000  H
  H70      1.0000 0.21350  0.32270  0.13730  Biso   1.000  H
  H71      1.0000 0.79260  0.56130  0.87030  Biso   1.000  H
  H72      1.0000 0.20740  0.43870  0.12970  Biso   1.000  H
  C79      1.0000 0.75630  0.64830  0.64000  Biso   1.000  C
  C80      1.0000 0.24370  0.35170  0.36000  Biso   1.000  C
  H73      1.0000 0.70800  0.62500  0.62120  Biso   1.000  H
  H74      1.0000 0.29200  0.37500  0.37880  Biso   1.000  H
  H75      1.0000 0.76630  0.62940  0.57680  Biso   1.000  H
  H76      1.0000 0.23370  0.37060  0.42320  Biso   1.000  H
  H77      1.0000 0.76840  0.72280  0.66510  Biso   1.000  H
  H78      1.0000 0.23160  0.27720  0.33490  Biso   1.000  H
  N11      1.0000 0.78638  0.48180  0.68530  Biso   1.000  N
  N12      1.0000 0.21362  0.51820  0.31470  Biso   1.000  N
  O23      1.0000 0.72719  0.42704  0.62480  Biso   1.000  O
  O24      1.0000 0.27281  0.57296  0.37520  Biso   1.000  O
  C81      1.0000 0.84503  0.44390  0.72770  Biso   1.000  C
  C82      1.0000 0.15497  0.55610  0.27230  Biso   1.000  C
  C83      1.0000 0.85002  0.33650  0.70580  Biso   1.000  C
  C84      1.0000 0.14998  0.66350  0.29420  Biso   1.000  C
  C85      1.0000 0.90963  0.29540  0.74490  Biso   1.000  C
  C86      1.0000 0.09037  0.70460  0.25510  Biso   1.000  C
  H79      1.0000 0.95350  0.33240  0.79160  Biso   1.000  H
  H80      1.0000 0.04650  0.66760  0.20840  Biso   1.000  H
  N13      1.0000 0.89176  0.19350  0.70280  Biso   1.000  N
  N14      1.0000 0.10824  0.80650  0.29720  Biso   1.000  N
  C87      1.0000 0.93730  0.11740  0.72340  Biso   1.000  C
  C88      1.0000 0.06270  0.88260  0.27660  Biso   1.000  C
  H81      1.0000 0.91530  0.05410  0.66720  Biso   1.000  H
  H82      1.0000 0.08470  0.94590  0.33280  Biso   1.000  H
  H83      1.0000 0.97990  0.14580  0.71780  Biso   1.000  H
  H84      1.0000 0.02010  0.85420  0.28220  Biso   1.000  H
  C89      1.0000 0.95380  0.09060  0.82970  Biso   1.000  C
  C90      1.0000 0.04620  0.90940  0.17030  Biso   1.000  C
  H85      1.0000 0.91120  0.06950  0.83860  Biso   1.000  H
  H86      1.0000 0.08880  0.93050  0.16140  Biso   1.000  H
  H87      1.0000 0.98030  0.15230  0.88610  Biso   1.000  H
  H88      1.0000 0.01970  0.84770  0.11390  Biso   1.000  H
  C91      1.0000 0.99570  0.00060  0.84630  Biso   1.000  C
  C92      1.0000 0.00430  0.99940  0.15370  Biso   1.000  C
  H89      1.0000 0.99400  0.97230  0.90800  Biso   1.000  H
  H90      1.0000 0.00600  0.02770  0.09200  Biso   1.000  H
  H91      1.0000 0.97550  0.94470  0.78160  Biso   1.000  H
  H92      1.0000 0.02450  0.05530  0.21840  Biso   1.000  H
  C93      1.0000 0.06520  0.04120  0.86570  Biso   1.000  C
  C94      1.0000 0.93480  0.95880  0.13430  Biso   1.000  C
  H93      1.0000 0.09090  0.98610  0.87460  Biso   1.000  H
  H94      1.0000 0.90910  0.01390  0.12540  Biso   1.000  H
  H95      1.0000 0.08520  0.09520  0.93090  Biso   1.000  H
  H96      1.0000 0.91480  0.90480  0.06910  Biso   1.000  H
  H97      1.0000 0.06650  0.06960  0.80470  Biso   1.000  H
  H98      1.0000 0.93350  0.93040  0.19530  Biso   1.000  H
  N15      1.0000 0.82332  0.16270  0.63660  Biso   1.000  N
  N16      1.0000 0.17668  0.83730  0.36340  Biso   1.000  N
  C95      1.0000 0.79871  0.24980  0.63940  Biso   1.000  C
  C96      1.0000 0.20129  0.75020  0.36060  Biso   1.000  C
  H99      1.0000 0.75280  0.25280  0.60180  Biso   1.000  H
  H100     1.0000 0.24720  0.74720  0.39820  Biso   1.000  H
  C97      1.0000 0.92220  0.27220  0.48020  Biso   1.000  C
  C98      1.0000 0.07780  0.72780  0.51980  Biso   1.000  C
  H101     1.0000 0.88780  0.24520  0.50470  Biso   1.000  H
  H102     1.0000 0.11220  0.75480  0.49530  Biso   1.000  H
  H103     1.0000 0.96300  0.24480  0.51240  Biso   1.000  H
  H104     1.0000 0.03700  0.75520  0.48760  Biso   1.000  H
  H105     1.0000 0.90480  0.25170  0.40200  Biso   1.000  H
  H106     1.0000 0.09520  0.74830  0.59800  Biso   1.000  H
  C99      1.0000 0.93960  0.39030  0.51390  Biso   1.000  C
  C100     1.0000 0.06040  0.60970  0.48610  Biso   1.000  C
  H107     1.0000 0.89730  0.41600  0.48300  Biso   1.000  H
  H108     1.0000 0.10270  0.58400  0.51700  Biso   1.000  H
  H109     1.0000 0.95550  0.40910  0.59280  Biso   1.000  H
  H110     1.0000 0.04450  0.59090  0.40720  Biso   1.000  H
  C101     1.0000 0.98850  0.44250  0.48450  Biso   1.000  C
  C102     1.0000 0.01150  0.55750  0.51550  Biso   1.000  C
  H111     1.0000 0.97130  0.42360  0.40540  Biso   1.000  H
  H112     1.0000 0.02870  0.57640  0.59460  Biso   1.000  H
  H113     1.0000 0.02950  0.41310  0.51280  Biso   1.000  H
  H114     1.0000 0.97050  0.58690  0.48720  Biso   1.000  H
  C103     1.0000 0.56940  0.73850  0.53360  Biso   1.000  C
  C104     1.0000 0.43060  0.26150  0.46640  Biso   1.000  C
  H115     1.0000 0.55680  0.79230  0.49350  Biso   1.000  H
  H116     1.0000 0.44320  0.20770  0.50650  Biso   1.000  H
  H117     1.0000 0.61380  0.72700  0.53780  Biso   1.000  H
  H118     1.0000 0.38620  0.27300  0.46220  Biso   1.000  H
  H119     1.0000 0.57140  0.75980  0.60610  Biso   1.000  H
  H120     1.0000 0.42860  0.24020  0.39390  Biso   1.000  H
  C105     1.0000 0.51700  0.63970  0.47680  Biso   1.000  C
  C106     1.0000 0.48300  0.36030  0.52320  Biso   1.000  C
  H121     1.0000 0.47230  0.65400  0.47090  Biso   1.000  H
  H122     1.0000 0.52770  0.34600  0.52910  Biso   1.000  H
  H123     1.0000 0.51470  0.62120  0.40300  Biso   1.000  H
  H124     1.0000 0.48530  0.37880  0.59700  Biso   1.000  H
  C107     1.0000 0.52780  0.54740  0.52720  Biso   1.000  C
  C108     1.0000 0.47220  0.45260  0.47280  Biso   1.000  C
  H125     1.0000 0.57070  0.52950  0.52810  Biso   1.000  H
  H126     1.0000 0.42930  0.47050  0.47190  Biso   1.000  H
  H127     1.0000 0.53320  0.56690  0.60260  Biso   1.000  H
  H128     1.0000 0.46680  0.43310  0.39740  Biso   1.000  H
