data_image0
_cell_length_a       10.4345
_cell_length_b       13.14
_cell_length_c       13.434
_cell_angle_alpha    99.03
_cell_angle_beta     111.918
_cell_angle_gamma    96.623

_symmetry_space_group_name_H-M    "P 1"
_symmetry_int_tables_number       1

loop_
  _symmetry_equiv_pos_as_xyz
  'x, y, z'

loop_
  _atom_site_label
  _atom_site_occupancy
  _atom_site_fract_x
  _atom_site_fract_y
  _atom_site_fract_z
  _atom_site_thermal_displace_type
  _atom_site_B_iso_or_equiv
  _atom_site_type_symbol
  Cu1      1.0000 0.00000  0.00000  0.50000  Biso   1.000  Cu
  O1       1.0000 0.11520  0.91433  0.44411  Biso   1.000  O
  O2       1.0000 0.88480  0.08567  0.55589  Biso   1.000  O
  C1       1.0000 0.26230  0.86990  0.35770  Biso   1.000  C
  C2       1.0000 0.73770  0.13010  0.64230  Biso   1.000  C
  F1       1.0000 0.16570  0.82870  0.26160  Biso   1.000  F
  F2       1.0000 0.83430  0.17130  0.73840  Biso   1.000  F
  F3       1.0000 0.28990  0.79160  0.41380  Biso   1.000  F
  F4       1.0000 0.71010  0.20840  0.58620  Biso   1.000  F
  F5       1.0000 0.37500  0.89810  0.34040  Biso   1.000  F
  F6       1.0000 0.62500  0.10190  0.65960  Biso   1.000  F
  F7       1.0000 0.17810  0.84690  0.25440  Biso   1.000  F
  F8       1.0000 0.82190  0.15310  0.74560  Biso   1.000  F
  F9       1.0000 0.26550  0.78260  0.38880  Biso   1.000  F
  F10      1.0000 0.73450  0.21740  0.61120  Biso   1.000  F
  F11      1.0000 0.38970  0.90580  0.36430  Biso   1.000  F
  F12      1.0000 0.61030  0.09420  0.63570  Biso   1.000  F
  C3       1.0000 0.21360  0.95200  0.42150  Biso   1.000  C
  C4       1.0000 0.78640  0.04800  0.57850  Biso   1.000  C
  C5       1.0000 0.27990  0.05530  0.44550  Biso   1.000  C
  C6       1.0000 0.72010  0.94470  0.55450  Biso   1.000  C
  H1       1.0000 0.35200  0.06800  0.43000  Biso   1.000  H
  H2       1.0000 0.64800  0.93200  0.57000  Biso   1.000  H
  C7       1.0000 0.23660  0.13440  0.49900  Biso   1.000  C
  C8       1.0000 0.76340  0.86560  0.50100  Biso   1.000  C
  C9       1.0000 0.31550  0.24750  0.52300  Biso   1.000  C
  C10      1.0000 0.68450  0.75250  0.47700  Biso   1.000  C
  F13      1.0000 0.41670  0.25524  0.48660  Biso   1.000  F
  F14      1.0000 0.58330  0.74476  0.51340  Biso   1.000  F
  F15      1.0000 0.36950  0.29050  0.63960  Biso   1.000  F
  F16      1.0000 0.63050  0.70950  0.36040  Biso   1.000  F
  F17      1.0000 0.22680  0.30790  0.47680  Biso   1.000  F
  F18      1.0000 0.77320  0.69210  0.52320  Biso   1.000  F
  F19      1.0000 0.37710  0.28430  0.61900  Biso   1.000  F
  F20      1.0000 0.62290  0.71570  0.38100  Biso   1.000  F
  O3       1.0000 0.13950  0.12784  0.53165  Biso   1.000  O
  O4       1.0000 0.86050  0.87216  0.46835  Biso   1.000  O
  Cu2      1.0000 0.50000  0.50000  0.00000  Biso   1.000  Cu
  O5       1.0000 0.33820  0.56395  0.99112  Biso   1.000  O
  O6       1.0000 0.66180  0.43605  0.00888  Biso   1.000  O
  C11      1.0000 0.16880  0.63340  0.03860  Biso   1.000  C
  C12      1.0000 0.83120  0.36660  0.96140  Biso   1.000  C
  F21      1.0000 0.08560  0.61050  0.93330  Biso   1.000  F
  F22      1.0000 0.91440  0.38950  0.06670  Biso   1.000  F
  F23      1.0000 0.22000  0.74220  0.05050  Biso   1.000  F
  F24      1.0000 0.78000  0.25780  0.94950  Biso   1.000  F
  F25      1.0000 0.11610  0.63450  0.10970  Biso   1.000  F
  F26      1.0000 0.88390  0.36550  0.89030  Biso   1.000  F
  F27      1.0000 0.21440  0.72300  0.04740  Biso   1.000  F
  F28      1.0000 0.78560  0.27700  0.95260  Biso   1.000  F
  F29      1.0000 0.08620  0.62270  0.09950  Biso   1.000  F
  F30      1.0000 0.91380  0.37730  0.90050  Biso   1.000  F
  F31      1.0000 0.06280  0.58540  0.93950  Biso   1.000  F
  F32      1.0000 0.93720  0.41460  0.06050  Biso   1.000  F
  C13      1.0000 0.28820  0.57170  0.06290  Biso   1.000  C
  C14      1.0000 0.71180  0.42830  0.93710  Biso   1.000  C
  C15      1.0000 0.32910  0.53430  0.15870  Biso   1.000  C
  C16      1.0000 0.67090  0.46570  0.84130  Biso   1.000  C
  H3       1.0000 0.28400  0.56200  0.20900  Biso   1.000  H
  H4       1.0000 0.71600  0.43800  0.79100  Biso   1.000  H
  C17      1.0000 0.43700  0.47570  0.18570  Biso   1.000  C
  C18      1.0000 0.56300  0.52430  0.81430  Biso   1.000  C
  C19      1.0000 0.46940  0.43580  0.29190  Biso   1.000  C
  C20      1.0000 0.53060  0.56420  0.70810  Biso   1.000  C
  F33      1.0000 0.46790  0.50980  0.37290  Biso   1.000  F
  F34      1.0000 0.53210  0.49020  0.62710  Biso   1.000  F
  F35      1.0000 0.37360  0.34850  0.27490  Biso   1.000  F
  F36      1.0000 0.62640  0.65150  0.72510  Biso   1.000  F
  F37      1.0000 0.60090  0.41010  0.33310  Biso   1.000  F
  F38      1.0000 0.39910  0.58990  0.66690  Biso   1.000  F
  F39      1.0000 0.43900  0.49300  0.36670  Biso   1.000  F
  F40      1.0000 0.56100  0.50700  0.63330  Biso   1.000  F
  F41      1.0000 0.39470  0.34490  0.27180  Biso   1.000  F
  F42      1.0000 0.60530  0.65510  0.72820  Biso   1.000  F
  F43      1.0000 0.59260  0.42930  0.33190  Biso   1.000  F
  F44      1.0000 0.40740  0.57070  0.66810  Biso   1.000  F
  O7       1.0000 0.50830  0.45004  0.13360  Biso   1.000  O
  O8       1.0000 0.49170  0.54996  0.86640  Biso   1.000  O
  O9       1.0000 0.91590  0.02284  0.32410  Biso   1.000  O
  O10      1.0000 0.08410  0.97716  0.67590  Biso   1.000  O
  N1       1.0000 0.78680  0.03160  0.27090  Biso   1.000  N
  N2       1.0000 0.21320  0.96840  0.72910  Biso   1.000  N
  C21      1.0000 0.74790  0.13570  0.25350  Biso   1.000  C
  C22      1.0000 0.25210  0.86430  0.74650  Biso   1.000  C
  C23      1.0000 0.79580  0.16390  0.16470  Biso   1.000  C
  C24      1.0000 0.20420  0.83610  0.83530  Biso   1.000  C
  H5       1.0000 0.88600  0.17000  0.18600  Biso   1.000  H
  H6       1.0000 0.11400  0.83000  0.81400  Biso   1.000  H
  H7       1.0000 0.76900  0.23100  0.15300  Biso   1.000  H
  H8       1.0000 0.23100  0.76900  0.84700  Biso   1.000  H
  H9       1.0000 0.75200  0.11200  0.09600  Biso   1.000  H
  H10      1.0000 0.24800  0.88800  0.90400  Biso   1.000  H
  C25      1.0000 0.82060  0.21850  0.35950  Biso   1.000  C
  C26      1.0000 0.17940  0.78150  0.64050  Biso   1.000  C
  H11      1.0000 0.80400  0.19700  0.42200  Biso   1.000  H
  H12      1.0000 0.19600  0.80300  0.57800  Biso   1.000  H
  H13      1.0000 0.79000  0.28300  0.34900  Biso   1.000  H
  H14      1.0000 0.21000  0.71700  0.65100  Biso   1.000  H
  H15      1.0000 0.91800  0.22800  0.38700  Biso   1.000  H
  H16      1.0000 0.08200  0.77200  0.61300  Biso   1.000  H
  C27      1.0000 0.58680  0.10700  0.21290  Biso   1.000  C
  C28      1.0000 0.41320  0.89300  0.78710  Biso   1.000  C
  C29      1.0000 0.50430  0.16040  0.12370  Biso   1.000  C
  C30      1.0000 0.49570  0.83960  0.87630  Biso   1.000  C
  H17      1.0000 0.52200  0.13800  0.05900  Biso   1.000  H
  H18      1.0000 0.47800  0.86200  0.94100  Biso   1.000  H
  H19      1.0000 0.53200  0.23400  0.14600  Biso   1.000  H
  H20      1.0000 0.46800  0.76600  0.85400  Biso   1.000  H
  H21      1.0000 0.40300  0.13500  0.10700  Biso   1.000  H
  H22      1.0000 0.59700  0.86500  0.89300  Biso   1.000  H
  C31      1.0000 0.53490  0.11660  0.30500  Biso   1.000  C
  C32      1.0000 0.46510  0.88340  0.69500  Biso   1.000  C
  H23      1.0000 0.43000  0.09300  0.27900  Biso   1.000  H
  H24      1.0000 0.57000  0.90700  0.72100  Biso   1.000  H
  H25      1.0000 0.54300  0.18200  0.34100  Biso   1.000  H
  H26      1.0000 0.45700  0.81800  0.65900  Biso   1.000  H
  H27      1.0000 0.59400  0.08300  0.36600  Biso   1.000  H
  H28      1.0000 0.40600  0.91700  0.63400  Biso   1.000  H
  N3       1.0000 0.56310  0.99110  0.16650  Biso   1.000  N
  N4       1.0000 0.43690  0.00890  0.83350  Biso   1.000  N
  O11      1.0000 0.44200  0.93780  0.10520  Biso   1.000  O
  O12      1.0000 0.55800  0.06220  0.89480  Biso   1.000  O
  C33      1.0000 0.68080  0.95190  0.20880  Biso   1.000  C
  C34      1.0000 0.31920  0.04810  0.79120  Biso   1.000  C
  C35      1.0000 0.69140  0.84370  0.18890  Biso   1.000  C
  C36      1.0000 0.30860  0.15630  0.81110  Biso   1.000  C
  C37      1.0000 0.58630  0.75670  0.12310  Biso   1.000  C
  C38      1.0000 0.41370  0.24330  0.87690  Biso   1.000  C
  H29      1.0000 0.49400  0.75300  0.08300  Biso   1.000  H
  H30      1.0000 0.50600  0.24700  0.91700  Biso   1.000  H
  N5       1.0000 0.63800  0.66870  0.12310  Biso   1.000  N
  N6       1.0000 0.36200  0.33130  0.87690  Biso   1.000  N
  N7       1.0000 0.77690  0.69900  0.18980  Biso   1.000  N
  N8       1.0000 0.22310  0.30100  0.81020  Biso   1.000  N
  C39      1.0000 0.86940  0.62250  0.21570  Biso   1.000  C
  C40      1.0000 0.13060  0.37750  0.78430  Biso   1.000  C
  C41      1.0000 0.87350  0.58160  0.31640  Biso   1.000  C
  C42      1.0000 0.12650  0.41840  0.68360  Biso   1.000  C
  C43      1.0000 0.95200  0.49710  0.33670  Biso   1.000  C
  C44      1.0000 0.04800  0.50290  0.66330  Biso   1.000  C
  C45      1.0000 0.10220  0.52840  0.36560  Biso   1.000  C
  C46      1.0000 0.89780  0.47160  0.63440  Biso   1.000  C
  C47      1.0000 0.90300  0.61140  0.32710  Biso   1.000  C
  C48      1.0000 0.09700  0.38860  0.67290  Biso   1.000  C
  C49      1.0000 0.98700  0.50520  0.34160  Biso   1.000  C
  C50      1.0000 0.01300  0.49480  0.65840  Biso   1.000  C
  C51      1.0000 0.13500  0.54370  0.39100  Biso   1.000  C
  C52      1.0000 0.86500  0.45630  0.60900  Biso   1.000  C
  C53      1.0000 0.81270  0.80210  0.23000  Biso   1.000  C
  C54      1.0000 0.18730  0.19790  0.77000  Biso   1.000  C
  H31      1.0000 0.90800  0.83200  0.27500  Biso   1.000  H
  H32      1.0000 0.09200  0.16800  0.72500  Biso   1.000  H
  Cl1      1.0000 0.84410  0.83710  0.81680  Biso   1.000  Cl
  Cl2      1.0000 0.15590  0.16290  0.18320  Biso   1.000  Cl
  Cl3      1.0000 0.86060  0.78610  0.98660  Biso   1.000  Cl
  Cl4      1.0000 0.13940  0.21390  0.01340  Biso   1.000  Cl
  C55      1.0000 0.90300  0.90700  0.94800  Biso   1.000  C
  C56      1.0000 0.09700  0.09300  0.05200  Biso   1.000  C
  C57      1.0000 0.94700  0.88400  0.95300  Biso   1.000  C
  C58      1.0000 0.05300  0.11600  0.04700  Biso   1.000  C
  C59      1.0000 0.00000  0.00000  0.00000  Biso   1.000  C
  C60      1.0000 0.95200  0.91900  0.04200  Biso   1.000  C
  C61      1.0000 0.04800  0.08100  0.95800  Biso   1.000  C
  C62      1.0000 0.89270  0.82370  0.94600  Biso   1.000  C
  C63      1.0000 0.10730  0.17630  0.05400  Biso   1.000  C
