data_image0
_cell_length_a       10.586
_cell_length_b       13.237
_cell_length_c       13.663
_cell_angle_alpha    99.104
_cell_angle_beta     112.136
_cell_angle_gamma    96.197

_symmetry_space_group_name_H-M    "P 1"
_symmetry_int_tables_number       1

loop_
  _symmetry_equiv_pos_as_xyz
  'x, y, z'

loop_
  _atom_site_label
  _atom_site_occupancy
  _atom_site_fract_x
  _atom_site_fract_y
  _atom_site_fract_z
  _atom_site_thermal_displace_type
  _atom_site_B_iso_or_equiv
  _atom_site_type_symbol
  Cu1      1.0000 0.00000  0.00000  0.50000  Biso   1.000  Cu
  O1       1.0000 0.11450  0.91710  0.44500  Biso   1.000  O
  O2       1.0000 0.88550  0.08290  0.55500  Biso   1.000  O
  C1       1.0000 0.26300  0.87420  0.36300  Biso   1.000  C
  C2       1.0000 0.73700  0.12580  0.63700  Biso   1.000  C
  F1       1.0000 0.16080  0.81780  0.27580  Biso   1.000  F
  F2       1.0000 0.83920  0.18220  0.72420  Biso   1.000  F
  F3       1.0000 0.30620  0.80430  0.42080  Biso   1.000  F
  F4       1.0000 0.69380  0.19570  0.57920  Biso   1.000  F
  F5       1.0000 0.36010  0.90620  0.33560  Biso   1.000  F
  F6       1.0000 0.63990  0.09380  0.66440  Biso   1.000  F
  F7       1.0000 0.20040  0.86390  0.26180  Biso   1.000  F
  F8       1.0000 0.79960  0.13610  0.73820  Biso   1.000  F
  F9       1.0000 0.25820  0.78910  0.38990  Biso   1.000  F
  F10      1.0000 0.74180  0.21090  0.61010  Biso   1.000  F
  F11      1.0000 0.38980  0.90480  0.37930  Biso   1.000  F
  F12      1.0000 0.61020  0.09520  0.62070  Biso   1.000  F
  C3       1.0000 0.21010  0.95510  0.42230  Biso   1.000  C
  C4       1.0000 0.78990  0.04490  0.57770  Biso   1.000  C
  C5       1.0000 0.27050  0.05810  0.44430  Biso   1.000  C
  C6       1.0000 0.72950  0.94190  0.55570  Biso   1.000  C
  H1       1.0000 0.34320  0.07560  0.42290  Biso   1.000  H
  H2       1.0000 0.65680  0.92440  0.57710  Biso   1.000  H
  C7       1.0000 0.22820  0.13590  0.49640  Biso   1.000  C
  C8       1.0000 0.77180  0.86410  0.50360  Biso   1.000  C
  C9       1.0000 0.30380  0.24700  0.51990  Biso   1.000  C
  C10      1.0000 0.69620  0.75300  0.48010  Biso   1.000  C
  F13      1.0000 0.41300  0.25680  0.49450  Biso   1.000  F
  F14      1.0000 0.58700  0.74320  0.50550  Biso   1.000  F
  F15      1.0000 0.36450  0.29030  0.63470  Biso   1.000  F
  F16      1.0000 0.63550  0.70970  0.36530  Biso   1.000  F
  F17      1.0000 0.21910  0.30230  0.46550  Biso   1.000  F
  F18      1.0000 0.78090  0.69770  0.53450  Biso   1.000  F
  F19      1.0000 0.36100  0.28000  0.60590  Biso   1.000  F
  F20      1.0000 0.63900  0.72000  0.39410  Biso   1.000  F
  F21      1.0000 0.21990  0.30990  0.49400  Biso   1.000  F
  F22      1.0000 0.78010  0.69010  0.50600  Biso   1.000  F
  F23      1.0000 0.38230  0.25770  0.47040  Biso   1.000  F
  F24      1.0000 0.61770  0.74230  0.52960  Biso   1.000  F
  O3       1.0000 0.13250  0.12850  0.52910  Biso   1.000  O
  O4       1.0000 0.86750  0.87150  0.47090  Biso   1.000  O
  Cu2      1.0000 0.50000  0.50000  0.00000  Biso   1.000  Cu
  O5       1.0000 0.34180  0.56443  0.99320  Biso   1.000  O
  O6       1.0000 0.65820  0.43557  0.00680  Biso   1.000  O
  C11      1.0000 0.17760  0.63600  0.04190  Biso   1.000  C
  C12      1.0000 0.82240  0.36400  0.95810  Biso   1.000  C
  F25      1.0000 0.08580  0.61400  0.94060  Biso   1.000  F
  F26      1.0000 0.91420  0.38600  0.05940  Biso   1.000  F
  F27      1.0000 0.22540  0.73710  0.06310  Biso   1.000  F
  F28      1.0000 0.77460  0.26290  0.93690  Biso   1.000  F
  F29      1.0000 0.10550  0.62700  0.10020  Biso   1.000  F
  F30      1.0000 0.89450  0.37300  0.89980  Biso   1.000  F
  F31      1.0000 0.21690  0.72490  0.03010  Biso   1.000  F
  F32      1.0000 0.78310  0.27510  0.96990  Biso   1.000  F
  F33      1.0000 0.12760  0.64580  0.11530  Biso   1.000  F
  F34      1.0000 0.87240  0.35420  0.88470  Biso   1.000  F
  F35      1.0000 0.07830  0.58450  0.95470  Biso   1.000  F
  F36      1.0000 0.92170  0.41550  0.04530  Biso   1.000  F
  C13      1.0000 0.29500  0.57380  0.06530  Biso   1.000  C
  C14      1.0000 0.70500  0.42620  0.93470  Biso   1.000  C
  C15      1.0000 0.33830  0.53720  0.15920  Biso   1.000  C
  C16      1.0000 0.66170  0.46280  0.84080  Biso   1.000  C
  H3       1.0000 0.29600  0.55260  0.20780  Biso   1.000  H
  H4       1.0000 0.70400  0.44740  0.79220  Biso   1.000  H
  C17      1.0000 0.44230  0.47830  0.18470  Biso   1.000  C
  C18      1.0000 0.55770  0.52170  0.81530  Biso   1.000  C
  C19      1.0000 0.47890  0.43960  0.28980  Biso   1.000  C
  C20      1.0000 0.52110  0.56040  0.71020  Biso   1.000  C
  F37      1.0000 0.47250  0.50910  0.36570  Biso   1.000  F
  F38      1.0000 0.52750  0.49090  0.63430  Biso   1.000  F
  F39      1.0000 0.37800  0.35230  0.26720  Biso   1.000  F
  F40      1.0000 0.62200  0.64770  0.73280  Biso   1.000  F
  F41      1.0000 0.59420  0.40680  0.32320  Biso   1.000  F
  F42      1.0000 0.40580  0.59320  0.67680  Biso   1.000  F
  F43      1.0000 0.44120  0.48770  0.36080  Biso   1.000  F
  F44      1.0000 0.55880  0.51230  0.63920  Biso   1.000  F
  F45      1.0000 0.43260  0.34800  0.27840  Biso   1.000  F
  F46      1.0000 0.56740  0.65200  0.72160  Biso   1.000  F
  F47      1.0000 0.61480  0.44830  0.33620  Biso   1.000  F
  F48      1.0000 0.38520  0.55170  0.66380  Biso   1.000  F
  O7       1.0000 0.51050  0.45108  0.13120  Biso   1.000  O
  O8       1.0000 0.48950  0.54892  0.86880  Biso   1.000  O
  O9       1.0000 0.90970  0.01840  0.32380  Biso   1.000  O
  O10      1.0000 0.09030  0.98160  0.67620  Biso   1.000  O
  N1       1.0000 0.78250  0.02750  0.27030  Biso   1.000  N
  N2       1.0000 0.21750  0.97250  0.72970  Biso   1.000  N
  C21      1.0000 0.74340  0.13100  0.25360  Biso   1.000  C
  C22      1.0000 0.25660  0.86900  0.74640  Biso   1.000  C
  C23      1.0000 0.79250  0.15960  0.16790  Biso   1.000  C
  C24      1.0000 0.20750  0.84040  0.83210  Biso   1.000  C
  H5       1.0000 0.89300  0.17710  0.19880  Biso   1.000  H
  H6       1.0000 0.10700  0.82290  0.80120  Biso   1.000  H
  H7       1.0000 0.75390  0.21890  0.14380  Biso   1.000  H
  H8       1.0000 0.24610  0.78110  0.85620  Biso   1.000  H
  H9       1.0000 0.76160  0.10090  0.10690  Biso   1.000  H
  H10      1.0000 0.23840  0.89910  0.89310  Biso   1.000  H
  C25      1.0000 0.81410  0.21240  0.35850  Biso   1.000  C
  C26      1.0000 0.18590  0.78760  0.64150  Biso   1.000  C
  H11      1.0000 0.91340  0.22540  0.37810  Biso   1.000  H
  H12      1.0000 0.08660  0.77460  0.62190  Biso   1.000  H
  H13      1.0000 0.79510  0.18750  0.41550  Biso   1.000  H
  H14      1.0000 0.20490  0.81250  0.58450  Biso   1.000  H
  H15      1.0000 0.77900  0.27650  0.34900  Biso   1.000  H
  H16      1.0000 0.22100  0.72350  0.65100  Biso   1.000  H
  C27      1.0000 0.58430  0.10170  0.21160  Biso   1.000  C
  C28      1.0000 0.41570  0.89830  0.78840  Biso   1.000  C
  C29      1.0000 0.50200  0.15430  0.12350  Biso   1.000  C
  C30      1.0000 0.49800  0.84570  0.87650  Biso   1.000  C
  H17      1.0000 0.40360  0.13090  0.10260  Biso   1.000  H
  H18      1.0000 0.59640  0.86910  0.89740  Biso   1.000  H
  H19      1.0000 0.52460  0.13640  0.06110  Biso   1.000  H
  H20      1.0000 0.47540  0.86360  0.93890  Biso   1.000  H
  H21      1.0000 0.52510  0.22910  0.15020  Biso   1.000  H
  H22      1.0000 0.47490  0.77090  0.84980  Biso   1.000  H
  C31      1.0000 0.53040  0.11040  0.30080  Biso   1.000  C
  C32      1.0000 0.46960  0.88960  0.69920  Biso   1.000  C
  H23      1.0000 0.43000  0.09100  0.26870  Biso   1.000  H
  H24      1.0000 0.57000  0.90900  0.73130  Biso   1.000  H
  H25      1.0000 0.55720  0.18150  0.34230  Biso   1.000  H
  H26      1.0000 0.44280  0.81850  0.65770  Biso   1.000  H
  H27      1.0000 0.56950  0.06420  0.34810  Biso   1.000  H
  H28      1.0000 0.43050  0.93580  0.65190  Biso   1.000  H
  N3       1.0000 0.56150  0.98720  0.16540  Biso   1.000  N
  N4       1.0000 0.43850  0.01280  0.83460  Biso   1.000  N
  O11      1.0000 0.44340  0.93340  0.10480  Biso   1.000  O
  O12      1.0000 0.55660  0.06660  0.89520  Biso   1.000  O
  C33      1.0000 0.67980  0.94870  0.20910  Biso   1.000  C
  C34      1.0000 0.32020  0.05130  0.79090  Biso   1.000  C
  C35      1.0000 0.69110  0.84130  0.18890  Biso   1.000  C
  C36      1.0000 0.30890  0.15870  0.81110  Biso   1.000  C
  C37      1.0000 0.58830  0.75600  0.12100  Biso   1.000  C
  C38      1.0000 0.41170  0.24400  0.87900  Biso   1.000  C
  H29      1.0000 0.49550  0.75990  0.08070  Biso   1.000  H
  H30      1.0000 0.50450  0.24010  0.91930  Biso   1.000  H
  N5       1.0000 0.63970  0.66910  0.12130  Biso   1.000  N
  N6       1.0000 0.36030  0.33090  0.87870  Biso   1.000  N
  H31      1.0000 0.59540  0.60670  0.08530  Biso   1.000  H
  H32      1.0000 0.40460  0.39330  0.91470  Biso   1.000  H
  N7       1.0000 0.77500  0.69740  0.18920  Biso   1.000  N
  N8       1.0000 0.22500  0.30260  0.81080  Biso   1.000  N
  C39      1.0000 0.86600  0.62100  0.21100  Biso   1.000  C
  C40      1.0000 0.13400  0.37900  0.78900  Biso   1.000  C
  H33      1.0000 0.81560  0.55400  0.16190  Biso   1.000  H
  H34      1.0000 0.18440  0.44600  0.83810  Biso   1.000  H
  H35      1.0000 0.94580  0.64280  0.19450  Biso   1.000  H
  H36      1.0000 0.05420  0.35720  0.80550  Biso   1.000  H
  C41      1.0000 0.91500  0.60660  0.31800  Biso   1.000  C
  C42      1.0000 0.08500  0.39340  0.68200  Biso   1.000  C
  H37      1.0000 0.83740  0.60040  0.34050  Biso   1.000  H
  H38      1.0000 0.16260  0.39960  0.65950  Biso   1.000  H
  H39      1.0000 0.98320  0.66810  0.36570  Biso   1.000  H
  H40      1.0000 0.01680  0.33190  0.63430  Biso   1.000  H
  C43      1.0000 0.98490  0.50590  0.33240  Biso   1.000  C
  C44      1.0000 0.01510  0.49410  0.66760  Biso   1.000  C
  H41      1.0000 0.94040  0.43610  0.31550  Biso   1.000  H
  H42      1.0000 0.05960  0.56390  0.68450  Biso   1.000  H
  C45      1.0000 0.11020  0.54020  0.37050  Biso   1.000  C
  C46      1.0000 0.88980  0.45980  0.62950  Biso   1.000  C
  H43      1.0000 0.16070  0.48320  0.38120  Biso   1.000  H
  H44      1.0000 0.83930  0.51680  0.61880  Biso   1.000  H
  H45      1.0000 0.13630  0.58800  0.43940  Biso   1.000  H
  H46      1.0000 0.86370  0.41200  0.56060  Biso   1.000  H
  H47      1.0000 0.13230  0.57660  0.32110  Biso   1.000  H
  H48      1.0000 0.86770  0.42340  0.67890  Biso   1.000  H
  C47      1.0000 0.80960  0.79860  0.23030  Biso   1.000  C
  C48      1.0000 0.19040  0.20140  0.76970  Biso   1.000  C
  H49      1.0000 0.89820  0.83510  0.27880  Biso   1.000  H
  H50      1.0000 0.10180  0.16490  0.72120  Biso   1.000  H
  Cl1      1.0000 0.86660  0.83100  0.86700  Biso   1.000  Cl
  Cl2      1.0000 0.13340  0.16900  0.13300  Biso   1.000  Cl
  C49      1.0000 0.94100  0.89100  0.00000  Biso   1.000  C
  C50      1.0000 0.05900  0.10900  0.00000  Biso   1.000  C
  C51      1.0000 0.00000  0.00000  0.00000  Biso   1.000  C
  C52      1.0000 0.05200  0.97500  0.10000  Biso   1.000  C
  C53      1.0000 0.94800  0.02500  0.90000  Biso   1.000  C
  C54      1.0000 0.06500  0.11800  0.95300  Biso   1.000  C
  C55      1.0000 0.93500  0.88200  0.04700  Biso   1.000  C
  Cl3      1.0000 0.86150  0.78680  0.98720  Biso   1.000  Cl
  Cl4      1.0000 0.13850  0.21320  0.01280  Biso   1.000  Cl
  C56      1.0000 0.92000  0.88700  0.94100  Biso   1.000  C
  C57      1.0000 0.08000  0.11300  0.05900  Biso   1.000  C
  C58      1.0000 0.09800  0.06400  0.97300  Biso   1.000  C
  C59      1.0000 0.90200  0.93600  0.02700  Biso   1.000  C
  C60      1.0000 0.06000  0.15100  0.03500  Biso   1.000  C
  C61      1.0000 0.94000  0.84900  0.96500  Biso   1.000  C
