data_image0
_cell_length_a       10.7917
_cell_length_b       13.3108
_cell_length_c       13.5539
_cell_angle_alpha    98.589
_cell_angle_beta     112.086
_cell_angle_gamma    96.953

_symmetry_space_group_name_H-M    "P 1"
_symmetry_int_tables_number       1

loop_
  _symmetry_equiv_pos_as_xyz
  'x, y, z'

loop_
  _atom_site_label
  _atom_site_occupancy
  _atom_site_fract_x
  _atom_site_fract_y
  _atom_site_fract_z
  _atom_site_thermal_displace_type
  _atom_site_B_iso_or_equiv
  _atom_site_type_symbol
  Cu1      1.0000 0.50000  0.50000  0.50000  Biso   1.000  Cu
  O1       1.0000 0.36840  0.37187  0.47203  Biso   1.000  O
  O2       1.0000 0.63160  0.62813  0.52797  Biso   1.000  O
  C1       1.0000 0.19880  0.25240  0.48040  Biso   1.000  C
  C2       1.0000 0.80120  0.74760  0.51960  Biso   1.000  C
  F1       1.0000 0.09420  0.24700  0.50370  Biso   1.000  F
  F2       1.0000 0.90580  0.75300  0.49630  Biso   1.000  F
  F3       1.0000 0.16600  0.20600  0.38510  Biso   1.000  F
  F4       1.0000 0.83400  0.79400  0.61490  Biso   1.000  F
  F5       1.0000 0.28400  0.20060  0.54170  Biso   1.000  F
  F6       1.0000 0.71600  0.79940  0.45830  Biso   1.000  F
  F7       1.0000 0.11700  0.23710  0.52940  Biso   1.000  F
  F8       1.0000 0.88300  0.76290  0.47060  Biso   1.000  F
  F9       1.0000 0.12400  0.22100  0.37580  Biso   1.000  F
  F10      1.0000 0.87600  0.77900  0.62420  Biso   1.000  F
  F11      1.0000 0.27820  0.19020  0.50800  Biso   1.000  F
  F12      1.0000 0.72180  0.80980  0.49200  Biso   1.000  F
  C3       1.0000 0.27480  0.36400  0.50420  Biso   1.000  C
  C4       1.0000 0.72520  0.63600  0.49580  Biso   1.000  C
  C5       1.0000 0.23420  0.44160  0.55650  Biso   1.000  C
  C6       1.0000 0.76580  0.55840  0.44350  Biso   1.000  C
  H1       1.0000 0.17700  0.42700  0.57300  Biso   1.000  H
  H2       1.0000 0.82300  0.57300  0.42700  Biso   1.000  H
  C7       1.0000 0.29370  0.54440  0.57920  Biso   1.000  C
  C8       1.0000 0.70630  0.45560  0.42080  Biso   1.000  C
  C9       1.0000 0.24320  0.62430  0.63890  Biso   1.000  C
  C10      1.0000 0.75680  0.37570  0.36110  Biso   1.000  C
  F13      1.0000 0.20110  0.69280  0.58210  Biso   1.000  F
  F14      1.0000 0.79890  0.30720  0.41790  Biso   1.000  F
  F15      1.0000 0.15900  0.59100  0.67650  Biso   1.000  F
  F16      1.0000 0.84100  0.40900  0.32350  Biso   1.000  F
  F17      1.0000 0.34840  0.68130  0.72900  Biso   1.000  F
  F18      1.0000 0.65160  0.31870  0.27100  Biso   1.000  F
  F19      1.0000 0.29200  0.62880  0.73700  Biso   1.000  F
  F20      1.0000 0.70800  0.37120  0.26300  Biso   1.000  F
  F21      1.0000 0.10830  0.59520  0.60880  Biso   1.000  F
  F22      1.0000 0.89170  0.40480  0.39120  Biso   1.000  F
  F23      1.0000 0.25200  0.70970  0.61480  Biso   1.000  F
  F24      1.0000 0.74800  0.29030  0.38520  Biso   1.000  F
  O3       1.0000 0.38900  0.58228  0.55654  Biso   1.000  O
  O4       1.0000 0.61100  0.41772  0.44346  Biso   1.000  O
  Cu2      1.0000 0.00000  0.00000  0.00000  Biso   1.000  Cu
  O5       1.0000 0.01780  0.95150  0.13463  Biso   1.000  O
  O6       1.0000 0.98220  0.04850  0.86537  Biso   1.000  O
  C11      1.0000 0.99610  0.94130  0.29750  Biso   1.000  C
  C12      1.0000 0.00390  0.05870  0.70250  Biso   1.000  C
  F25      1.0000 0.97710  0.99850  0.37410  Biso   1.000  F
  F26      1.0000 0.02290  0.00150  0.62590  Biso   1.000  F
  F27      1.0000 0.93370  0.84830  0.28300  Biso   1.000  F
  F28      1.0000 0.06630  0.15170  0.71700  Biso   1.000  F
  F29      1.0000 0.12410  0.93410  0.33750  Biso   1.000  F
  F30      1.0000 0.87590  0.06590  0.66250  Biso   1.000  F
  C13      1.0000 0.95550  0.97870  0.19210  Biso   1.000  C
  C14      1.0000 0.04450  0.02130  0.80790  Biso   1.000  C
  C15      1.0000 0.85430  0.03680  0.16880  Biso   1.000  C
  C16      1.0000 0.14570  0.96320  0.83120  Biso   1.000  C
  H3       1.0000 0.82400  0.04400  0.20900  Biso   1.000  H
  H4       1.0000 0.17600  0.95600  0.79100  Biso   1.000  H
  C17      1.0000 0.80560  0.07250  0.07400  Biso   1.000  C
  C18      1.0000 0.19440  0.92750  0.92600  Biso   1.000  C
  C19      1.0000 0.69110  0.13300  0.05340  Biso   1.000  C
  C20      1.0000 0.30890  0.86700  0.94660  Biso   1.000  C
  F31      1.0000 0.60150  0.10950  0.95270  Biso   1.000  F
  F32      1.0000 0.39850  0.89050  0.04730  Biso   1.000  F
  F33      1.0000 0.74000  0.23040  0.07230  Biso   1.000  F
  F34      1.0000 0.26000  0.76960  0.92770  Biso   1.000  F
  F35      1.0000 0.62740  0.12110  0.11740  Biso   1.000  F
  F36      1.0000 0.37260  0.87890  0.88260  Biso   1.000  F
  F37      1.0000 0.64880  0.14880  0.13020  Biso   1.000  F
  F38      1.0000 0.35120  0.85120  0.86980  Biso   1.000  F
  F39      1.0000 0.58400  0.08100  0.97200  Biso   1.000  F
  F40      1.0000 0.41600  0.91900  0.02800  Biso   1.000  F
  F41      1.0000 0.72400  0.22290  0.03780  Biso   1.000  F
  F42      1.0000 0.27600  0.77710  0.96220  Biso   1.000  F
  O7       1.0000 0.84650  0.06286  0.99844  Biso   1.000  O
  O8       1.0000 0.15350  0.93714  0.00156  Biso   1.000  O
  O9       1.0000 0.40960  0.51833  0.32318  Biso   1.000  O
  O10      1.0000 0.59040  0.48167  0.67682  Biso   1.000  O
  N1       1.0000 0.28470  0.52610  0.27050  Biso   1.000  N
  N2       1.0000 0.71530  0.47390  0.72950  Biso   1.000  N
  C21      1.0000 0.24510  0.62870  0.25350  Biso   1.000  C
  C22      1.0000 0.75490  0.37130  0.74650  Biso   1.000  C
  C23      1.0000 0.31650  0.70970  0.35830  Biso   1.000  C
  C24      1.0000 0.68350  0.29030  0.64170  Biso   1.000  C
  H5       1.0000 0.29900  0.68900  0.41900  Biso   1.000  H
  H6       1.0000 0.70100  0.31100  0.58100  Biso   1.000  H
  H7       1.0000 0.30100  0.76800  0.35200  Biso   1.000  H
  H8       1.0000 0.69900  0.23200  0.64800  Biso   1.000  H
  H9       1.0000 0.41600  0.71700  0.38200  Biso   1.000  H
  H10      1.0000 0.58400  0.28300  0.61800  Biso   1.000  H
  C25      1.0000 0.29120  0.65620  0.16580  Biso   1.000  C
  C26      1.0000 0.70880  0.34380  0.83420  Biso   1.000  C
  H11      1.0000 0.25900  0.60600  0.09900  Biso   1.000  H
  H12      1.0000 0.74100  0.39400  0.90100  Biso   1.000  H
  H13      1.0000 0.38500  0.65700  0.19100  Biso   1.000  H
  H14      1.0000 0.61500  0.34300  0.80900  Biso   1.000  H
  H15      1.0000 0.26900  0.71700  0.14900  Biso   1.000  H
  H16      1.0000 0.73100  0.28300  0.85100  Biso   1.000  H
  C27      1.0000 0.08940  0.59800  0.21340  Biso   1.000  C
  C28      1.0000 0.91060  0.40200  0.78660  Biso   1.000  C
  C29      1.0000 0.03780  0.60570  0.30410  Biso   1.000  C
  C30      1.0000 0.96220  0.39430  0.69590  Biso   1.000  C
  H17      1.0000 0.08800  0.57200  0.36100  Biso   1.000  H
  H18      1.0000 0.91200  0.42800  0.63900  Biso   1.000  H
  H19      1.0000 0.94100  0.58300  0.27500  Biso   1.000  H
  H20      1.0000 0.05900  0.41700  0.72500  Biso   1.000  H
  H21      1.0000 0.05000  0.67500  0.33800  Biso   1.000  H
  H22      1.0000 0.95000  0.32500  0.66200  Biso   1.000  H
  C31      1.0000 0.00640  0.64930  0.12440  Biso   1.000  C
  C32      1.0000 0.99360  0.35070  0.87560  Biso   1.000  C
  H23      1.0000 0.02600  0.63700  0.06600  Biso   1.000  H
  H24      1.0000 0.97400  0.36300  0.93400  Biso   1.000  H
  H25      1.0000 0.02600  0.72400  0.15100  Biso   1.000  H
  H26      1.0000 0.97400  0.27600  0.84900  Biso   1.000  H
  H27      1.0000 0.91300  0.62600  0.10400  Biso   1.000  H
  H28      1.0000 0.08700  0.37400  0.89600  Biso   1.000  H
  N3       1.0000 0.06750  0.48450  0.16730  Biso   1.000  N
  N4       1.0000 0.93250  0.51550  0.83270  Biso   1.000  N
  O11      1.0000 0.95020  0.43019  0.10730  Biso   1.000  O
  O12      1.0000 0.04980  0.56981  0.89270  Biso   1.000  O
  C33      1.0000 0.18290  0.44700  0.20910  Biso   1.000  C
  C34      1.0000 0.81710  0.55300  0.79090  Biso   1.000  C
  C35      1.0000 0.19420  0.34030  0.18860  Biso   1.000  C
  C36      1.0000 0.80580  0.65970  0.81140  Biso   1.000  C
  C37      1.0000 0.09240  0.25500  0.12090  Biso   1.000  C
  C38      1.0000 0.90760  0.74500  0.87910  Biso   1.000  C
  H29      1.0000 0.00400  0.25300  0.08400  Biso   1.000  H
  H30      1.0000 0.99600  0.74700  0.91600  Biso   1.000  H
  N5       1.0000 0.14090  0.16846  0.11940  Biso   1.000  N
  N6       1.0000 0.85910  0.83154  0.88060  Biso   1.000  N
  N7       1.0000 0.27550  0.19790  0.18720  Biso   1.000  N
  N8       1.0000 0.72450  0.80210  0.81280  Biso   1.000  N
  C39      1.0000 0.36480  0.12160  0.20730  Biso   1.000  C
  C40      1.0000 0.63520  0.87840  0.79270  Biso   1.000  C
  H31      1.0000 0.31360  0.05500  0.16080  Biso   1.000  H
  H32      1.0000 0.68640  0.94500  0.83920  Biso   1.000  H
  H33      1.0000 0.43960  0.14210  0.18690  Biso   1.000  H
  H34      1.0000 0.56040  0.85790  0.81310  Biso   1.000  H
  C41      1.0000 0.41970  0.10980  0.31800  Biso   1.000  C
  C42      1.0000 0.58030  0.89020  0.68200  Biso   1.000  C
  H35      1.0000 0.34750  0.10380  0.34420  Biso   1.000  H
  H36      1.0000 0.65250  0.89620  0.65580  Biso   1.000  H
  H37      1.0000 0.48770  0.17070  0.36300  Biso   1.000  H
  H38      1.0000 0.51230  0.82930  0.63700  Biso   1.000  H
  C43      1.0000 0.48800  0.00890  0.32890  Biso   1.000  C
  C44      1.0000 0.51200  0.99110  0.67110  Biso   1.000  C
  H39      1.0000 0.45980  0.96980  0.37430  Biso   1.000  H
  H40      1.0000 0.54020  0.03020  0.62570  Biso   1.000  H
  H41      1.0000 0.46070  0.96450  0.25770  Biso   1.000  H
  H42      1.0000 0.53930  0.03550  0.74230  Biso   1.000  H
  C45      1.0000 0.61650  0.04110  0.37200  Biso   1.000  C
  C46      1.0000 0.38350  0.95890  0.62800  Biso   1.000  C
  H43      1.0000 0.66140  0.98320  0.38340  Biso   1.000  H
  H44      1.0000 0.33860  0.01680  0.61660  Biso   1.000  H
  H45      1.0000 0.64150  0.08760  0.44070  Biso   1.000  H
  H46      1.0000 0.35850  0.91240  0.55930  Biso   1.000  H
  H47      1.0000 0.64350  0.07660  0.32450  Biso   1.000  H
  H48      1.0000 0.35650  0.92340  0.67550  Biso   1.000  H
  C47      1.0000 0.30950  0.29890  0.22870  Biso   1.000  C
  C48      1.0000 0.69050  0.70110  0.77130  Biso   1.000  C
  H49      1.0000 0.39900  0.32800  0.27400  Biso   1.000  H
  H50      1.0000 0.60100  0.67200  0.72600  Biso   1.000  H
  C49      1.0000 0.63770  0.72600  0.03950  Biso   1.000  C
  C50      1.0000 0.36230  0.27400  0.96050  Biso   1.000  C
  H51      1.0000 0.60310  0.76780  0.98720  Biso   1.000  H
  H52      1.0000 0.39690  0.23220  0.01280  Biso   1.000  H
  H53      1.0000 0.73260  0.72770  0.05600  Biso   1.000  H
  H54      1.0000 0.26740  0.27230  0.94400  Biso   1.000  H
  H55      1.0000 0.62640  0.75250  0.10490  Biso   1.000  H
  H56      1.0000 0.37360  0.24750  0.89510  Biso   1.000  H
  C51      1.0000 0.55770  0.61210  0.99150  Biso   1.000  C
  C52      1.0000 0.44230  0.38790  0.00850  Biso   1.000  C
  H57      1.0000 0.46410  0.61690  0.94970  Biso   1.000  H
  H58      1.0000 0.53590  0.38310  0.05030  Biso   1.000  H
  H59      1.0000 0.59210  0.58340  0.93910  Biso   1.000  H
  H60      1.0000 0.40790  0.41660  0.06090  Biso   1.000  H
  C53      1.0000 0.55000  0.53350  0.05280  Biso   1.000  C
  C54      1.0000 0.45000  0.46650  0.94720  Biso   1.000  C
  H61      1.0000 0.51200  0.55110  0.10610  Biso   1.000  H
  H62      1.0000 0.48800  0.44890  0.89390  Biso   1.000  H
  H63      1.0000 0.63430  0.50880  0.08440  Biso   1.000  H
  H64      1.0000 0.36570  0.49120  0.91560  Biso   1.000  H
