data_image0
_cell_length_a       10.722
_cell_length_b       13.324
_cell_length_c       13.8
_cell_angle_alpha    99.313
_cell_angle_beta     112.304
_cell_angle_gamma    95.827

_symmetry_space_group_name_H-M    "P 1"
_symmetry_int_tables_number       1

loop_
  _symmetry_equiv_pos_as_xyz
  'x, y, z'

loop_
  _atom_site_label
  _atom_site_occupancy
  _atom_site_fract_x
  _atom_site_fract_y
  _atom_site_fract_z
  _atom_site_thermal_displace_type
  _atom_site_B_iso_or_equiv
  _atom_site_type_symbol
  Cu1      1.0000 0.00000  0.00000  0.50000  Biso   1.000  Cu
  O1       1.0000 0.87080  0.87200  0.47360  Biso   1.000  O
  O2       1.0000 0.12920  0.12800  0.52640  Biso   1.000  O
  C1       1.0000 0.70220  0.75490  0.47960  Biso   1.000  C
  C2       1.0000 0.29780  0.24510  0.52040  Biso   1.000  C
  F1       1.0000 0.78290  0.69330  0.51450  Biso   1.000  F
  F2       1.0000 0.21710  0.30670  0.48550  Biso   1.000  F
  F3       1.0000 0.64150  0.71800  0.38100  Biso   1.000  F
  F4       1.0000 0.35850  0.28200  0.61900  Biso   1.000  F
  F5       1.0000 0.61150  0.74320  0.51990  Biso   1.000  F
  F6       1.0000 0.38850  0.25680  0.48010  Biso   1.000  F
  C3       1.0000 0.77540  0.86430  0.50450  Biso   1.000  C
  C4       1.0000 0.22460  0.13570  0.49550  Biso   1.000  C
  C5       1.0000 0.73340  0.94240  0.55570  Biso   1.000  C
  C6       1.0000 0.26660  0.05760  0.44430  Biso   1.000  C
  H1       1.0000 0.66140  0.92560  0.57550  Biso   1.000  H
  H2       1.0000 0.33860  0.07440  0.42450  Biso   1.000  H
  C7       1.0000 0.79320  0.04400  0.57880  Biso   1.000  C
  C8       1.0000 0.20680  0.95600  0.42120  Biso   1.000  C
  C9       1.0000 0.73760  0.12170  0.63200  Biso   1.000  C
  C10      1.0000 0.26240  0.87830  0.36800  Biso   1.000  C
  F7       1.0000 0.82300  0.16550  0.72370  Biso   1.000  F
  F8       1.0000 0.17700  0.83450  0.27630  Biso   1.000  F
  F9       1.0000 0.71640  0.20200  0.59160  Biso   1.000  F
  F10      1.0000 0.28360  0.79800  0.40840  Biso   1.000  F
  F11      1.0000 0.63120  0.09450  0.64300  Biso   1.000  F
  F12      1.0000 0.36880  0.90550  0.35700  Biso   1.000  F
  O3       1.0000 0.88910  0.08130  0.55490  Biso   1.000  O
  O4       1.0000 0.11090  0.91870  0.44510  Biso   1.000  O
  Cu2      1.0000 0.50000  0.50000  0.00000  Biso   1.000  Cu
  O5       1.0000 0.51260  0.45270  0.13090  Biso   1.000  O
  O6       1.0000 0.48740  0.54730  0.86910  Biso   1.000  O
  C11      1.0000 0.48500  0.43970  0.28870  Biso   1.000  C
  C12      1.0000 0.51500  0.56030  0.71130  Biso   1.000  C
  F13      1.0000 0.58400  0.39700  0.31200  Biso   1.000  F
  F14      1.0000 0.41600  0.60300  0.68800  Biso   1.000  F
  F15      1.0000 0.37600  0.36300  0.26500  Biso   1.000  F
  F16      1.0000 0.62400  0.63700  0.73500  Biso   1.000  F
  F17      1.0000 0.48500  0.50440  0.37100  Biso   1.000  F
  F18      1.0000 0.51500  0.49560  0.62900  Biso   1.000  F
  F19      1.0000 0.61700  0.45400  0.33900  Biso   1.000  F
  F20      1.0000 0.38300  0.54600  0.66100  Biso   1.000  F
  F21      1.0000 0.42800  0.49100  0.34600  Biso   1.000  F
  F22      1.0000 0.57200  0.50900  0.65400  Biso   1.000  F
  F23      1.0000 0.42500  0.35000  0.27500  Biso   1.000  F
  F24      1.0000 0.57500  0.65000  0.72500  Biso   1.000  F
  C13      1.0000 0.44710  0.48080  0.18430  Biso   1.000  C
  C14      1.0000 0.55290  0.51920  0.81570  Biso   1.000  C
  C15      1.0000 0.34170  0.53790  0.15810  Biso   1.000  C
  C16      1.0000 0.65830  0.46210  0.84190  Biso   1.000  C
  H3       1.0000 0.30020  0.55230  0.20570  Biso   1.000  H
  H4       1.0000 0.69980  0.44770  0.79430  Biso   1.000  H
  C17      1.0000 0.29570  0.57440  0.06350  Biso   1.000  C
  C18      1.0000 0.70430  0.42560  0.93650  Biso   1.000  C
  C19      1.0000 0.18270  0.63850  0.04330  Biso   1.000  C
  C20      1.0000 0.81730  0.36150  0.95670  Biso   1.000  C
  F25      1.0000 0.10600  0.62800  0.09100  Biso   1.000  F
  F26      1.0000 0.89400  0.37200  0.90900  Biso   1.000  F
  F27      1.0000 0.09300  0.62010  0.94110  Biso   1.000  F
  F28      1.0000 0.90700  0.37990  0.05890  Biso   1.000  F
  F29      1.0000 0.22190  0.73960  0.06100  Biso   1.000  F
  F30      1.0000 0.77810  0.26040  0.93900  Biso   1.000  F
  F31      1.0000 0.21700  0.71300  0.01600  Biso   1.000  F
  F32      1.0000 0.78300  0.28700  0.98400  Biso   1.000  F
  F33      1.0000 0.15000  0.65600  0.13100  Biso   1.000  F
  F34      1.0000 0.85000  0.34400  0.86900  Biso   1.000  F
  F35      1.0000 0.07800  0.57670  0.96900  Biso   1.000  F
  F36      1.0000 0.92200  0.42330  0.03100  Biso   1.000  F
  O7       1.0000 0.34470  0.56430  0.99270  Biso   1.000  O
  O8       1.0000 0.65530  0.43570  0.00730  Biso   1.000  O
  O9       1.0000 0.90490  0.01700  0.32350  Biso   1.000  O
  O10      1.0000 0.09510  0.98300  0.67650  Biso   1.000  O
  N1       1.0000 0.77980  0.02610  0.27130  Biso   1.000  N
  N2       1.0000 0.22020  0.97390  0.72870  Biso   1.000  N
  C21      1.0000 0.73930  0.12900  0.25400  Biso   1.000  C
  C22      1.0000 0.26070  0.87100  0.74600  Biso   1.000  C
  C23      1.0000 0.78830  0.15660  0.16810  Biso   1.000  C
  C24      1.0000 0.21170  0.84340  0.83190  Biso   1.000  C
  H5       1.0000 0.88640  0.17510  0.19910  Biso   1.000  H
  H6       1.0000 0.11360  0.82490  0.80090  Biso   1.000  H
  H7       1.0000 0.74890  0.21390  0.14290  Biso   1.000  H
  H8       1.0000 0.25110  0.78610  0.85710  Biso   1.000  H
  H9       1.0000 0.76000  0.09810  0.10920  Biso   1.000  H
  H10      1.0000 0.24000  0.90190  0.89080  Biso   1.000  H
  C25      1.0000 0.81130  0.20800  0.35780  Biso   1.000  C
  C26      1.0000 0.18870  0.79200  0.64220  Biso   1.000  C
  H11      1.0000 0.77950  0.19000  0.41020  Biso   1.000  H
  H12      1.0000 0.22050  0.81000  0.58980  Biso   1.000  H
  H13      1.0000 0.79190  0.27490  0.34620  Biso   1.000  H
  H14      1.0000 0.20810  0.72510  0.65380  Biso   1.000  H
  H15      1.0000 0.90830  0.20950  0.38330  Biso   1.000  H
  H16      1.0000 0.09170  0.79050  0.61670  Biso   1.000  H
  C27      1.0000 0.58360  0.09860  0.21000  Biso   1.000  C
  C28      1.0000 0.41640  0.90140  0.79000  Biso   1.000  C
  C29      1.0000 0.49980  0.15030  0.12260  Biso   1.000  C
  C30      1.0000 0.50020  0.84970  0.87740  Biso   1.000  C
  H17      1.0000 0.53420  0.14510  0.06750  Biso   1.000  H
  H18      1.0000 0.46580  0.85490  0.93250  Biso   1.000  H
  H19      1.0000 0.50650  0.22190  0.15280  Biso   1.000  H
  H20      1.0000 0.49350  0.77810  0.84720  Biso   1.000  H
  H21      1.0000 0.40560  0.11670  0.09240  Biso   1.000  H
  H22      1.0000 0.59440  0.88330  0.90760  Biso   1.000  H
  C31      1.0000 0.52580  0.10790  0.29820  Biso   1.000  C
  C32      1.0000 0.47420  0.89210  0.70180  Biso   1.000  C
  H23      1.0000 0.42790  0.08780  0.26510  Biso   1.000  H
  H24      1.0000 0.57210  0.91220  0.73490  Biso   1.000  H
  H25      1.0000 0.54960  0.17820  0.33800  Biso   1.000  H
  H26      1.0000 0.45040  0.82180  0.66200  Biso   1.000  H
  H27      1.0000 0.56410  0.06360  0.34590  Biso   1.000  H
  H28      1.0000 0.43590  0.93640  0.65410  Biso   1.000  H
  N3       1.0000 0.56210  0.98450  0.16570  Biso   1.000  N
  N4       1.0000 0.43790  0.01550  0.83430  Biso   1.000  N
  O11      1.0000 0.44550  0.93210  0.10460  Biso   1.000  O
  O12      1.0000 0.55450  0.06790  0.89540  Biso   1.000  O
  C33      1.0000 0.67870  0.94650  0.20910  Biso   1.000  C
  C34      1.0000 0.32130  0.05350  0.79090  Biso   1.000  C
  C35      1.0000 0.68920  0.84120  0.18850  Biso   1.000  C
  C36      1.0000 0.31080  0.15880  0.81150  Biso   1.000  C
  C37      1.0000 0.59070  0.75530  0.12080  Biso   1.000  C
  C38      1.0000 0.40930  0.24470  0.87920  Biso   1.000  C
  H29      1.0000 0.49980  0.75870  0.08110  Biso   1.000  H
  H30      1.0000 0.50020  0.24130  0.91890  Biso   1.000  H
  N5       1.0000 0.64010  0.66980  0.11940  Biso   1.000  N
  N6       1.0000 0.35990  0.33020  0.88060  Biso   1.000  N
  N7       1.0000 0.77550  0.69780  0.18680  Biso   1.000  N
  N8       1.0000 0.22450  0.30220  0.81320  Biso   1.000  N
  C39      1.0000 0.86540  0.62140  0.20640  Biso   1.000  C
  C40      1.0000 0.13460  0.37860  0.79360  Biso   1.000  C
  H31      1.0000 0.81530  0.55540  0.15900  Biso   1.000  H
  H32      1.0000 0.18470  0.44460  0.84100  Biso   1.000  H
  H33      1.0000 0.94210  0.64210  0.18870  Biso   1.000  H
  H34      1.0000 0.05790  0.35790  0.81130  Biso   1.000  H
  C41      1.0000 0.91780  0.60820  0.31650  Biso   1.000  C
  C42      1.0000 0.08220  0.39180  0.68350  Biso   1.000  C
  H35      1.0000 0.84290  0.59680  0.33880  Biso   1.000  H
  H36      1.0000 0.15710  0.40320  0.66120  Biso   1.000  H
  H37      1.0000 0.98110  0.67000  0.36390  Biso   1.000  H
  H38      1.0000 0.01890  0.33000  0.63610  Biso   1.000  H
  C43      1.0000 0.99500  0.51030  0.32350  Biso   1.000  C
  C44      1.0000 0.00500  0.48970  0.67650  Biso   1.000  C
  H39      1.0000 0.95140  0.45790  0.34740  Biso   1.000  H
  H40      1.0000 0.04860  0.54210  0.65260  Biso   1.000  H
  H41      1.0000 0.99250  0.48020  0.25370  Biso   1.000  H
  H42      1.0000 0.00750  0.51980  0.74630  Biso   1.000  H
  C45      1.0000 0.13100  0.54640  0.39700  Biso   1.000  C
  C46      1.0000 0.86900  0.45360  0.60300  Biso   1.000  C
  H43      1.0000 0.18210  0.49140  0.39880  Biso   1.000  H
  H44      1.0000 0.81790  0.50860  0.60120  Biso   1.000  H
  H45      1.0000 0.13240  0.57050  0.46710  Biso   1.000  H
  H46      1.0000 0.86760  0.42950  0.53290  Biso   1.000  H
  H47      1.0000 0.17040  0.60220  0.37580  Biso   1.000  H
  H48      1.0000 0.82960  0.39780  0.62420  Biso   1.000  H
  C47      1.0000 0.80700  0.79880  0.22830  Biso   1.000  C
  C48      1.0000 0.19300  0.20120  0.77170  Biso   1.000  C
  H49      1.0000 0.89320  0.83500  0.27590  Biso   1.000  H
  H50      1.0000 0.10680  0.16500  0.72410  Biso   1.000  H
  Cl1      1.0000 0.90000  0.83200  0.99800  Biso   1.000  Cl
  Cl2      1.0000 0.10000  0.16800  0.00200  Biso   1.000  Cl
  C49      1.0000 0.96100  0.90600  0.94300  Biso   1.000  C
  C50      1.0000 0.03900  0.09400  0.05700  Biso   1.000  C
  C51      1.0000 0.98800  0.97300  0.05200  Biso   1.000  C
  C52      1.0000 0.01200  0.02700  0.94800  Biso   1.000  C
  C53      1.0000 0.89000  0.95000  0.94100  Biso   1.000  C
  C54      1.0000 0.11000  0.05000  0.05900  Biso   1.000  C
  C55      1.0000 0.13300  0.16300  0.12000  Biso   1.000  C
  C56      1.0000 0.86700  0.83700  0.88000  Biso   1.000  C
