data_image0
_cell_length_a       10.6942
_cell_length_b       13.2637
_cell_length_c       13.5202
_cell_angle_alpha    98.564
_cell_angle_beta     111.925
_cell_angle_gamma    97.3

_symmetry_space_group_name_H-M    "P 1"
_symmetry_int_tables_number       1

loop_
  _symmetry_equiv_pos_as_xyz
  'x, y, z'

loop_
  _atom_site_label
  _atom_site_occupancy
  _atom_site_fract_x
  _atom_site_fract_y
  _atom_site_fract_z
  _atom_site_thermal_displace_type
  _atom_site_B_iso_or_equiv
  _atom_site_type_symbol
  Cu1      1.0000 0.50000  0.50000  0.50000  Biso   1.000  Cu
  O1       1.0000 0.36460  0.37173  0.47062  Biso   1.000  O
  O2       1.0000 0.63540  0.62827  0.52938  Biso   1.000  O
  C1       1.0000 0.19250  0.25170  0.47960  Biso   1.000  C
  C2       1.0000 0.80750  0.74830  0.52040  Biso   1.000  C
  F1       1.0000 0.08770  0.24730  0.50680  Biso   1.000  F
  F2       1.0000 0.91230  0.75270  0.49320  Biso   1.000  F
  F3       1.0000 0.15420  0.20690  0.38240  Biso   1.000  F
  F4       1.0000 0.84580  0.79310  0.61760  Biso   1.000  F
  F5       1.0000 0.28200  0.19750  0.54200  Biso   1.000  F
  F6       1.0000 0.71800  0.80250  0.45800  Biso   1.000  F
  F7       1.0000 0.10500  0.23570  0.52460  Biso   1.000  F
  F8       1.0000 0.89500  0.76430  0.47540  Biso   1.000  F
  F9       1.0000 0.12800  0.21430  0.37280  Biso   1.000  F
  F10      1.0000 0.87200  0.78570  0.62720  Biso   1.000  F
  F11      1.0000 0.27430  0.19110  0.51470  Biso   1.000  F
  F12      1.0000 0.72570  0.80890  0.48530  Biso   1.000  F
  C3       1.0000 0.26940  0.36390  0.50330  Biso   1.000  C
  C4       1.0000 0.73060  0.63610  0.49670  Biso   1.000  C
  C5       1.0000 0.22850  0.44150  0.55570  Biso   1.000  C
  C6       1.0000 0.77150  0.55850  0.44430  Biso   1.000  C
  H1       1.0000 0.16100  0.42400  0.57100  Biso   1.000  H
  H2       1.0000 0.83900  0.57600  0.42900  Biso   1.000  H
  C7       1.0000 0.29000  0.54500  0.57860  Biso   1.000  C
  C8       1.0000 0.71000  0.45500  0.42140  Biso   1.000  C
  C9       1.0000 0.23920  0.62580  0.63860  Biso   1.000  C
  C10      1.0000 0.76080  0.37420  0.36140  Biso   1.000  C
  F13      1.0000 0.19880  0.69650  0.58050  Biso   1.000  F
  F14      1.0000 0.80120  0.30350  0.41950  Biso   1.000  F
  F15      1.0000 0.15090  0.59210  0.67430  Biso   1.000  F
  F16      1.0000 0.84910  0.40790  0.32570  Biso   1.000  F
  F17      1.0000 0.34460  0.68230  0.72970  Biso   1.000  F
  F18      1.0000 0.65540  0.31770  0.27030  Biso   1.000  F
  F19      1.0000 0.29510  0.63450  0.73790  Biso   1.000  F
  F20      1.0000 0.70490  0.36550  0.26210  Biso   1.000  F
  F21      1.0000 0.10500  0.59380  0.61410  Biso   1.000  F
  F22      1.0000 0.89500  0.40620  0.38590  Biso   1.000  F
  F23      1.0000 0.24490  0.71070  0.61090  Biso   1.000  F
  F24      1.0000 0.75510  0.28930  0.38910  Biso   1.000  F
  O3       1.0000 0.38630  0.58360  0.55576  Biso   1.000  O
  O4       1.0000 0.61370  0.41640  0.44424  Biso   1.000  O
  Cu2      1.0000 0.00000  0.00000  0.00000  Biso   1.000  Cu
  O5       1.0000 0.01490  0.94967  0.13399  Biso   1.000  O
  O6       1.0000 0.98510  0.05033  0.86601  Biso   1.000  O
  C11      1.0000 0.98950  0.93800  0.29650  Biso   1.000  C
  C12      1.0000 0.01050  0.06200  0.70350  Biso   1.000  C
  F25      1.0000 0.97020  0.99690  0.37360  Biso   1.000  F
  F26      1.0000 0.02980  0.00310  0.62640  Biso   1.000  F
  F27      1.0000 0.92050  0.84420  0.28020  Biso   1.000  F
  F28      1.0000 0.07950  0.15580  0.71980  Biso   1.000  F
  F29      1.0000 0.11780  0.92840  0.33560  Biso   1.000  F
  F30      1.0000 0.88220  0.07160  0.66440  Biso   1.000  F
  C13      1.0000 0.95060  0.97670  0.19070  Biso   1.000  C
  C14      1.0000 0.04940  0.02330  0.80930  Biso   1.000  C
  C15      1.0000 0.84820  0.03430  0.16690  Biso   1.000  C
  C16      1.0000 0.15180  0.96570  0.83310  Biso   1.000  C
  H3       1.0000 0.81300  0.04400  0.20800  Biso   1.000  H
  H4       1.0000 0.18700  0.95600  0.79200  Biso   1.000  H
  C17      1.0000 0.80160  0.07080  0.07240  Biso   1.000  C
  C18      1.0000 0.19840  0.92920  0.92760  Biso   1.000  C
  C19      1.0000 0.68570  0.13100  0.05090  Biso   1.000  C
  C20      1.0000 0.31430  0.86900  0.94910  Biso   1.000  C
  F31      1.0000 0.59500  0.10340  0.95070  Biso   1.000  F
  F32      1.0000 0.40500  0.89660  0.04930  Biso   1.000  F
  F33      1.0000 0.73700  0.23040  0.06800  Biso   1.000  F
  F34      1.0000 0.26300  0.76960  0.93200  Biso   1.000  F
  F35      1.0000 0.62300  0.11900  0.11820  Biso   1.000  F
  F36      1.0000 0.37700  0.88100  0.88180  Biso   1.000  F
  F37      1.0000 0.63400  0.14300  0.12470  Biso   1.000  F
  F38      1.0000 0.36600  0.85700  0.87530  Biso   1.000  F
  F39      1.0000 0.57900  0.08400  0.96040  Biso   1.000  F
  F40      1.0000 0.42100  0.91600  0.03960  Biso   1.000  F
  F41      1.0000 0.72300  0.22530  0.04100  Biso   1.000  F
  F42      1.0000 0.27700  0.77470  0.95900  Biso   1.000  F
  O7       1.0000 0.84420  0.06175  0.99725  Biso   1.000  O
  O8       1.0000 0.15580  0.93825  0.00275  Biso   1.000  O
  O9       1.0000 0.41440  0.51894  0.32522  Biso   1.000  O
  O10      1.0000 0.58560  0.48106  0.67478  Biso   1.000  O
  N1       1.0000 0.28850  0.52740  0.27190  Biso   1.000  N
  N2       1.0000 0.71150  0.47260  0.72810  Biso   1.000  N
  C21      1.0000 0.25060  0.63080  0.25440  Biso   1.000  C
  C22      1.0000 0.74940  0.36920  0.74560  Biso   1.000  C
  C23      1.0000 0.32270  0.71280  0.35940  Biso   1.000  C
  C24      1.0000 0.67730  0.28720  0.64060  Biso   1.000  C
  H5       1.0000 0.30100  0.68800  0.41800  Biso   1.000  H
  H6       1.0000 0.69900  0.31200  0.58200  Biso   1.000  H
  H7       1.0000 0.30200  0.77400  0.34900  Biso   1.000  H
  H8       1.0000 0.69800  0.22600  0.65100  Biso   1.000  H
  H9       1.0000 0.42200  0.72600  0.38400  Biso   1.000  H
  H10      1.0000 0.57800  0.27400  0.61600  Biso   1.000  H
  C25      1.0000 0.29840  0.65770  0.16700  Biso   1.000  C
  C26      1.0000 0.70160  0.34230  0.83300  Biso   1.000  C
  H11      1.0000 0.25800  0.60900  0.10300  Biso   1.000  H
  H12      1.0000 0.74200  0.39100  0.89700  Biso   1.000  H
  H13      1.0000 0.38700  0.65900  0.19400  Biso   1.000  H
  H14      1.0000 0.61300  0.34100  0.80600  Biso   1.000  H
  H15      1.0000 0.27600  0.72300  0.15200  Biso   1.000  H
  H16      1.0000 0.72400  0.27700  0.84800  Biso   1.000  H
  C27      1.0000 0.09280  0.60050  0.21400  Biso   1.000  C
  C28      1.0000 0.90720  0.39950  0.78600  Biso   1.000  C
  C29      1.0000 0.04060  0.60900  0.30470  Biso   1.000  C
  C30      1.0000 0.95940  0.39100  0.69530  Biso   1.000  C
  H17      1.0000 0.09200  0.57600  0.35900  Biso   1.000  H
  H18      1.0000 0.90800  0.42400  0.64100  Biso   1.000  H
  H19      1.0000 0.93900  0.58300  0.27100  Biso   1.000  H
  H20      1.0000 0.06100  0.41700  0.72900  Biso   1.000  H
  H21      1.0000 0.04500  0.67300  0.33500  Biso   1.000  H
  H22      1.0000 0.95500  0.32700  0.66500  Biso   1.000  H
  C31      1.0000 0.01060  0.65250  0.12470  Biso   1.000  C
  C32      1.0000 0.98940  0.34750  0.87530  Biso   1.000  C
  H23      1.0000 0.03900  0.63900  0.06000  Biso   1.000  H
  H24      1.0000 0.96100  0.36100  0.94000  Biso   1.000  H
  H25      1.0000 0.03000  0.72200  0.15000  Biso   1.000  H
  H26      1.0000 0.97000  0.27800  0.85000  Biso   1.000  H
  H27      1.0000 0.90200  0.62200  0.10500  Biso   1.000  H
  H28      1.0000 0.09800  0.37800  0.89500  Biso   1.000  H
  N3       1.0000 0.06870  0.48620  0.16760  Biso   1.000  N
  N4       1.0000 0.93130  0.51380  0.83240  Biso   1.000  N
  O11      1.0000 0.95050  0.43236  0.10750  Biso   1.000  O
  O12      1.0000 0.04950  0.56764  0.89250  Biso   1.000  O
  C33      1.0000 0.18480  0.44780  0.21020  Biso   1.000  C
  C34      1.0000 0.81520  0.55220  0.78980  Biso   1.000  C
  C35      1.0000 0.19450  0.34050  0.19000  Biso   1.000  C
  C36      1.0000 0.80550  0.65950  0.81000  Biso   1.000  C
  C37      1.0000 0.09170  0.25500  0.12240  Biso   1.000  C
  C38      1.0000 0.90830  0.74500  0.87760  Biso   1.000  C
  H29      1.0000 0.99900  0.25300  0.08100  Biso   1.000  H
  H30      1.0000 0.00100  0.74700  0.91900  Biso   1.000  H
  N5       1.0000 0.13950  0.16769  0.12140  Biso   1.000  N
  N6       1.0000 0.86050  0.83231  0.87860  Biso   1.000  N
  N7       1.0000 0.27490  0.19709  0.18990  Biso   1.000  N
  N8       1.0000 0.72510  0.80291  0.81010  Biso   1.000  N
  C39      1.0000 0.36370  0.12040  0.21190  Biso   1.000  C
  C40      1.0000 0.63630  0.87960  0.78810  Biso   1.000  C
  H31      1.0000 0.31210  0.05360  0.16470  Biso   1.000  H
  H32      1.0000 0.68790  0.94640  0.83530  Biso   1.000  H
  H33      1.0000 0.44080  0.14080  0.19290  Biso   1.000  H
  H34      1.0000 0.55920  0.85920  0.80710  Biso   1.000  H
  C41      1.0000 0.41610  0.10800  0.32270  Biso   1.000  C
  C42      1.0000 0.58390  0.89200  0.67730  Biso   1.000  C
  H35      1.0000 0.34180  0.10200  0.34750  Biso   1.000  H
  H36      1.0000 0.65820  0.89800  0.65250  Biso   1.000  H
  H37      1.0000 0.48460  0.16930  0.36860  Biso   1.000  H
  H38      1.0000 0.51540  0.83070  0.63140  Biso   1.000  H
  C43      1.0000 0.48330  0.00770  0.33470  Biso   1.000  C
  C44      1.0000 0.51670  0.99230  0.66530  Biso   1.000  C
  H39      1.0000 0.46020  0.97240  0.38530  Biso   1.000  H
  H40      1.0000 0.53980  0.02760  0.61470  Biso   1.000  H
  H41      1.0000 0.44940  0.95960  0.26460  Biso   1.000  H
  H42      1.0000 0.55060  0.04040  0.73540  Biso   1.000  H
  C45      1.0000 0.61750  0.03940  0.37140  Biso   1.000  C
  C46      1.0000 0.38250  0.96060  0.62860  Biso   1.000  C
  H43      1.0000 0.66160  0.98090  0.38240  Biso   1.000  H
  H44      1.0000 0.33840  0.01910  0.61760  Biso   1.000  H
  H45      1.0000 0.64940  0.08890  0.43940  Biso   1.000  H
  H46      1.0000 0.35060  0.91110  0.56060  Biso   1.000  H
  H47      1.0000 0.63940  0.07150  0.31920  Biso   1.000  H
  H48      1.0000 0.36060  0.92850  0.68080  Biso   1.000  H
  C47      1.0000 0.31120  0.29850  0.23130  Biso   1.000  C
  C48      1.0000 0.68880  0.70150  0.76870  Biso   1.000  C
  H49      1.0000 0.40100  0.32800  0.27700  Biso   1.000  H
  H50      1.0000 0.59900  0.67200  0.72300  Biso   1.000  H
  C49      1.0000 0.64160  0.73340  0.02930  Biso   1.000  C
  C50      1.0000 0.35840  0.26660  0.97070  Biso   1.000  C
  H51      1.0000 0.60730  0.77640  0.97800  Biso   1.000  H
  H52      1.0000 0.39270  0.22360  0.02200  Biso   1.000  H
  H53      1.0000 0.73250  0.72590  0.03630  Biso   1.000  H
  H54      1.0000 0.26750  0.27410  0.96370  Biso   1.000  H
  H55      1.0000 0.64460  0.76510  0.09900  Biso   1.000  H
  H56      1.0000 0.35540  0.23490  0.90100  Biso   1.000  H
  C51      1.0000 0.55240  0.63280  0.99120  Biso   1.000  C
  C52      1.0000 0.44760  0.36720  0.00880  Biso   1.000  C
  H57      1.0000 0.46260  0.64870  0.97970  Biso   1.000  H
  H58      1.0000 0.53740  0.35130  0.02030  Biso   1.000  H
  H59      1.0000 0.54960  0.61000  0.91870  Biso   1.000  H
  H60      1.0000 0.45040  0.39000  0.08130  Biso   1.000  H
  C53      1.0000 0.54960  0.54920  0.02670  Biso   1.000  C
  C54      1.0000 0.45040  0.45080  0.97330  Biso   1.000  C
  H61      1.0000 0.54640  0.56860  0.09770  Biso   1.000  H
  H62      1.0000 0.45360  0.43140  0.90230  Biso   1.000  H
  H63      1.0000 0.63920  0.53180  0.04050  Biso   1.000  H
  H64      1.0000 0.36080  0.46820  0.95950  Biso   1.000  H
