data_image0
_cell_length_a       10.6483
_cell_length_b       13.2386
_cell_length_c       13.4989
_cell_angle_alpha    98.536
_cell_angle_beta     111.723
_cell_angle_gamma    97.54

_symmetry_space_group_name_H-M    "P 1"
_symmetry_int_tables_number       1

loop_
  _symmetry_equiv_pos_as_xyz
  'x, y, z'

loop_
  _atom_site_label
  _atom_site_occupancy
  _atom_site_fract_x
  _atom_site_fract_y
  _atom_site_fract_z
  _atom_site_thermal_displace_type
  _atom_site_B_iso_or_equiv
  _atom_site_type_symbol
  Cu1      1.0000 0.50000  0.50000  0.50000  Biso   1.000  Cu
  O1       1.0000 0.36280  0.37154  0.46996  Biso   1.000  O
  O2       1.0000 0.63720  0.62846  0.53004  Biso   1.000  O
  C1       1.0000 0.18960  0.25140  0.47920  Biso   1.000  C
  C2       1.0000 0.81040  0.74860  0.52080  Biso   1.000  C
  F1       1.0000 0.08000  0.24070  0.50600  Biso   1.000  F
  F2       1.0000 0.92000  0.75930  0.49400  Biso   1.000  F
  F3       1.0000 0.13900  0.21300  0.38880  Biso   1.000  F
  F4       1.0000 0.86100  0.78700  0.61120  Biso   1.000  F
  F5       1.0000 0.28000  0.19580  0.54100  Biso   1.000  F
  F6       1.0000 0.72000  0.80420  0.45900  Biso   1.000  F
  F7       1.0000 0.10300  0.24180  0.52400  Biso   1.000  F
  F8       1.0000 0.89700  0.75820  0.47600  Biso   1.000  F
  F9       1.0000 0.13450  0.20810  0.36570  Biso   1.000  F
  F10      1.0000 0.86550  0.79190  0.63430  Biso   1.000  F
  F11      1.0000 0.27040  0.19110  0.51500  Biso   1.000  F
  F12      1.0000 0.72960  0.80890  0.48500  Biso   1.000  F
  C3       1.0000 0.26670  0.36360  0.50250  Biso   1.000  C
  C4       1.0000 0.73330  0.63640  0.49750  Biso   1.000  C
  C5       1.0000 0.22560  0.44150  0.55550  Biso   1.000  C
  C6       1.0000 0.77440  0.55850  0.44450  Biso   1.000  C
  H1       1.0000 0.15320  0.42370  0.57660  Biso   1.000  H
  H2       1.0000 0.84680  0.57630  0.42340  Biso   1.000  H
  C7       1.0000 0.28840  0.54520  0.57840  Biso   1.000  C
  C8       1.0000 0.71160  0.45480  0.42160  Biso   1.000  C
  C9       1.0000 0.23710  0.62590  0.63800  Biso   1.000  C
  C10      1.0000 0.76290  0.37410  0.36200  Biso   1.000  C
  F13      1.0000 0.19840  0.69760  0.57930  Biso   1.000  F
  F14      1.0000 0.80160  0.30240  0.42070  Biso   1.000  F
  F15      1.0000 0.14600  0.59130  0.67270  Biso   1.000  F
  F16      1.0000 0.85400  0.40870  0.32730  Biso   1.000  F
  F17      1.0000 0.34180  0.68370  0.72890  Biso   1.000  F
  F18      1.0000 0.65820  0.31630  0.27110  Biso   1.000  F
  F19      1.0000 0.30100  0.63870  0.73780  Biso   1.000  F
  F20      1.0000 0.69900  0.36130  0.26220  Biso   1.000  F
  F21      1.0000 0.10610  0.59420  0.61890  Biso   1.000  F
  F22      1.0000 0.89390  0.40580  0.38110  Biso   1.000  F
  F23      1.0000 0.24000  0.71130  0.60780  Biso   1.000  F
  F24      1.0000 0.76000  0.28870  0.39220  Biso   1.000  F
  O3       1.0000 0.38490  0.58415  0.55521  Biso   1.000  O
  O4       1.0000 0.61510  0.41585  0.44479  Biso   1.000  O
  Cu2      1.0000 0.00000  0.00000  0.00000  Biso   1.000  Cu
  O5       1.0000 0.01350  0.94861  0.13364  Biso   1.000  O
  O6       1.0000 0.98650  0.05139  0.86636  Biso   1.000  O
  C11      1.0000 0.98700  0.93600  0.29600  Biso   1.000  C
  C12      1.0000 0.01300  0.06400  0.70400  Biso   1.000  C
  F25      1.0000 0.96740  0.99580  0.37320  Biso   1.000  F
  F26      1.0000 0.03260  0.00420  0.62680  Biso   1.000  F
  F27      1.0000 0.91400  0.84190  0.27860  Biso   1.000  F
  F28      1.0000 0.08600  0.15810  0.72140  Biso   1.000  F
  F29      1.0000 0.11490  0.92520  0.33480  Biso   1.000  F
  F30      1.0000 0.88510  0.07480  0.66520  Biso   1.000  F
  C13      1.0000 0.94800  0.97530  0.19010  Biso   1.000  C
  C14      1.0000 0.05200  0.02470  0.80990  Biso   1.000  C
  C15      1.0000 0.84550  0.03300  0.16680  Biso   1.000  C
  C16      1.0000 0.15450  0.96700  0.83320  Biso   1.000  C
  H3       1.0000 0.80600  0.04760  0.21700  Biso   1.000  H
  H4       1.0000 0.19400  0.95240  0.78300  Biso   1.000  H
  C17      1.0000 0.79980  0.06980  0.07200  Biso   1.000  C
  C18      1.0000 0.20020  0.93020  0.92800  Biso   1.000  C
  C19      1.0000 0.68430  0.13030  0.05080  Biso   1.000  C
  C20      1.0000 0.31570  0.86970  0.94920  Biso   1.000  C
  F31      1.0000 0.58800  0.10500  0.94850  Biso   1.000  F
  F32      1.0000 0.41200  0.89500  0.05150  Biso   1.000  F
  F33      1.0000 0.73100  0.22900  0.06500  Biso   1.000  F
  F34      1.0000 0.26900  0.77100  0.93500  Biso   1.000  F
  F35      1.0000 0.62100  0.11800  0.11910  Biso   1.000  F
  F36      1.0000 0.37900  0.88200  0.88090  Biso   1.000  F
  F37      1.0000 0.62900  0.14100  0.12300  Biso   1.000  F
  F38      1.0000 0.37100  0.85900  0.87700  Biso   1.000  F
  F39      1.0000 0.58200  0.08100  0.95800  Biso   1.000  F
  F40      1.0000 0.41800  0.91900  0.04200  Biso   1.000  F
  F41      1.0000 0.72700  0.22600  0.04300  Biso   1.000  F
  F42      1.0000 0.27300  0.77400  0.95700  Biso   1.000  F
  O7       1.0000 0.84320  0.06111  0.99694  Biso   1.000  O
  O8       1.0000 0.15680  0.93889  0.00306  Biso   1.000  O
  O9       1.0000 0.41690  0.51932  0.32620  Biso   1.000  O
  O10      1.0000 0.58310  0.48068  0.67380  Biso   1.000  O
  N1       1.0000 0.29130  0.52830  0.27250  Biso   1.000  N
  N2       1.0000 0.70870  0.47170  0.72750  Biso   1.000  N
  C21      1.0000 0.25440  0.63170  0.25510  Biso   1.000  C
  C22      1.0000 0.74560  0.36830  0.74490  Biso   1.000  C
  C23      1.0000 0.32640  0.71450  0.35970  Biso   1.000  C
  C24      1.0000 0.67360  0.28550  0.64030  Biso   1.000  C
  H5       1.0000 0.42400  0.72830  0.37790  Biso   1.000  H
  H6       1.0000 0.57600  0.27170  0.62210  Biso   1.000  H
  H7       1.0000 0.30880  0.69020  0.41780  Biso   1.000  H
  H8       1.0000 0.69120  0.30980  0.58220  Biso   1.000  H
  H9       1.0000 0.29210  0.77730  0.34960  Biso   1.000  H
  H10      1.0000 0.70790  0.22270  0.65040  Biso   1.000  H
  C25      1.0000 0.30330  0.65810  0.16710  Biso   1.000  C
  C26      1.0000 0.69670  0.34190  0.83290  Biso   1.000  C
  H11      1.0000 0.40230  0.67720  0.19750  Biso   1.000  H
  H12      1.0000 0.59770  0.32280  0.80250  Biso   1.000  H
  H13      1.0000 0.26520  0.71540  0.14050  Biso   1.000  H
  H14      1.0000 0.73480  0.28460  0.85950  Biso   1.000  H
  H15      1.0000 0.27320  0.59850  0.10790  Biso   1.000  H
  H16      1.0000 0.72680  0.40150  0.89210  Biso   1.000  H
  C27      1.0000 0.09570  0.60210  0.21480  Biso   1.000  C
  C28      1.0000 0.90430  0.39790  0.78520  Biso   1.000  C
  C29      1.0000 0.04330  0.61100  0.30560  Biso   1.000  C
  C30      1.0000 0.95670  0.38900  0.69440  Biso   1.000  C
  H17      1.0000 0.94450  0.59030  0.27460  Biso   1.000  H
  H18      1.0000 0.05550  0.40970  0.72540  Biso   1.000  H
  H19      1.0000 0.07000  0.68180  0.34590  Biso   1.000  H
  H20      1.0000 0.93000  0.31820  0.65410  Biso   1.000  H
  H21      1.0000 0.08230  0.56630  0.35370  Biso   1.000  H
  H22      1.0000 0.91770  0.43370  0.64630  Biso   1.000  H
  C31      1.0000 0.01470  0.65480  0.12600  Biso   1.000  C
  C32      1.0000 0.98530  0.34520  0.87400  Biso   1.000  C
  H23      1.0000 0.91760  0.63060  0.10520  Biso   1.000  H
  H24      1.0000 0.08240  0.36940  0.89480  Biso   1.000  H
  H25      1.0000 0.03730  0.63810  0.06370  Biso   1.000  H
  H26      1.0000 0.96270  0.36190  0.93630  Biso   1.000  H
  H27      1.0000 0.03810  0.72900  0.15290  Biso   1.000  H
  H28      1.0000 0.96190  0.27100  0.84710  Biso   1.000  H
  N3       1.0000 0.07100  0.48760  0.16830  Biso   1.000  N
  N4       1.0000 0.92900  0.51240  0.83170  Biso   1.000  N
  O11      1.0000 0.95170  0.43341  0.10780  Biso   1.000  O
  O12      1.0000 0.04830  0.56659  0.89220  Biso   1.000  O
  C33      1.0000 0.18660  0.44850  0.21110  Biso   1.000  C
  C34      1.0000 0.81340  0.55150  0.78890  Biso   1.000  C
  C35      1.0000 0.19480  0.34070  0.19070  Biso   1.000  C
  C36      1.0000 0.80520  0.65930  0.80930  Biso   1.000  C
  C37      1.0000 0.09130  0.25500  0.12310  Biso   1.000  C
  C38      1.0000 0.90870  0.74500  0.87690  Biso   1.000  C
  H29      1.0000 0.00030  0.25910  0.08370  Biso   1.000  H
  H30      1.0000 0.99970  0.74090  0.91630  Biso   1.000  H
  N5       1.0000 0.13870  0.16730  0.12220  Biso   1.000  N
  N6       1.0000 0.86130  0.83270  0.87780  Biso   1.000  N
  N7       1.0000 0.27460  0.19670  0.19110  Biso   1.000  N
  N8       1.0000 0.72540  0.80330  0.80890  Biso   1.000  N
  C39      1.0000 0.36210  0.11900  0.21330  Biso   1.000  C
  C40      1.0000 0.63790  0.88100  0.78670  Biso   1.000  C
  H31      1.0000 0.30960  0.05220  0.16580  Biso   1.000  H
  H32      1.0000 0.69040  0.94780  0.83420  Biso   1.000  H
  H33      1.0000 0.44020  0.13890  0.19470  Biso   1.000  H
  H34      1.0000 0.55980  0.86110  0.80530  Biso   1.000  H
  C41      1.0000 0.41290  0.10630  0.32400  Biso   1.000  C
  C42      1.0000 0.58710  0.89370  0.67600  Biso   1.000  C
  H35      1.0000 0.33710  0.09820  0.34750  Biso   1.000  H
  H36      1.0000 0.66290  0.90180  0.65250  Biso   1.000  H
  H37      1.0000 0.47980  0.16850  0.37070  Biso   1.000  H
  H38      1.0000 0.52020  0.83150  0.62930  Biso   1.000  H
  C43      1.0000 0.48290  0.00820  0.33660  Biso   1.000  C
  C44      1.0000 0.51710  0.99180  0.66340  Biso   1.000  C
  H39      1.0000 0.45730  0.97150  0.38560  Biso   1.000  H
  H40      1.0000 0.54270  0.02850  0.61440  Biso   1.000  H
  H41      1.0000 0.45080  0.96090  0.26620  Biso   1.000  H
  H42      1.0000 0.54920  0.03910  0.73380  Biso   1.000  H
  C45      1.0000 0.62130  0.03930  0.37680  Biso   1.000  C
  C46      1.0000 0.37870  0.96070  0.62320  Biso   1.000  C
  H43      1.0000 0.66320  0.97930  0.38050  Biso   1.000  H
  H44      1.0000 0.33680  0.02070  0.61950  Biso   1.000  H
  H45      1.0000 0.65320  0.08240  0.44870  Biso   1.000  H
  H46      1.0000 0.34680  0.91760  0.55130  Biso   1.000  H
  H47      1.0000 0.64590  0.07840  0.33000  Biso   1.000  H
  H48      1.0000 0.35410  0.92160  0.67000  Biso   1.000  H
  C47      1.0000 0.31160  0.29850  0.23240  Biso   1.000  C
  C48      1.0000 0.68840  0.70150  0.76760  Biso   1.000  C
  H49      1.0000 0.39940  0.33490  0.28020  Biso   1.000  H
  H50      1.0000 0.60060  0.66510  0.71980  Biso   1.000  H
  C49      1.0000 0.64220  0.73380  0.02650  Biso   1.000  C
  C50      1.0000 0.35780  0.26620  0.97350  Biso   1.000  C
  H51      1.0000 0.62760  0.77160  0.96910  Biso   1.000  H
  H52      1.0000 0.37240  0.22840  0.03090  Biso   1.000  H
  H53      1.0000 0.73510  0.72240  0.05240  Biso   1.000  H
  H54      1.0000 0.26490  0.27760  0.94760  Biso   1.000  H
  H55      1.0000 0.62750  0.77320  0.08550  Biso   1.000  H
  H56      1.0000 0.37250  0.22680  0.91450  Biso   1.000  H
  C51      1.0000 0.54680  0.63470  0.98530  Biso   1.000  C
  C52      1.0000 0.45320  0.36530  0.01470  Biso   1.000  C
  H57      1.0000 0.45800  0.65160  0.97660  Biso   1.000  H
  H58      1.0000 0.54200  0.34840  0.02340  Biso   1.000  H
  H59      1.0000 0.54140  0.61170  0.91190  Biso   1.000  H
  H60      1.0000 0.45860  0.38830  0.08810  Biso   1.000  H
  C53      1.0000 0.54940  0.54950  0.02580  Biso   1.000  C
  C54      1.0000 0.45060  0.45050  0.97420  Biso   1.000  C
  H61      1.0000 0.54780  0.56990  0.09730  Biso   1.000  H
  H62      1.0000 0.45220  0.43010  0.90270  Biso   1.000  H
  H63      1.0000 0.63960  0.53340  0.03840  Biso   1.000  H
  H64      1.0000 0.36040  0.46660  0.96160  Biso   1.000  H
