data_image0
_cell_length_a       10.9034
_cell_length_b       13.3763
_cell_length_c       13.6329
_cell_angle_alpha    98.641
_cell_angle_beta     112.107
_cell_angle_gamma    96.732

_symmetry_space_group_name_H-M    "P 1"
_symmetry_int_tables_number       1

loop_
  _symmetry_equiv_pos_as_xyz
  'x, y, z'

loop_
  _atom_site_label
  _atom_site_occupancy
  _atom_site_fract_x
  _atom_site_fract_y
  _atom_site_fract_z
  _atom_site_thermal_displace_type
  _atom_site_B_iso_or_equiv
  _atom_site_type_symbol
  Cu1      1.0000 0.50000  0.50000  0.50000  Biso   1.000  Cu
  O1       1.0000 0.37200  0.37198  0.47360  Biso   1.000  O
  O2       1.0000 0.62800  0.62802  0.52640  Biso   1.000  O
  C1       1.0000 0.20290  0.25370  0.48080  Biso   1.000  C
  C2       1.0000 0.79710  0.74630  0.51920  Biso   1.000  C
  F1       1.0000 0.09700  0.24810  0.49500  Biso   1.000  F
  F2       1.0000 0.90300  0.75190  0.50500  Biso   1.000  F
  F3       1.0000 0.18800  0.20320  0.39490  Biso   1.000  F
  F4       1.0000 0.81200  0.79680  0.60510  Biso   1.000  F
  F5       1.0000 0.28200  0.20800  0.55400  Biso   1.000  F
  F6       1.0000 0.71800  0.79200  0.44600  Biso   1.000  F
  F7       1.0000 0.12600  0.23850  0.53110  Biso   1.000  F
  F8       1.0000 0.87400  0.76150  0.46890  Biso   1.000  F
  F9       1.0000 0.12800  0.22270  0.37690  Biso   1.000  F
  F10      1.0000 0.87200  0.77730  0.62310  Biso   1.000  F
  F11      1.0000 0.28490  0.19090  0.50990  Biso   1.000  F
  F12      1.0000 0.71510  0.80910  0.49010  Biso   1.000  F
  C3       1.0000 0.27890  0.36440  0.50520  Biso   1.000  C
  C4       1.0000 0.72110  0.63560  0.49480  Biso   1.000  C
  C5       1.0000 0.23830  0.44150  0.55660  Biso   1.000  C
  C6       1.0000 0.76170  0.55850  0.44340  Biso   1.000  C
  H1       1.0000 0.16770  0.42400  0.57710  Biso   1.000  H
  H2       1.0000 0.83230  0.57600  0.42290  Biso   1.000  H
  C7       1.0000 0.29670  0.54300  0.57930  Biso   1.000  C
  C8       1.0000 0.70330  0.45700  0.42070  Biso   1.000  C
  C9       1.0000 0.24550  0.62290  0.63810  Biso   1.000  C
  C10      1.0000 0.75450  0.37710  0.36190  Biso   1.000  C
  F13      1.0000 0.20800  0.69280  0.58260  Biso   1.000  F
  F14      1.0000 0.79200  0.30720  0.41740  Biso   1.000  F
  F15      1.0000 0.16600  0.59000  0.67800  Biso   1.000  F
  F16      1.0000 0.83400  0.41000  0.32200  Biso   1.000  F
  F17      1.0000 0.35310  0.67780  0.72820  Biso   1.000  F
  F18      1.0000 0.64690  0.32220  0.27180  Biso   1.000  F
  F19      1.0000 0.28900  0.62240  0.73680  Biso   1.000  F
  F20      1.0000 0.71100  0.37760  0.26320  Biso   1.000  F
  F21      1.0000 0.11110  0.59690  0.60390  Biso   1.000  F
  F22      1.0000 0.88890  0.40310  0.39610  Biso   1.000  F
  F23      1.0000 0.26300  0.70940  0.62200  Biso   1.000  F
  F24      1.0000 0.73700  0.29060  0.37800  Biso   1.000  F
  O3       1.0000 0.39080  0.58097  0.55680  Biso   1.000  O
  O4       1.0000 0.60920  0.41903  0.44320  Biso   1.000  O
  Cu2      1.0000 0.00000  0.00000  0.00000  Biso   1.000  Cu
  O5       1.0000 0.01920  0.95254  0.13440  Biso   1.000  O
  O6       1.0000 0.98080  0.04746  0.86560  Biso   1.000  O
  C11      1.0000 0.99950  0.94280  0.29720  Biso   1.000  C
  C12      1.0000 0.00050  0.05720  0.70280  Biso   1.000  C
  F25      1.0000 0.98140  0.99800  0.37270  Biso   1.000  F
  F26      1.0000 0.01860  0.00200  0.62730  Biso   1.000  F
  F27      1.0000 0.94240  0.85060  0.28410  Biso   1.000  F
  F28      1.0000 0.05760  0.14940  0.71590  Biso   1.000  F
  F29      1.0000 0.12430  0.93520  0.33560  Biso   1.000  F
  F30      1.0000 0.87570  0.06480  0.66440  Biso   1.000  F
  C13      1.0000 0.95820  0.97990  0.19150  Biso   1.000  C
  C14      1.0000 0.04180  0.02010  0.80850  Biso   1.000  C
  C15      1.0000 0.85920  0.03820  0.17010  Biso   1.000  C
  C16      1.0000 0.14080  0.96180  0.82990  Biso   1.000  C
  H3       1.0000 0.82410  0.05460  0.22170  Biso   1.000  H
  H4       1.0000 0.17590  0.94540  0.77830  Biso   1.000  H
  C17      1.0000 0.80970  0.07360  0.07510  Biso   1.000  C
  C18      1.0000 0.19030  0.92640  0.92490  Biso   1.000  C
  C19      1.0000 0.69640  0.13460  0.05610  Biso   1.000  C
  C20      1.0000 0.30360  0.86540  0.94390  Biso   1.000  C
  F31      1.0000 0.61000  0.11750  0.95380  Biso   1.000  F
  F32      1.0000 0.39000  0.88250  0.04620  Biso   1.000  F
  F33      1.0000 0.74300  0.23210  0.08100  Biso   1.000  F
  F34      1.0000 0.25700  0.76790  0.91900  Biso   1.000  F
  F35      1.0000 0.62630  0.12260  0.11080  Biso   1.000  F
  F36      1.0000 0.37370  0.87740  0.88920  Biso   1.000  F
  F37      1.0000 0.66900  0.15590  0.13960  Biso   1.000  F
  F38      1.0000 0.33100  0.84410  0.86040  Biso   1.000  F
  F39      1.0000 0.59000  0.07890  0.98300  Biso   1.000  F
  F40      1.0000 0.41000  0.92110  0.01700  Biso   1.000  F
  F41      1.0000 0.72500  0.21750  0.02920  Biso   1.000  F
  F42      1.0000 0.27500  0.78250  0.97080  Biso   1.000  F
  O7       1.0000 0.84920  0.06398  0.99980  Biso   1.000  O
  O8       1.0000 0.15080  0.93602  0.00020  Biso   1.000  O
  O9       1.0000 0.40580  0.51714  0.32200  Biso   1.000  O
  O10      1.0000 0.59420  0.48286  0.67800  Biso   1.000  O
  N1       1.0000 0.28170  0.52470  0.26920  Biso   1.000  N
  N2       1.0000 0.71830  0.47530  0.73080  Biso   1.000  N
  C21      1.0000 0.24220  0.62640  0.25320  Biso   1.000  C
  C22      1.0000 0.75780  0.37360  0.74680  Biso   1.000  C
  C23      1.0000 0.31160  0.70710  0.35720  Biso   1.000  C
  C24      1.0000 0.68840  0.29290  0.64280  Biso   1.000  C
  H5       1.0000 0.40680  0.72100  0.37520  Biso   1.000  H
  H6       1.0000 0.59320  0.27900  0.62480  Biso   1.000  H
  H7       1.0000 0.29540  0.68220  0.41450  Biso   1.000  H
  H8       1.0000 0.70460  0.31780  0.58550  Biso   1.000  H
  H9       1.0000 0.27660  0.76920  0.34770  Biso   1.000  H
  H10      1.0000 0.72340  0.23080  0.65230  Biso   1.000  H
  C25      1.0000 0.28760  0.65460  0.16600  Biso   1.000  C
  C26      1.0000 0.71240  0.34540  0.83400  Biso   1.000  C
  H11      1.0000 0.38410  0.67320  0.19570  Biso   1.000  H
  H12      1.0000 0.61590  0.32680  0.80430  Biso   1.000  H
  H13      1.0000 0.24900  0.71170  0.14110  Biso   1.000  H
  H14      1.0000 0.75100  0.28830  0.85890  Biso   1.000  H
  H15      1.0000 0.25800  0.59660  0.10630  Biso   1.000  H
  H16      1.0000 0.74200  0.40340  0.89370  Biso   1.000  H
  C27      1.0000 0.08750  0.59520  0.21270  Biso   1.000  C
  C28      1.0000 0.91250  0.40480  0.78730  Biso   1.000  C
  C29      1.0000 0.03620  0.60240  0.30330  Biso   1.000  C
  C30      1.0000 0.96380  0.39760  0.69670  Biso   1.000  C
  H17      1.0000 0.93980  0.58200  0.27230  Biso   1.000  H
  H18      1.0000 0.06020  0.41800  0.72770  Biso   1.000  H
  H19      1.0000 0.06120  0.67200  0.34400  Biso   1.000  H
  H20      1.0000 0.93880  0.32800  0.65600  Biso   1.000  H
  H21      1.0000 0.07540  0.55770  0.35040  Biso   1.000  H
  H22      1.0000 0.92460  0.44230  0.64960  Biso   1.000  H
  C31      1.0000 0.00400  0.64590  0.12440  Biso   1.000  C
  C32      1.0000 0.99600  0.35410  0.87560  Biso   1.000  C
  H23      1.0000 0.90990  0.62150  0.10520  Biso   1.000  H
  H24      1.0000 0.09010  0.37850  0.89480  Biso   1.000  H
  H25      1.0000 0.02420  0.62920  0.06180  Biso   1.000  H
  H26      1.0000 0.97580  0.37080  0.93820  Biso   1.000  H
  H27      1.0000 0.02500  0.71930  0.15020  Biso   1.000  H
  H28      1.0000 0.97500  0.28070  0.84980  Biso   1.000  H
  N3       1.0000 0.06670  0.48250  0.16670  Biso   1.000  N
  N4       1.0000 0.93330  0.51750  0.83330  Biso   1.000  N
  O11      1.0000 0.95150  0.42830  0.10770  Biso   1.000  O
  O12      1.0000 0.04850  0.57170  0.89230  Biso   1.000  O
  C33      1.0000 0.18210  0.44590  0.20880  Biso   1.000  C
  C34      1.0000 0.81790  0.55410  0.79120  Biso   1.000  C
  C35      1.0000 0.19350  0.33940  0.18760  Biso   1.000  C
  C36      1.0000 0.80650  0.66060  0.81240  Biso   1.000  C
  C37      1.0000 0.09380  0.25480  0.12050  Biso   1.000  C
  C38      1.0000 0.90620  0.74520  0.87950  Biso   1.000  C
  H29      1.0000 0.00410  0.25830  0.08250  Biso   1.000  H
  H30      1.0000 0.99590  0.74170  0.91750  Biso   1.000  H
  N5       1.0000 0.14260  0.16910  0.11770  Biso   1.000  N
  N6       1.0000 0.85740  0.83090  0.88230  Biso   1.000  N
  N7       1.0000 0.27510  0.19820  0.18490  Biso   1.000  N
  N8       1.0000 0.72490  0.80180  0.81510  Biso   1.000  N
  C39      1.0000 0.36470  0.12320  0.20350  Biso   1.000  C
  C40      1.0000 0.63530  0.87680  0.79650  Biso   1.000  C
  H31      1.0000 0.31480  0.05720  0.15640  Biso   1.000  H
  H32      1.0000 0.68520  0.94280  0.84360  Biso   1.000  H
  H33      1.0000 0.43800  0.14490  0.18300  Biso   1.000  H
  H34      1.0000 0.56200  0.85510  0.81700  Biso   1.000  H
  C41      1.0000 0.42010  0.10970  0.31190  Biso   1.000  C
  C42      1.0000 0.57990  0.89030  0.68810  Biso   1.000  C
  H35      1.0000 0.34870  0.10140  0.33780  Biso   1.000  H
  H36      1.0000 0.65130  0.89860  0.66220  Biso   1.000  H
  H37      1.0000 0.48520  0.17110  0.35720  Biso   1.000  H
  H38      1.0000 0.51480  0.82890  0.64280  Biso   1.000  H
  C43      1.0000 0.49310  0.01090  0.32370  Biso   1.000  C
  C44      1.0000 0.50690  0.98910  0.67630  Biso   1.000  C
  H39      1.0000 0.45850  0.96670  0.36140  Biso   1.000  H
  H40      1.0000 0.54150  0.03330  0.63860  Biso   1.000  H
  H41      1.0000 0.47690  0.97130  0.25290  Biso   1.000  H
  H42      1.0000 0.52310  0.02870  0.74710  Biso   1.000  H
  C45      1.0000 0.61720  0.04510  0.37690  Biso   1.000  C
  C46      1.0000 0.38280  0.95490  0.62310  Biso   1.000  C
  H43      1.0000 0.66430  0.98860  0.38650  Biso   1.000  H
  H44      1.0000 0.33570  0.01140  0.61350  Biso   1.000  H
  H45      1.0000 0.63160  0.08470  0.44650  Biso   1.000  H
  H46      1.0000 0.36840  0.91530  0.55350  Biso   1.000  H
  H47      1.0000 0.65020  0.08810  0.33840  Biso   1.000  H
  H48      1.0000 0.34980  0.91190  0.66160  Biso   1.000  H
  C47      1.0000 0.30900  0.29850  0.22740  Biso   1.000  C
  C48      1.0000 0.69100  0.70150  0.77260  Biso   1.000  C
  H49      1.0000 0.39430  0.33450  0.27500  Biso   1.000  H
  H50      1.0000 0.60570  0.66550  0.72500  Biso   1.000  H
  C49      1.0000 0.63460  0.71850  0.04950  Biso   1.000  C
  C50      1.0000 0.36540  0.28150  0.95050  Biso   1.000  C
  H51      1.0000 0.62140  0.75850  0.99480  Biso   1.000  H
  H52      1.0000 0.37860  0.24150  0.00520  Biso   1.000  H
  H53      1.0000 0.72940  0.72120  0.08810  Biso   1.000  H
  H54      1.0000 0.27060  0.27880  0.91190  Biso   1.000  H
  H55      1.0000 0.59750  0.74590  0.09900  Biso   1.000  H
  H56      1.0000 0.40250  0.25410  0.90100  Biso   1.000  H
  C51      1.0000 0.56400  0.60630  0.99600  Biso   1.000  C
  C52      1.0000 0.43600  0.39370  0.00400  Biso   1.000  C
  H57      1.0000 0.47290  0.60880  0.94780  Biso   1.000  H
  H58      1.0000 0.52710  0.39120  0.05220  Biso   1.000  H
  H59      1.0000 0.60830  0.58110  0.95020  Biso   1.000  H
  H60      1.0000 0.39170  0.41890  0.04980  Biso   1.000  H
  C53      1.0000 0.55100  0.52610  0.05600  Biso   1.000  C
  C54      1.0000 0.44900  0.47390  0.94400  Biso   1.000  C
  H61      1.0000 0.51470  0.54340  0.10970  Biso   1.000  H
  H62      1.0000 0.48530  0.45660  0.89030  Biso   1.000  H
  H63      1.0000 0.62980  0.49450  0.08320  Biso   1.000  H
  H64      1.0000 0.37020  0.50550  0.91680  Biso   1.000  H
