data_image0
_cell_length_a       21.198
_cell_length_b       13.1253
_cell_length_c       13.4024
_cell_angle_alpha    98.343
_cell_angle_beta     111.473
_cell_angle_gamma    97.473

_symmetry_space_group_name_H-M    "P 1"
_symmetry_int_tables_number       1

loop_
  _symmetry_equiv_pos_as_xyz
  'x, y, z'

loop_
  _atom_site_label
  _atom_site_occupancy
  _atom_site_fract_x
  _atom_site_fract_y
  _atom_site_fract_z
  _atom_site_thermal_displace_type
  _atom_site_B_iso_or_equiv
  _atom_site_type_symbol
  Cu1      1.0000 0.50000  0.50000  0.00000  Biso   1.000  Cu
  O1       1.0000 0.43169  0.37053  0.96386  Biso   1.000  O
  O2       1.0000 0.56831  0.62947  0.03614  Biso   1.000  O
  C1       1.0000 0.33777  0.25100  0.95620  Biso   1.000  C
  C2       1.0000 0.66223  0.74900  0.04380  Biso   1.000  C
  F1       1.0000 0.37737  0.19107  0.01060  Biso   1.000  F
  F2       1.0000 0.62263  0.80893  0.98940  Biso   1.000  F
  F3       1.0000 0.31611  0.21042  0.85171  Biso   1.000  F
  F4       1.0000 0.68389  0.78958  0.14829  Biso   1.000  F
  F5       1.0000 0.28348  0.24208  0.98228  Biso   1.000  F
  F6       1.0000 0.71652  0.75792  0.01772  Biso   1.000  F
  C3       1.0000 0.37835  0.36350  0.98450  Biso   1.000  C
  C4       1.0000 0.62165  0.63650  0.01550  Biso   1.000  C
  C5       1.0000 0.35398  0.44340  0.02970  Biso   1.000  C
  C6       1.0000 0.64602  0.55660  0.97030  Biso   1.000  C
  H1       1.0000 0.31330  0.42680  0.04060  Biso   1.000  H
  H2       1.0000 0.68670  0.57320  0.95940  Biso   1.000  H
  C7       1.0000 0.38839  0.54710  0.05910  Biso   1.000  C
  C8       1.0000 0.61161  0.45290  0.94090  Biso   1.000  C
  C9       1.0000 0.35995  0.62920  0.11410  Biso   1.000  C
  C10      1.0000 0.64005  0.37080  0.88590  Biso   1.000  C
  F7       1.0000 0.35753  0.71355  0.07033  Biso   1.000  F
  F8       1.0000 0.64247  0.28645  0.92967  Biso   1.000  F
  F9       1.0000 0.29650  0.59506  0.10590  Biso   1.000  F
  F10      1.0000 0.70350  0.40494  0.89410  Biso   1.000  F
  F11      1.0000 0.40023  0.66070  0.21854  Biso   1.000  F
  F12      1.0000 0.59977  0.33930  0.78146  Biso   1.000  F
  O3       1.0000 0.44230  0.58462  0.04781  Biso   1.000  O
  O4       1.0000 0.55770  0.41538  0.95219  Biso   1.000  O
  Cu2      1.0000 0.75513  0.99291  0.52294  Biso   1.000  Cu
  Cu3      1.0000 0.24487  0.00709  0.47706  Biso   1.000  Cu
  O5       1.0000 0.67594  0.05448  0.51839  Biso   1.000  O
  O6       1.0000 0.32406  0.94552  0.48161  Biso   1.000  O
  C11      1.0000 0.59564  0.12600  0.57040  Biso   1.000  C
  C12      1.0000 0.40436  0.87400  0.42960  Biso   1.000  C
  F13      1.0000 0.54600  0.08807  0.47074  Biso   1.000  F
  F14      1.0000 0.45400  0.91193  0.52926  Biso   1.000  F
  F15      1.0000 0.56526  0.12699  0.64140  Biso   1.000  F
  F16      1.0000 0.43474  0.87301  0.35860  Biso   1.000  F
  F17      1.0000 0.62033  0.22488  0.57387  Biso   1.000  F
  F18      1.0000 0.37967  0.77512  0.42613  Biso   1.000  F
  C13      1.0000 0.65278  0.06300  0.59270  Biso   1.000  C
  C14      1.0000 0.34722  0.93700  0.40730  Biso   1.000  C
  C15      1.0000 0.67452  0.02530  0.68860  Biso   1.000  C
  C16      1.0000 0.32548  0.97470  0.31140  Biso   1.000  C
  H3       1.0000 0.65410  0.03970  0.73840  Biso   1.000  H
  H4       1.0000 0.34590  0.96030  0.26160  Biso   1.000  H
  C17      1.0000 0.72622  0.96620  0.71190  Biso   1.000  C
  C18      1.0000 0.27378  0.03380  0.28810  Biso   1.000  C
  C19      1.0000 0.74330  0.92470  0.81860  Biso   1.000  C
  C20      1.0000 0.25670  0.07530  0.18140  Biso   1.000  C
  F19      1.0000 0.73487  0.98770  0.89644  Biso   1.000  F
  F20      1.0000 0.26513  0.01230  0.10356  Biso   1.000  F
  F21      1.0000 0.70211  0.83176  0.79874  Biso   1.000  F
  F22      1.0000 0.29789  0.16824  0.20126  Biso   1.000  F
  F23      1.0000 0.80704  0.90860  0.85660  Biso   1.000  F
  F24      1.0000 0.19296  0.09140  0.14340  Biso   1.000  F
  O7       1.0000 0.75974  0.93958  0.65637  Biso   1.000  O
  O8       1.0000 0.24026  0.06042  0.34363  Biso   1.000  O
  O9       1.0000 0.74733  0.04580  0.38885  Biso   1.000  O
  O10      1.0000 0.25267  0.95420  0.61115  Biso   1.000  O
  C21      1.0000 0.75402  0.05260  0.21920  Biso   1.000  C
  C22      1.0000 0.24598  0.94740  0.78080  Biso   1.000  C
  F25      1.0000 0.68704  0.05219  0.18050  Biso   1.000  F
  F26      1.0000 0.31296  0.94781  0.81950  Biso   1.000  F
  F27      1.0000 0.78623  0.15112  0.23363  Biso   1.000  F
  F28      1.0000 0.21377  0.84888  0.76637  Biso   1.000  F
  F29      1.0000 0.76701  0.99423  0.14292  Biso   1.000  F
  F30      1.0000 0.23299  0.00577  0.85708  Biso   1.000  F
  C23      1.0000 0.77765  0.01590  0.32830  Biso   1.000  C
  C24      1.0000 0.22235  0.98410  0.67170  Biso   1.000  C
  C25      1.0000 0.82939  0.95740  0.35010  Biso   1.000  C
  C26      1.0000 0.17061  0.04260  0.64990  Biso   1.000  C
  H5       1.0000 0.84780  0.94140  0.29790  Biso   1.000  H
  H6       1.0000 0.15220  0.05860  0.70210  Biso   1.000  H
  C27      1.0000 0.85438  0.92220  0.44680  Biso   1.000  C
  C28      1.0000 0.14562  0.07780  0.55320  Biso   1.000  C
  C29      1.0000 0.91347  0.86230  0.46700  Biso   1.000  C
  C30      1.0000 0.08653  0.13770  0.53300  Biso   1.000  C
  F31      1.0000 0.89160  0.76265  0.46140  Biso   1.000  F
  F32      1.0000 0.10840  0.23735  0.53860  Biso   1.000  F
  F33      1.0000 0.94237  0.86619  0.39462  Biso   1.000  F
  F34      1.0000 0.05763  0.13381  0.60538  Biso   1.000  F
  F35      1.0000 0.96286  0.89975  0.56489  Biso   1.000  F
  F36      1.0000 0.03714  0.10025  0.43511  Biso   1.000  F
  O11      1.0000 0.83404  0.93128  0.52478  Biso   1.000  O
  O12      1.0000 0.16596  0.06872  0.47522  Biso   1.000  O
  Cu4      1.0000 0.00000  0.50000  0.00000  Biso   1.000  Cu
  O13      1.0000 0.07358  0.62811  0.02755  Biso   1.000  O
  O14      1.0000 0.92642  0.37189  0.97245  Biso   1.000  O
  C31      1.0000 0.15018  0.75350  0.00050  Biso   1.000  C
  C32      1.0000 0.84982  0.24650  0.99950  Biso   1.000  C
  F37      1.0000 0.19972  0.76672  0.96290  Biso   1.000  F
  F38      1.0000 0.80028  0.23328  0.03710  Biso   1.000  F
  F39      1.0000 0.17837  0.79810  0.10630  Biso   1.000  F
  F40      1.0000 0.82163  0.20190  0.89370  Biso   1.000  F
  F41      1.0000 0.10394  0.80857  0.95360  Biso   1.000  F
  F42      1.0000 0.89606  0.19143  0.04640  Biso   1.000  F
  C33      1.0000 0.11593  0.63980  0.98250  Biso   1.000  C
  C34      1.0000 0.88407  0.36020  0.01750  Biso   1.000  C
  C35      1.0000 0.13284  0.56420  0.91960  Biso   1.000  C
  C36      1.0000 0.86716  0.43580  0.08040  Biso   1.000  C
  H7       1.0000 0.16400  0.58560  0.88910  Biso   1.000  H
  H8       1.0000 0.83600  0.41440  0.11090  Biso   1.000  H
  C37      1.0000 0.10540  0.45680  0.89920  Biso   1.000  C
  C38      1.0000 0.89460  0.54320  0.10080  Biso   1.000  C
  C39      1.0000 0.12544  0.38280  0.82360  Biso   1.000  C
  C40      1.0000 0.87456  0.61720  0.17640  Biso   1.000  C
  F43      1.0000 0.13080  0.28950  0.85730  Biso   1.000  F
  F44      1.0000 0.86920  0.71050  0.14270  Biso   1.000  F
  F45      1.0000 0.18920  0.41580  0.82840  Biso   1.000  F
  F46      1.0000 0.81080  0.58420  0.17160  Biso   1.000  F
  F47      1.0000 0.08020  0.36540  0.72420  Biso   1.000  F
  F48      1.0000 0.91980  0.63460  0.27580  Biso   1.000  F
  F49      1.0000 0.15660  0.42570  0.76850  Biso   1.000  F
  F50      1.0000 0.84340  0.57430  0.23150  Biso   1.000  F
  F51      1.0000 0.16000  0.31960  0.87220  Biso   1.000  F
  F52      1.0000 0.84000  0.68040  0.12780  Biso   1.000  F
  F53      1.0000 0.07360  0.31920  0.74810  Biso   1.000  F
  F54      1.0000 0.92640  0.68080  0.25190  Biso   1.000  F
  O15      1.0000 0.06532  0.41302  0.93524  Biso   1.000  O
  O16      1.0000 0.93468  0.58698  0.06476  Biso   1.000  O
  O17      1.0000 0.53675  0.48112  0.18252  Biso   1.000  O
  O18      1.0000 0.46325  0.51888  0.81748  Biso   1.000  O
  N1       1.0000 0.59766  0.46592  0.23894  Biso   1.000  N
  N2       1.0000 0.40234  0.53408  0.76106  Biso   1.000  N
  C41      1.0000 0.61083  0.35860  0.25530  Biso   1.000  C
  C42      1.0000 0.38917  0.64140  0.74470  Biso   1.000  C
  C43      1.0000 0.58187  0.33260  0.33980  Biso   1.000  C
  C44      1.0000 0.41813  0.66740  0.66020  Biso   1.000  C
  H9       1.0000 0.53230  0.31960  0.30700  Biso   1.000  H
  H10      1.0000 0.46770  0.68040  0.69300  Biso   1.000  H
  H11      1.0000 0.59840  0.39080  0.40130  Biso   1.000  H
  H12      1.0000 0.40160  0.60920  0.59870  Biso   1.000  H
  H13      1.0000 0.59680  0.27130  0.36410  Biso   1.000  H
  H14      1.0000 0.40320  0.72870  0.63590  Biso   1.000  H
  C45      1.0000 0.57485  0.27830  0.14900  Biso   1.000  C
  C46      1.0000 0.42515  0.72170  0.85100  Biso   1.000  C
  H15      1.0000 0.52570  0.26930  0.12750  Biso   1.000  H
  H16      1.0000 0.47430  0.73070  0.87250  Biso   1.000  H
  H17      1.0000 0.58870  0.21250  0.15900  Biso   1.000  H
  H18      1.0000 0.41130  0.78750  0.84100  Biso   1.000  H
  H19      1.0000 0.58730  0.30210  0.09300  Biso   1.000  H
  H20      1.0000 0.41270  0.69790  0.90700  Biso   1.000  H
  C47      1.0000 0.69082  0.38100  0.30020  Biso   1.000  C
  C48      1.0000 0.30918  0.61900  0.69980  Biso   1.000  C
  C49      1.0000 0.71995  0.37140  0.21110  Biso   1.000  C
  C50      1.0000 0.28005  0.62860  0.78890  Biso   1.000  C
  H21      1.0000 0.76960  0.38630  0.24470  Biso   1.000  H
  H22      1.0000 0.23040  0.61370  0.75530  Biso   1.000  H
  H23      1.0000 0.70450  0.42040  0.16530  Biso   1.000  H
  H24      1.0000 0.29550  0.57960  0.83470  Biso   1.000  H
  H25      1.0000 0.70400  0.30120  0.16750  Biso   1.000  H
  H26      1.0000 0.29600  0.69880  0.83250  Biso   1.000  H
  C51      1.0000 0.72521  0.32100  0.38690  Biso   1.000  C
  C52      1.0000 0.27479  0.67900  0.61310  Biso   1.000  C
  H27      1.0000 0.77450  0.33940  0.41010  Biso   1.000  H
  H28      1.0000 0.22550  0.66060  0.58990  Biso   1.000  H
  H29      1.0000 0.70990  0.24690  0.35690  Biso   1.000  H
  H30      1.0000 0.29010  0.75310  0.64310  Biso   1.000  H
  H31      1.0000 0.71300  0.33870  0.44860  Biso   1.000  H
  H32      1.0000 0.28700  0.66130  0.55140  Biso   1.000  H
  N3       1.0000 0.70661  0.49617  0.34945  Biso   1.000  N
  N4       1.0000 0.29339  0.50383  0.65055  Biso   1.000  N
  O19      1.0000 0.76754  0.54525  0.41378  Biso   1.000  O
  O20      1.0000 0.23246  0.45475  0.58622  Biso   1.000  O
  C53      1.0000 0.65186  0.54170  0.30430  Biso   1.000  C
  C54      1.0000 0.34814  0.45830  0.69570  Biso   1.000  C
  C55      1.0000 0.65212  0.65220  0.32490  Biso   1.000  C
  C56      1.0000 0.34788  0.34780  0.67510  Biso   1.000  C
  C57      1.0000 0.59722  0.70210  0.28030  Biso   1.000  C
  C58      1.0000 0.40278  0.29790  0.71970  Biso   1.000  C
  H33      1.0000 0.55300  0.66980  0.23010  Biso   1.000  H
  H34      1.0000 0.44700  0.33020  0.76990  Biso   1.000  H
  N5       1.0000 0.61968  0.80436  0.32262  Biso   1.000  N
  N6       1.0000 0.38032  0.19564  0.67738  Biso   1.000  N
  C59      1.0000 0.58257  0.89110  0.30330  Biso   1.000  C
  C60      1.0000 0.41743  0.10890  0.69670  Biso   1.000  C
  H35      1.0000 0.61580  0.95490  0.31650  Biso   1.000  H
  H36      1.0000 0.38420  0.04510  0.68350  Biso   1.000  H
  H37      1.0000 0.56140  0.90150  0.35610  Biso   1.000  H
  H38      1.0000 0.43860  0.09850  0.64390  Biso   1.000  H
  C61      1.0000 0.52780  0.87510  0.19080  Biso   1.000  C
  C62      1.0000 0.47220  0.12490  0.80920  Biso   1.000  C
  H39      1.0000 0.49210  0.81490  0.17870  Biso   1.000  H
  H40      1.0000 0.50790  0.18510  0.82130  Biso   1.000  H
  H41      1.0000 0.54770  0.86090  0.13690  Biso   1.000  H
  H42      1.0000 0.45230  0.13910  0.86310  Biso   1.000  H
  C63      1.0000 0.49584  0.97240  0.17670  Biso   1.000  C
  C64      1.0000 0.50416  0.02760  0.82330  Biso   1.000  C
  H43      1.0000 0.48090  0.99040  0.23610  Biso   1.000  H
  H44      1.0000 0.51910  0.00960  0.76390  Biso   1.000  H
  H45      1.0000 0.53120  0.03060  0.18260  Biso   1.000  H
  H46      1.0000 0.46880  0.96940  0.81740  Biso   1.000  H
  C65      1.0000 0.43540  0.95960  0.06990  Biso   1.000  C
  C66      1.0000 0.56460  0.04040  0.93010  Biso   1.000  C
  H47      1.0000 0.41820  0.02370  0.06690  Biso   1.000  H
  H48      1.0000 0.58180  0.97630  0.93310  Biso   1.000  H
  H49      1.0000 0.39950  0.90350  0.06400  Biso   1.000  H
  H50      1.0000 0.60050  0.09650  0.93600  Biso   1.000  H
  H51      1.0000 0.44990  0.94350  0.01030  Biso   1.000  H
  H52      1.0000 0.55010  0.05650  0.98970  Biso   1.000  H
  N7       1.0000 0.68699  0.82655  0.39606  Biso   1.000  N
  N8       1.0000 0.31301  0.17345  0.60394  Biso   1.000  N
  C67      1.0000 0.70640  0.73460  0.39620  Biso   1.000  C
  C68      1.0000 0.29360  0.26540  0.60380  Biso   1.000  C
  H53      1.0000 0.75040  0.72560  0.43810  Biso   1.000  H
  H54      1.0000 0.24960  0.27440  0.56190  Biso   1.000  H
  O21      1.0000 0.96112  0.51661  0.84483  Biso   1.000  O
  O22      1.0000 0.03888  0.48339  0.15517  Biso   1.000  O
  N9       1.0000 0.89644  0.52424  0.79360  Biso   1.000  N
  N10      1.0000 0.10356  0.47576  0.20640  Biso   1.000  N
  C69      1.0000 0.87688  0.62770  0.77280  Biso   1.000  C
  C70      1.0000 0.12312  0.37230  0.22720  Biso   1.000  C
  C71      1.0000 0.89874  0.65160  0.68040  Biso   1.000  C
  C72      1.0000 0.10126  0.34840  0.31960  Biso   1.000  C
  H55      1.0000 0.94830  0.67010  0.70790  Biso   1.000  H
  H56      1.0000 0.05170  0.32990  0.29210  Biso   1.000  H
  H57      1.0000 0.87920  0.70910  0.65350  Biso   1.000  H
  H58      1.0000 0.12080  0.29090  0.34650  Biso   1.000  H
  H59      1.0000 0.88240  0.59070  0.62190  Biso   1.000  H
  H60      1.0000 0.11760  0.40930  0.37810  Biso   1.000  H
  C73      1.0000 0.91377  0.71410  0.87500  Biso   1.000  C
  C74      1.0000 0.08623  0.28590  0.12500  Biso   1.000  C
  H61      1.0000 0.96240  0.72800  0.89090  Biso   1.000  H
  H62      1.0000 0.03760  0.27200  0.10910  Biso   1.000  H
  H63      1.0000 0.90630  0.69200  0.93580  Biso   1.000  H
  H64      1.0000 0.09370  0.30800  0.06420  Biso   1.000  H
  H65      1.0000 0.89580  0.77670  0.86300  Biso   1.000  H
  H66      1.0000 0.10420  0.22330  0.13700  Biso   1.000  H
  C75      1.0000 0.79751  0.59660  0.73710  Biso   1.000  C
  C76      1.0000 0.20249  0.40340  0.26290  Biso   1.000  C
  C77      1.0000 0.77381  0.60680  0.83200  Biso   1.000  C
  C78      1.0000 0.22619  0.39320  0.16800  Biso   1.000  C
  H67      1.0000 0.72430  0.58640  0.80390  Biso   1.000  H
  H68      1.0000 0.27570  0.41360  0.19610  Biso   1.000  H
  H69      1.0000 0.78780  0.67830  0.87180  Biso   1.000  H
  H70      1.0000 0.21220  0.32170  0.12820  Biso   1.000  H
  H71      1.0000 0.79430  0.56200  0.88010  Biso   1.000  H
  H72      1.0000 0.20570  0.43800  0.11990  Biso   1.000  H
  C79      1.0000 0.75503  0.64800  0.64740  Biso   1.000  C
  C80      1.0000 0.24497  0.35200  0.35260  Biso   1.000  C
  H73      1.0000 0.70670  0.62480  0.63040  Biso   1.000  H
  H74      1.0000 0.29330  0.37520  0.36960  Biso   1.000  H
  H75      1.0000 0.76430  0.62880  0.58290  Biso   1.000  H
  H76      1.0000 0.23570  0.37120  0.41710  Biso   1.000  H
  H77      1.0000 0.76730  0.72300  0.67220  Biso   1.000  H
  H78      1.0000 0.23270  0.27700  0.32780  Biso   1.000  H
  N11      1.0000 0.78628  0.48078  0.69311  Biso   1.000  N
  N12      1.0000 0.21372  0.51922  0.30689  Biso   1.000  N
  O23      1.0000 0.72663  0.42561  0.63331  Biso   1.000  O
  O24      1.0000 0.27337  0.57439  0.36669  Biso   1.000  O
  C81      1.0000 0.84497  0.44280  0.73380  Biso   1.000  C
  C82      1.0000 0.15503  0.55720  0.26620  Biso   1.000  C
  C83      1.0000 0.85062  0.33490  0.71220  Biso   1.000  C
  C84      1.0000 0.14938  0.66510  0.28780  Biso   1.000  C
  C85      1.0000 0.91062  0.29460  0.74900  Biso   1.000  C
  C86      1.0000 0.08938  0.70540  0.25100  Biso   1.000  C
  H79      1.0000 0.95470  0.33240  0.79420  Biso   1.000  H
  H80      1.0000 0.04530  0.66760  0.20580  Biso   1.000  H
  N13      1.0000 0.89316  0.19225  0.70762  Biso   1.000  N
  N14      1.0000 0.10684  0.80775  0.29238  Biso   1.000  N
  C87      1.0000 0.93978  0.11690  0.72740  Biso   1.000  C
  C88      1.0000 0.06022  0.88310  0.27260  Biso   1.000  C
  H81      1.0000 0.98470  0.15050  0.73220  Biso   1.000  H
  H82      1.0000 0.01530  0.84950  0.26780  Biso   1.000  H
  H83      1.0000 0.92150  0.05770  0.66560  Biso   1.000  H
  H84      1.0000 0.07850  0.94230  0.33440  Biso   1.000  H
  C89      1.0000 0.94860  0.07800  0.82850  Biso   1.000  C
  C90      1.0000 0.05140  0.92200  0.17150  Biso   1.000  C
  H85      1.0000 0.90360  0.04630  0.82470  Biso   1.000  H
  H86      1.0000 0.09640  0.95370  0.17530  Biso   1.000  H
  H87      1.0000 0.96830  0.13690  0.89070  Biso   1.000  H
  H88      1.0000 0.03170  0.86310  0.10930  Biso   1.000  H
  C91      1.0000 0.99580  0.99660  0.84660  Biso   1.000  C
  C92      1.0000 0.00420  0.00340  0.15340  Biso   1.000  C
  H89      1.0000 0.99490  0.96730  0.90860  Biso   1.000  H
  H90      1.0000 0.00510  0.03270  0.09140  Biso   1.000  H
  H91      1.0000 0.97740  0.93980  0.78240  Biso   1.000  H
  H92      1.0000 0.02260  0.06020  0.21760  Biso   1.000  H
  C93      1.0000 0.06850  0.04100  0.86720  Biso   1.000  C
  C94      1.0000 0.93150  0.95900  0.13280  Biso   1.000  C
  H93      1.0000 0.09520  0.98690  0.87860  Biso   1.000  H
  H94      1.0000 0.90480  0.01310  0.12140  Biso   1.000  H
  H95      1.0000 0.08730  0.09670  0.93120  Biso   1.000  H
  H96      1.0000 0.91270  0.90330  0.06880  Biso   1.000  H
  H97      1.0000 0.06990  0.06800  0.80510  Biso   1.000  H
  H98      1.0000 0.93010  0.93200  0.19490  Biso   1.000  H
  N15      1.0000 0.82410  0.15989  0.64405  Biso   1.000  N
  N16      1.0000 0.17590  0.84011  0.35595  Biso   1.000  N
  C95      1.0000 0.79872  0.24710  0.64710  Biso   1.000  C
  C96      1.0000 0.20128  0.75290  0.35290  Biso   1.000  C
  H99      1.0000 0.75240  0.24980  0.61070  Biso   1.000  H
  H100     1.0000 0.24760  0.75020  0.38930  Biso   1.000  H
  C97      1.0000 0.91567  0.27350  0.48040  Biso   1.000  C
  C98      1.0000 0.08433  0.72650  0.51960  Biso   1.000  C
  H101     1.0000 0.88040  0.24650  0.50410  Biso   1.000  H
  H102     1.0000 0.11960  0.75350  0.49590  Biso   1.000  H
  H103     1.0000 0.95600  0.24470  0.51260  Biso   1.000  H
  H104     1.0000 0.04400  0.75530  0.48740  Biso   1.000  H
  H105     1.0000 0.89890  0.25400  0.40200  Biso   1.000  H
  H106     1.0000 0.10110  0.74600  0.59800  Biso   1.000  H
  C99      1.0000 0.93406  0.39200  0.51590  Biso   1.000  C
  C100     1.0000 0.06594  0.60800  0.48410  Biso   1.000  C
  H107     1.0000 0.95000  0.41110  0.59510  Biso   1.000  H
  H108     1.0000 0.05000  0.58890  0.40490  Biso   1.000  H
  H109     1.0000 0.89280  0.42040  0.48450  Biso   1.000  H
  H110     1.0000 0.10720  0.57960  0.51550  Biso   1.000  H
  C101     1.0000 0.98963  0.44120  0.48140  Biso   1.000  C
  C102     1.0000 0.01037  0.55880  0.51860  Biso   1.000  C
  H111     1.0000 0.03020  0.41080  0.51080  Biso   1.000  H
  H112     1.0000 0.96980  0.58920  0.48920  Biso   1.000  H
  H113     1.0000 0.97300  0.42350  0.40200  Biso   1.000  H
  H114     1.0000 0.02700  0.57650  0.59800  Biso   1.000  H
  C103     1.0000 0.57026  0.74060  0.53530  Biso   1.000  C
  C104     1.0000 0.42974  0.25940  0.46470  Biso   1.000  C
  H115     1.0000 0.55860  0.79670  0.49770  Biso   1.000  H
  H116     1.0000 0.44140  0.20330  0.50230  Biso   1.000  H
  H117     1.0000 0.61430  0.72770  0.53760  Biso   1.000  H
  H118     1.0000 0.38570  0.27230  0.46240  Biso   1.000  H
  H119     1.0000 0.57270  0.75980  0.60870  Biso   1.000  H
  H120     1.0000 0.42730  0.24020  0.39130  Biso   1.000  H
  C105     1.0000 0.51570  0.64260  0.47540  Biso   1.000  C
  C106     1.0000 0.48430  0.35740  0.52460  Biso   1.000  C
  H121     1.0000 0.51270  0.62520  0.40080  Biso   1.000  H
  H122     1.0000 0.48730  0.37480  0.59920  Biso   1.000  H
  H123     1.0000 0.47130  0.65710  0.47210  Biso   1.000  H
  H124     1.0000 0.52870  0.34290  0.52790  Biso   1.000  H
  C107     1.0000 0.52881  0.54750  0.52740  Biso   1.000  C
  C108     1.0000 0.47119  0.45250  0.47260  Biso   1.000  C
  H125     1.0000 0.57120  0.52910  0.52510  Biso   1.000  H
  H126     1.0000 0.42880  0.47090  0.47490  Biso   1.000  H
  H127     1.0000 0.53560  0.56660  0.60390  Biso   1.000  H
  H128     1.0000 0.46440  0.43340  0.39610  Biso   1.000  H
