data_image0
_cell_length_a       21.178
_cell_length_b       13.13
_cell_length_c       13.393
_cell_angle_alpha    98.38
_cell_angle_beta     111.4
_cell_angle_gamma    97.49

_symmetry_space_group_name_H-M    "P 1"
_symmetry_int_tables_number       1

loop_
  _symmetry_equiv_pos_as_xyz
  'x, y, z'

loop_
  _atom_site_label
  _atom_site_occupancy
  _atom_site_fract_x
  _atom_site_fract_y
  _atom_site_fract_z
  _atom_site_thermal_displace_type
  _atom_site_B_iso_or_equiv
  _atom_site_type_symbol
  Cu1      1.0000 0.50000  0.50000  0.00000  Biso   1.000  Cu
  O1       1.0000 0.43155  0.37039  0.96359  Biso   1.000  O
  O2       1.0000 0.56845  0.62961  0.03641  Biso   1.000  O
  C1       1.0000 0.33739  0.25070  0.95590  Biso   1.000  C
  C2       1.0000 0.66261  0.74930  0.04410  Biso   1.000  C
  F1       1.0000 0.37704  0.19101  0.01060  Biso   1.000  F
  F2       1.0000 0.62296  0.80899  0.98940  Biso   1.000  F
  F3       1.0000 0.31635  0.20962  0.85102  Biso   1.000  F
  F4       1.0000 0.68365  0.79038  0.14898  Biso   1.000  F
  F5       1.0000 0.28267  0.24225  0.98092  Biso   1.000  F
  F6       1.0000 0.71733  0.75775  0.01908  Biso   1.000  F
  C3       1.0000 0.37819  0.36350  0.98420  Biso   1.000  C
  C4       1.0000 0.62181  0.63650  0.01580  Biso   1.000  C
  C5       1.0000 0.35354  0.44360  0.02880  Biso   1.000  C
  C6       1.0000 0.64646  0.55640  0.97120  Biso   1.000  C
  H1       1.0000 0.31740  0.42800  0.04000  Biso   1.000  H
  H2       1.0000 0.68260  0.57200  0.96000  Biso   1.000  H
  C7       1.0000 0.38783  0.54710  0.05850  Biso   1.000  C
  C8       1.0000 0.61217  0.45290  0.94150  Biso   1.000  C
  C9       1.0000 0.35968  0.62970  0.11410  Biso   1.000  C
  C10      1.0000 0.64032  0.37030  0.88590  Biso   1.000  C
  F7       1.0000 0.35744  0.71404  0.07020  Biso   1.000  F
  F8       1.0000 0.64256  0.28596  0.92980  Biso   1.000  F
  F9       1.0000 0.29575  0.59515  0.10590  Biso   1.000  F
  F10      1.0000 0.70425  0.40485  0.89410  Biso   1.000  F
  F11      1.0000 0.40009  0.66129  0.21859  Biso   1.000  F
  F12      1.0000 0.59991  0.33871  0.78141  Biso   1.000  F
  O3       1.0000 0.44224  0.58464  0.04770  Biso   1.000  O
  O4       1.0000 0.55776  0.41536  0.95230  Biso   1.000  O
  Cu2      1.0000 0.75532  0.99293  0.52360  Biso   1.000  Cu
  Cu3      1.0000 0.24468  0.00707  0.47640  Biso   1.000  Cu
  O5       1.0000 0.67586  0.05430  0.51887  Biso   1.000  O
  O6       1.0000 0.32414  0.94570  0.48113  Biso   1.000  O
  C11      1.0000 0.59529  0.12590  0.57080  Biso   1.000  C
  C12      1.0000 0.40471  0.87410  0.42920  Biso   1.000  C
  F13      1.0000 0.54568  0.08766  0.47113  Biso   1.000  F
  F14      1.0000 0.45432  0.91234  0.52887  Biso   1.000  F
  F15      1.0000 0.56485  0.12673  0.64209  Biso   1.000  F
  F16      1.0000 0.43515  0.87327  0.35791  Biso   1.000  F
  F17      1.0000 0.62029  0.22494  0.57430  Biso   1.000  F
  F18      1.0000 0.37971  0.77506  0.42570  Biso   1.000  F
  C13      1.0000 0.65260  0.06270  0.59340  Biso   1.000  C
  C14      1.0000 0.34740  0.93730  0.40660  Biso   1.000  C
  C15      1.0000 0.67411  0.02490  0.68880  Biso   1.000  C
  C16      1.0000 0.32589  0.97510  0.31120  Biso   1.000  C
  H3       1.0000 0.65520  0.03600  0.73600  Biso   1.000  H
  H4       1.0000 0.34480  0.96400  0.26400  Biso   1.000  H
  C17      1.0000 0.72588  0.96590  0.71260  Biso   1.000  C
  C18      1.0000 0.27412  0.03410  0.28740  Biso   1.000  C
  C19      1.0000 0.74278  0.92410  0.81890  Biso   1.000  C
  C20      1.0000 0.25722  0.07590  0.18110  Biso   1.000  C
  F19      1.0000 0.73440  0.98745  0.89726  Biso   1.000  F
  F20      1.0000 0.26560  0.01255  0.10274  Biso   1.000  F
  F21      1.0000 0.70110  0.83126  0.79874  Biso   1.000  F
  F22      1.0000 0.29890  0.16874  0.20126  Biso   1.000  F
  F23      1.0000 0.80632  0.90725  0.85697  Biso   1.000  F
  F24      1.0000 0.19368  0.09275  0.14303  Biso   1.000  F
  O7       1.0000 0.75975  0.93958  0.65705  Biso   1.000  O
  O8       1.0000 0.24025  0.06042  0.34295  Biso   1.000  O
  O9       1.0000 0.74745  0.04576  0.38935  Biso   1.000  O
  O10      1.0000 0.25255  0.95424  0.61065  Biso   1.000  O
  C21      1.0000 0.75393  0.05230  0.21910  Biso   1.000  C
  C22      1.0000 0.24607  0.94770  0.78090  Biso   1.000  C
  F25      1.0000 0.68679  0.05104  0.18044  Biso   1.000  F
  F26      1.0000 0.31321  0.94896  0.81956  Biso   1.000  F
  F27      1.0000 0.78571  0.15109  0.23340  Biso   1.000  F
  F28      1.0000 0.21429  0.84891  0.76660  Biso   1.000  F
  F29      1.0000 0.76715  0.99394  0.14283  Biso   1.000  F
  F30      1.0000 0.23285  0.00606  0.85717  Biso   1.000  F
  C23      1.0000 0.77766  0.01580  0.32860  Biso   1.000  C
  C24      1.0000 0.22234  0.98420  0.67140  Biso   1.000  C
  C25      1.0000 0.82962  0.95720  0.35040  Biso   1.000  C
  C26      1.0000 0.17038  0.04280  0.64960  Biso   1.000  C
  H5       1.0000 0.84770  0.94200  0.30300  Biso   1.000  H
  H6       1.0000 0.15230  0.05800  0.69700  Biso   1.000  H
  C27      1.0000 0.85464  0.92210  0.44700  Biso   1.000  C
  C28      1.0000 0.14536  0.07790  0.55300  Biso   1.000  C
  C29      1.0000 0.91384  0.86260  0.46680  Biso   1.000  C
  C30      1.0000 0.08616  0.13740  0.53320  Biso   1.000  C
  F31      1.0000 0.89201  0.76252  0.46233  Biso   1.000  F
  F32      1.0000 0.10799  0.23748  0.53767  Biso   1.000  F
  F33      1.0000 0.94264  0.86604  0.39423  Biso   1.000  F
  F34      1.0000 0.05736  0.13396  0.60577  Biso   1.000  F
  F35      1.0000 0.96354  0.90057  0.56476  Biso   1.000  F
  F36      1.0000 0.03646  0.09943  0.43524  Biso   1.000  F
  O11      1.0000 0.83447  0.93139  0.52528  Biso   1.000  O
  O12      1.0000 0.16553  0.06861  0.47472  Biso   1.000  O
  Cu4      1.0000 0.00000  0.50000  0.00000  Biso   1.000  Cu
  O13      1.0000 0.07370  0.62840  0.02764  Biso   1.000  O
  O14      1.0000 0.92630  0.37160  0.97236  Biso   1.000  O
  C31      1.0000 0.15078  0.75410  0.00040  Biso   1.000  C
  C32      1.0000 0.84922  0.24590  0.99960  Biso   1.000  C
  F37      1.0000 0.20024  0.76677  0.96291  Biso   1.000  F
  F38      1.0000 0.79976  0.23323  0.03709  Biso   1.000  F
  F39      1.0000 0.17829  0.79868  0.10624  Biso   1.000  F
  F40      1.0000 0.82171  0.20132  0.89376  Biso   1.000  F
  F41      1.0000 0.10391  0.80867  0.95270  Biso   1.000  F
  F42      1.0000 0.89609  0.19133  0.04730  Biso   1.000  F
  C33      1.0000 0.11596  0.63980  0.98250  Biso   1.000  C
  C34      1.0000 0.88404  0.36020  0.01750  Biso   1.000  C
  C35      1.0000 0.13327  0.56410  0.91960  Biso   1.000  C
  C36      1.0000 0.86673  0.43590  0.08040  Biso   1.000  C
  H7       1.0000 0.16390  0.58600  0.88600  Biso   1.000  H
  H8       1.0000 0.83610  0.41400  0.11400  Biso   1.000  H
  C37      1.0000 0.10586  0.45680  0.89920  Biso   1.000  C
  C38      1.0000 0.89414  0.54320  0.10080  Biso   1.000  C
  C39      1.0000 0.12594  0.38230  0.82300  Biso   1.000  C
  C40      1.0000 0.87406  0.61770  0.17700  Biso   1.000  C
  F43      1.0000 0.14036  0.29830  0.86280  Biso   1.000  F
  F44      1.0000 0.85964  0.70170  0.13720  Biso   1.000  F
  F45      1.0000 0.17962  0.41930  0.80920  Biso   1.000  F
  F46      1.0000 0.82038  0.58070  0.19080  Biso   1.000  F
  F47      1.0000 0.07484  0.34450  0.73280  Biso   1.000  F
  F48      1.0000 0.92516  0.65550  0.26720  Biso   1.000  F
  O15      1.0000 0.06535  0.41314  0.93536  Biso   1.000  O
  O16      1.0000 0.93465  0.58686  0.06464  Biso   1.000  O
  O17      1.0000 0.53648  0.48117  0.18272  Biso   1.000  O
  O18      1.0000 0.46352  0.51883  0.81728  Biso   1.000  O
  N1       1.0000 0.59743  0.46574  0.23901  Biso   1.000  N
  N2       1.0000 0.40257  0.53426  0.76099  Biso   1.000  N
  C41      1.0000 0.61047  0.35840  0.25550  Biso   1.000  C
  C42      1.0000 0.38953  0.64160  0.74450  Biso   1.000  C
  C43      1.0000 0.58153  0.33220  0.33980  Biso   1.000  C
  C44      1.0000 0.41847  0.66780  0.66020  Biso   1.000  C
  H9       1.0000 0.53440  0.33500  0.31100  Biso   1.000  H
  H10      1.0000 0.46560  0.66500  0.68900  Biso   1.000  H
  H11      1.0000 0.60220  0.37700  0.40200  Biso   1.000  H
  H12      1.0000 0.39780  0.62300  0.59800  Biso   1.000  H
  H13      1.0000 0.58750  0.26500  0.35100  Biso   1.000  H
  H14      1.0000 0.41250  0.73500  0.64900  Biso   1.000  H
  C45      1.0000 0.57440  0.27830  0.14900  Biso   1.000  C
  C46      1.0000 0.42560  0.72170  0.85100  Biso   1.000  C
  H15      1.0000 0.58940  0.30000  0.10000  Biso   1.000  H
  H16      1.0000 0.41060  0.70000  0.90000  Biso   1.000  H
  H17      1.0000 0.52650  0.26900  0.13100  Biso   1.000  H
  H18      1.0000 0.47350  0.73100  0.86900  Biso   1.000  H
  H19      1.0000 0.58650  0.21500  0.15900  Biso   1.000  H
  H20      1.0000 0.41350  0.78500  0.84100  Biso   1.000  H
  C47      1.0000 0.69071  0.38070  0.30040  Biso   1.000  C
  C48      1.0000 0.30929  0.61930  0.69960  Biso   1.000  C
  C49      1.0000 0.71959  0.37110  0.21120  Biso   1.000  C
  C50      1.0000 0.28041  0.62890  0.78880  Biso   1.000  C
  H21      1.0000 0.76660  0.39600  0.24400  Biso   1.000  H
  H22      1.0000 0.23340  0.60400  0.75600  Biso   1.000  H
  H23      1.0000 0.69620  0.41000  0.15400  Biso   1.000  H
  H24      1.0000 0.30380  0.59000  0.84600  Biso   1.000  H
  H25      1.0000 0.71380  0.30500  0.18100  Biso   1.000  H
  H26      1.0000 0.28620  0.69500  0.81900  Biso   1.000  H
  C51      1.0000 0.72483  0.32040  0.38690  Biso   1.000  C
  C52      1.0000 0.27517  0.67960  0.61310  Biso   1.000  C
  H27      1.0000 0.71480  0.33700  0.45200  Biso   1.000  H
  H28      1.0000 0.28520  0.66300  0.54800  Biso   1.000  H
  H29      1.0000 0.77350  0.33600  0.40600  Biso   1.000  H
  H30      1.0000 0.22650  0.66400  0.59400  Biso   1.000  H
  H31      1.0000 0.70860  0.24800  0.35400  Biso   1.000  H
  H32      1.0000 0.29140  0.75200  0.64600  Biso   1.000  H
  N3       1.0000 0.70643  0.49578  0.34973  Biso   1.000  N
  N4       1.0000 0.29357  0.50422  0.65027  Biso   1.000  N
  O19      1.0000 0.76750  0.54481  0.41432  Biso   1.000  O
  O20      1.0000 0.23250  0.45519  0.58568  Biso   1.000  O
  C53      1.0000 0.65184  0.54150  0.30450  Biso   1.000  C
  C54      1.0000 0.34816  0.45850  0.69550  Biso   1.000  C
  C55      1.0000 0.65190  0.65210  0.32510  Biso   1.000  C
  C56      1.0000 0.34810  0.34790  0.67490  Biso   1.000  C
  C57      1.0000 0.59716  0.70200  0.28040  Biso   1.000  C
  C58      1.0000 0.40284  0.29800  0.71960  Biso   1.000  C
  H33      1.0000 0.55300  0.67300  0.23300  Biso   1.000  H
  H34      1.0000 0.44700  0.32700  0.76700  Biso   1.000  H
  N5       1.0000 0.62000  0.80446  0.32308  Biso   1.000  N
  N6       1.0000 0.38000  0.19554  0.67692  Biso   1.000  N
  C59      1.0000 0.58290  0.89140  0.30370  Biso   1.000  C
  C60      1.0000 0.41710  0.10860  0.69630  Biso   1.000  C
  H35      1.0000 0.61720  0.95000  0.31000  Biso   1.000  H
  H36      1.0000 0.38280  0.05000  0.69000  Biso   1.000  H
  H37      1.0000 0.56330  0.90300  0.34900  Biso   1.000  H
  H38      1.0000 0.43670  0.09700  0.65100  Biso   1.000  H
  C61      1.0000 0.52765  0.87490  0.19110  Biso   1.000  C
  C62      1.0000 0.47235  0.12510  0.80890  Biso   1.000  C
  H39      1.0000 0.49000  0.81300  0.18400  Biso   1.000  H
  H40      1.0000 0.51000  0.18700  0.81600  Biso   1.000  H
  H41      1.0000 0.54680  0.86000  0.13700  Biso   1.000  H
  H42      1.0000 0.45320  0.14000  0.86300  Biso   1.000  H
  C63      1.0000 0.49633  0.97250  0.17710  Biso   1.000  C
  C64      1.0000 0.50367  0.02750  0.82290  Biso   1.000  C
  H43      1.0000 0.48510  0.99600  0.23800  Biso   1.000  H
  H44      1.0000 0.51490  0.00400  0.76200  Biso   1.000  H
  H45      1.0000 0.53530  0.03200  0.18300  Biso   1.000  H
  H46      1.0000 0.46470  0.96800  0.81700  Biso   1.000  H
  C65      1.0000 0.43560  0.95980  0.06940  Biso   1.000  C
  C66      1.0000 0.56440  0.04020  0.93060  Biso   1.000  C
  H47      1.0000 0.41800  0.02500  0.06200  Biso   1.000  H
  H48      1.0000 0.58200  0.97500  0.93800  Biso   1.000  H
  H49      1.0000 0.39700  0.90600  0.06700  Biso   1.000  H
  H50      1.0000 0.60300  0.09400  0.93300  Biso   1.000  H
  H51      1.0000 0.44800  0.94200  0.00700  Biso   1.000  H
  H52      1.0000 0.55200  0.05800  0.99300  Biso   1.000  H
  N7       1.0000 0.68741  0.82652  0.39652  Biso   1.000  N
  N8       1.0000 0.31259  0.17348  0.60348  Biso   1.000  N
  C67      1.0000 0.70652  0.73430  0.39640  Biso   1.000  C
  C68      1.0000 0.29348  0.26570  0.60360  Biso   1.000  C
  H53      1.0000 0.74820  0.73070  0.43500  Biso   1.000  H
  H54      1.0000 0.25180  0.26930  0.56500  Biso   1.000  H
  O21      1.0000 0.96106  0.51680  0.84475  Biso   1.000  O
  O22      1.0000 0.03894  0.48320  0.15525  Biso   1.000  O
  N9       1.0000 0.89652  0.52467  0.79392  Biso   1.000  N
  N10      1.0000 0.10348  0.47533  0.20608  Biso   1.000  N
  C69      1.0000 0.87694  0.62790  0.77300  Biso   1.000  C
  C70      1.0000 0.12306  0.37210  0.22700  Biso   1.000  C
  C71      1.0000 0.89863  0.65160  0.68060  Biso   1.000  C
  C72      1.0000 0.10137  0.34840  0.31940  Biso   1.000  C
  H55      1.0000 0.94720  0.65200  0.70000  Biso   1.000  H
  H56      1.0000 0.05280  0.34800  0.30000  Biso   1.000  H
  H57      1.0000 0.88750  0.71500  0.66500  Biso   1.000  H
  H58      1.0000 0.11250  0.28500  0.33500  Biso   1.000  H
  H59      1.0000 0.87490  0.60400  0.61500  Biso   1.000  H
  H60      1.0000 0.12510  0.39600  0.38500  Biso   1.000  H
  C73      1.0000 0.91392  0.71460  0.87520  Biso   1.000  C
  C74      1.0000 0.08608  0.28540  0.12480  Biso   1.000  C
  H61      1.0000 0.96310  0.72500  0.89600  Biso   1.000  H
  H62      1.0000 0.03690  0.27500  0.10400  Biso   1.000  H
  H63      1.0000 0.90560  0.69700  0.93300  Biso   1.000  H
  H64      1.0000 0.09440  0.30300  0.06700  Biso   1.000  H
  H65      1.0000 0.89790  0.77800  0.86000  Biso   1.000  H
  H66      1.0000 0.10210  0.22200  0.14000  Biso   1.000  H
  C75      1.0000 0.79739  0.59690  0.73770  Biso   1.000  C
  C76      1.0000 0.20261  0.40310  0.26230  Biso   1.000  C
  C77      1.0000 0.77376  0.60730  0.83230  Biso   1.000  C
  C78      1.0000 0.22624  0.39270  0.16770  Biso   1.000  C
  H67      1.0000 0.72470  0.57700  0.80800  Biso   1.000  H
  H68      1.0000 0.27530  0.42300  0.19200  Biso   1.000  H
  H69      1.0000 0.77780  0.67500  0.86300  Biso   1.000  H
  H70      1.0000 0.22220  0.32500  0.13700  Biso   1.000  H
  H71      1.0000 0.79880  0.57500  0.88800  Biso   1.000  H
  H72      1.0000 0.20120  0.42500  0.11200  Biso   1.000  H
  C79      1.0000 0.75492  0.64850  0.64800  Biso   1.000  C
  C80      1.0000 0.24508  0.35150  0.35200  Biso   1.000  C
  H73      1.0000 0.70660  0.62600  0.63500  Biso   1.000  H
  H74      1.0000 0.29340  0.37400  0.36500  Biso   1.000  H
  H75      1.0000 0.76300  0.62900  0.58300  Biso   1.000  H
  H76      1.0000 0.23700  0.37100  0.41700  Biso   1.000  H
  H77      1.0000 0.76710  0.72300  0.66900  Biso   1.000  H
  H78      1.0000 0.23290  0.27700  0.33100  Biso   1.000  H
  N11      1.0000 0.78618  0.48102  0.69342  Biso   1.000  N
  N12      1.0000 0.21382  0.51898  0.30658  Biso   1.000  N
  O23      1.0000 0.72630  0.42557  0.63361  Biso   1.000  O
  O24      1.0000 0.27370  0.57443  0.36639  Biso   1.000  O
  C81      1.0000 0.84476  0.44320  0.73410  Biso   1.000  C
  C82      1.0000 0.15524  0.55680  0.26590  Biso   1.000  C
  C83      1.0000 0.85056  0.33500  0.71230  Biso   1.000  C
  C84      1.0000 0.14944  0.66500  0.28770  Biso   1.000  C
  C85      1.0000 0.91058  0.29510  0.74880  Biso   1.000  C
  C86      1.0000 0.08942  0.70490  0.25120  Biso   1.000  C
  H79      1.0000 0.95410  0.32700  0.78900  Biso   1.000  H
  H80      1.0000 0.04590  0.67300  0.21100  Biso   1.000  H
  N13      1.0000 0.89323  0.19232  0.70765  Biso   1.000  N
  N14      1.0000 0.10677  0.80768  0.29235  Biso   1.000  N
  C87      1.0000 0.94015  0.11750  0.72810  Biso   1.000  C
  C88      1.0000 0.05985  0.88250  0.27190  Biso   1.000  C
  H81      1.0000 0.98680  0.15300  0.73600  Biso   1.000  H
  H82      1.0000 0.01320  0.84700  0.26400  Biso   1.000  H
  H83      1.0000 0.92530  0.06800  0.66900  Biso   1.000  H
  H84      1.0000 0.07470  0.93200  0.33100  Biso   1.000  H
  C89      1.0000 0.94690  0.07580  0.82710  Biso   1.000  C
  C90      1.0000 0.05310  0.92420  0.17290  Biso   1.000  C
  H85      1.0000 0.90140  0.04290  0.82040  Biso   1.000  H
  H86      1.0000 0.09860  0.95710  0.17960  Biso   1.000  H
  H87      1.0000 0.96540  0.13360  0.89040  Biso   1.000  H
  H88      1.0000 0.03460  0.86640  0.10960  Biso   1.000  H
  C91      1.0000 0.99460  0.99490  0.84560  Biso   1.000  C
  C92      1.0000 0.00540  0.00510  0.15440  Biso   1.000  C
  H89      1.0000 0.99600  0.96400  0.91100  Biso   1.000  H
  H90      1.0000 0.00400  0.03600  0.08900  Biso   1.000  H
  H91      1.0000 0.97900  0.93600  0.77300  Biso   1.000  H
  H92      1.0000 0.02100  0.06400  0.22700  Biso   1.000  H
  C93      1.0000 0.06820  0.04090  0.86840  Biso   1.000  C
  C94      1.0000 0.93180  0.95910  0.13160  Biso   1.000  C
  H93      1.0000 0.09900  0.98900  0.88600  Biso   1.000  H
  H94      1.0000 0.90100  0.01100  0.11400  Biso   1.000  H
  H95      1.0000 0.08700  0.09900  0.92400  Biso   1.000  H
  H96      1.0000 0.91300  0.90100  0.07600  Biso   1.000  H
  H97      1.0000 0.07500  0.06600  0.81200  Biso   1.000  H
  H98      1.0000 0.92500  0.93400  0.18800  Biso   1.000  H
  N15      1.0000 0.82416  0.16005  0.64462  Biso   1.000  N
  N16      1.0000 0.17584  0.83995  0.35538  Biso   1.000  N
  C95      1.0000 0.79887  0.24700  0.64790  Biso   1.000  C
  C96      1.0000 0.20113  0.75300  0.35210  Biso   1.000  C
  H99      1.0000 0.75420  0.24500  0.61400  Biso   1.000  H
  H100     1.0000 0.24580  0.75500  0.38600  Biso   1.000  H
  C97      1.0000 0.91520  0.27370  0.48080  Biso   1.000  C
  C98      1.0000 0.08480  0.72630  0.51920  Biso   1.000  C
  H101     1.0000 0.87900  0.24800  0.50000  Biso   1.000  H
  H102     1.0000 0.12100  0.75200  0.50000  Biso   1.000  H
  H103     1.0000 0.95700  0.24200  0.51400  Biso   1.000  H
  H104     1.0000 0.04300  0.75800  0.48600  Biso   1.000  H
  H105     1.0000 0.90580  0.25100  0.41400  Biso   1.000  H
  H106     1.0000 0.09420  0.74900  0.58600  Biso   1.000  H
  C99      1.0000 0.93389  0.39220  0.51600  Biso   1.000  C
  C100     1.0000 0.06611  0.60780  0.48400  Biso   1.000  C
  H107     1.0000 0.94990  0.41000  0.59400  Biso   1.000  H
  H108     1.0000 0.05010  0.59000  0.40600  Biso   1.000  H
  H109     1.0000 0.89180  0.42300  0.48500  Biso   1.000  H
  H110     1.0000 0.10820  0.57700  0.51500  Biso   1.000  H
  C101     1.0000 0.98955  0.44090  0.48130  Biso   1.000  C
  C102     1.0000 0.01045  0.55910  0.51870  Biso   1.000  C
  H111     1.0000 0.03080  0.40900  0.51200  Biso   1.000  H
  H112     1.0000 0.96920  0.59100  0.48800  Biso   1.000  H
  H113     1.0000 0.97380  0.42500  0.40400  Biso   1.000  H
  H114     1.0000 0.02620  0.57500  0.59600  Biso   1.000  H
  C103     1.0000 0.57000  0.74040  0.53460  Biso   1.000  C
  C104     1.0000 0.43000  0.25960  0.46540  Biso   1.000  C
  H115     1.0000 0.56120  0.79900  0.50300  Biso   1.000  H
  H116     1.0000 0.43880  0.20100  0.49700  Biso   1.000  H
  H117     1.0000 0.61400  0.73000  0.53100  Biso   1.000  H
  H118     1.0000 0.38600  0.27000  0.46900  Biso   1.000  H
  H119     1.0000 0.57300  0.76000  0.60700  Biso   1.000  H
  H120     1.0000 0.42700  0.24000  0.39300  Biso   1.000  H
  C105     1.0000 0.51568  0.64220  0.47470  Biso   1.000  C
  C106     1.0000 0.48432  0.35780  0.52530  Biso   1.000  C
  H121     1.0000 0.47490  0.65600  0.47500  Biso   1.000  H
  H122     1.0000 0.52510  0.34400  0.52500  Biso   1.000  H
  H123     1.0000 0.50880  0.62000  0.39400  Biso   1.000  H
  H124     1.0000 0.49120  0.38000  0.60600  Biso   1.000  H
  C107     1.0000 0.52909  0.54770  0.52780  Biso   1.000  C
  C108     1.0000 0.47091  0.45230  0.47220  Biso   1.000  C
  H125     1.0000 0.57080  0.53000  0.52400  Biso   1.000  H
  H126     1.0000 0.42920  0.47000  0.47600  Biso   1.000  H
  H127     1.0000 0.53600  0.56700  0.60500  Biso   1.000  H
  H128     1.0000 0.46400  0.43300  0.39500  Biso   1.000  H
