data_image0
_cell_length_a       10.512
_cell_length_b       13.186
_cell_length_c       13.521
_cell_angle_alpha    100.038
_cell_angle_beta     112.164
_cell_angle_gamma    94.671

_symmetry_space_group_name_H-M    "P 1"
_symmetry_int_tables_number       1

loop_
  _symmetry_equiv_pos_as_xyz
  'x, y, z'

loop_
  _atom_site_label
  _atom_site_occupancy
  _atom_site_fract_x
  _atom_site_fract_y
  _atom_site_fract_z
  _atom_site_thermal_displace_type
  _atom_site_B_iso_or_equiv
  _atom_site_type_symbol
  Cu1      1.0000 0.00000  0.00000  0.50000  Biso   1.000  Cu
  O1       1.0000 0.11040  0.91093  0.44253  Biso   1.000  O
  O2       1.0000 0.88960  0.08907  0.55747  Biso   1.000  O
  C1       1.0000 0.26110  0.85910  0.35830  Biso   1.000  C
  C2       1.0000 0.73890  0.14090  0.64170  Biso   1.000  C
  F1       1.0000 0.16349  0.82584  0.25491  Biso   1.000  F
  F2       1.0000 0.83651  0.17416  0.74509  Biso   1.000  F
  F3       1.0000 0.27855  0.77563  0.40413  Biso   1.000  F
  F4       1.0000 0.72145  0.22437  0.59587  Biso   1.000  F
  F5       1.0000 0.38180  0.89112  0.35065  Biso   1.000  F
  F6       1.0000 0.61820  0.10888  0.64935  Biso   1.000  F
  C3       1.0000 0.21270  0.94530  0.42270  Biso   1.000  C
  C4       1.0000 0.78730  0.05470  0.57730  Biso   1.000  C
  C5       1.0000 0.28140  0.04820  0.44930  Biso   1.000  C
  C6       1.0000 0.71860  0.95180  0.55070  Biso   1.000  C
  H1       1.0000 0.35700  0.05900  0.43100  Biso   1.000  H
  H2       1.0000 0.64300  0.94100  0.56900  Biso   1.000  H
  C7       1.0000 0.23570  0.13080  0.50230  Biso   1.000  C
  C8       1.0000 0.76430  0.86920  0.49770  Biso   1.000  C
  C9       1.0000 0.31620  0.24340  0.52820  Biso   1.000  C
  C10      1.0000 0.68380  0.75660  0.47180  Biso   1.000  C
  F7       1.0000 0.41861  0.24740  0.49179  Biso   1.000  F
  F8       1.0000 0.58139  0.75260  0.50821  Biso   1.000  F
  F9       1.0000 0.38100  0.27680  0.64600  Biso   1.000  F
  F10      1.0000 0.61900  0.72320  0.35400  Biso   1.000  F
  F11      1.0000 0.22805  0.30686  0.48216  Biso   1.000  F
  F12      1.0000 0.77195  0.69314  0.51784  Biso   1.000  F
  F13      1.0000 0.36600  0.28760  0.62880  Biso   1.000  F
  F14      1.0000 0.63400  0.71240  0.37120  Biso   1.000  F
  O3       1.0000 0.13640  0.12717  0.53271  Biso   1.000  O
  O4       1.0000 0.86360  0.87283  0.46729  Biso   1.000  O
  Cu2      1.0000 0.50000  0.50000  0.00000  Biso   1.000  Cu
  O5       1.0000 0.33680  0.56813  0.98848  Biso   1.000  O
  O6       1.0000 0.66320  0.43187  0.01152  Biso   1.000  O
  C11      1.0000 0.15970  0.63990  0.03100  Biso   1.000  C
  C12      1.0000 0.84030  0.36010  0.96900  Biso   1.000  C
  F15      1.0000 0.07350  0.60814  0.92379  Biso   1.000  F
  F16      1.0000 0.92650  0.39186  0.07621  Biso   1.000  F
  F17      1.0000 0.20400  0.74610  0.04300  Biso   1.000  F
  F18      1.0000 0.79600  0.25390  0.95700  Biso   1.000  F
  F19      1.0000 0.08216  0.62849  0.08971  Biso   1.000  F
  F20      1.0000 0.91784  0.37151  0.91029  Biso   1.000  F
  F21      1.0000 0.20800  0.73940  0.05700  Biso   1.000  F
  F22      1.0000 0.79200  0.26060  0.94300  Biso   1.000  F
  C13      1.0000 0.28380  0.57860  0.05950  Biso   1.000  C
  C14      1.0000 0.71620  0.42140  0.94050  Biso   1.000  C
  C15      1.0000 0.32520  0.54450  0.15760  Biso   1.000  C
  C16      1.0000 0.67480  0.45550  0.84240  Biso   1.000  C
  H3       1.0000 0.28100  0.56200  0.20300  Biso   1.000  H
  H4       1.0000 0.71900  0.43800  0.79700  Biso   1.000  H
  C17      1.0000 0.43560  0.48680  0.18870  Biso   1.000  C
  C18      1.0000 0.56440  0.51320  0.81130  Biso   1.000  C
  C19      1.0000 0.46800  0.45020  0.29820  Biso   1.000  C
  C20      1.0000 0.53200  0.54980  0.70180  Biso   1.000  C
  F23      1.0000 0.45260  0.52248  0.37501  Biso   1.000  F
  F24      1.0000 0.54740  0.47752  0.62499  Biso   1.000  F
  F25      1.0000 0.37960  0.36221  0.28096  Biso   1.000  F
  F26      1.0000 0.62040  0.63779  0.71904  Biso   1.000  F
  F27      1.0000 0.59740  0.41880  0.34100  Biso   1.000  F
  F28      1.0000 0.40260  0.58120  0.65900  Biso   1.000  F
  F29      1.0000 0.59800  0.44140  0.33780  Biso   1.000  F
  F30      1.0000 0.40200  0.55860  0.66220  Biso   1.000  F
  O7       1.0000 0.50880  0.45656  0.13667  Biso   1.000  O
  O8       1.0000 0.49120  0.54344  0.86333  Biso   1.000  O
  O9       1.0000 0.91250  0.02649  0.31792  Biso   1.000  O
  O10      1.0000 0.08750  0.97351  0.68208  Biso   1.000  O
  N1       1.0000 0.78250  0.03674  0.26580  Biso   1.000  N
  N2       1.0000 0.21750  0.96326  0.73420  Biso   1.000  N
  C21      1.0000 0.73910  0.14170  0.25060  Biso   1.000  C
  C22      1.0000 0.26090  0.85830  0.74940  Biso   1.000  C
  C23      1.0000 0.78060  0.17020  0.15910  Biso   1.000  C
  C24      1.0000 0.21940  0.82980  0.84090  Biso   1.000  C
  H5       1.0000 0.88000  0.17200  0.17600  Biso   1.000  H
  H6       1.0000 0.12000  0.82800  0.82400  Biso   1.000  H
  H7       1.0000 0.75300  0.23600  0.14700  Biso   1.000  H
  H8       1.0000 0.24700  0.76400  0.85300  Biso   1.000  H
  H9       1.0000 0.73300  0.12100  0.09100  Biso   1.000  H
  H10      1.0000 0.26700  0.87900  0.90900  Biso   1.000  H
  C25      1.0000 0.81490  0.22460  0.35810  Biso   1.000  C
  C26      1.0000 0.18510  0.77540  0.64190  Biso   1.000  C
  H11      1.0000 0.90800  0.23500  0.37400  Biso   1.000  H
  H12      1.0000 0.09200  0.76500  0.62600  Biso   1.000  H
  H13      1.0000 0.80000  0.20300  0.41900  Biso   1.000  H
  H14      1.0000 0.20000  0.79700  0.58100  Biso   1.000  H
  H15      1.0000 0.77300  0.29000  0.34800  Biso   1.000  H
  H16      1.0000 0.22700  0.71000  0.65200  Biso   1.000  H
  C27      1.0000 0.57760  0.11290  0.21430  Biso   1.000  C
  C28      1.0000 0.42240  0.88710  0.78570  Biso   1.000  C
  C29      1.0000 0.48850  0.16730  0.12730  Biso   1.000  C
  C30      1.0000 0.51150  0.83270  0.87270  Biso   1.000  C
  H17      1.0000 0.39200  0.14800  0.11600  Biso   1.000  H
  H18      1.0000 0.60800  0.85200  0.88400  Biso   1.000  H
  H19      1.0000 0.50200  0.14400  0.06000  Biso   1.000  H
  H20      1.0000 0.49800  0.85600  0.94000  Biso   1.000  H
  H21      1.0000 0.52000  0.24200  0.15200  Biso   1.000  H
  H22      1.0000 0.48000  0.75800  0.84800  Biso   1.000  H
  C31      1.0000 0.53290  0.12230  0.31150  Biso   1.000  C
  C32      1.0000 0.46710  0.87770  0.68850  Biso   1.000  C
  H23      1.0000 0.43200  0.09200  0.28600  Biso   1.000  H
  H24      1.0000 0.56800  0.90800  0.71400  Biso   1.000  H
  H25      1.0000 0.54700  0.19300  0.35000  Biso   1.000  H
  H26      1.0000 0.45300  0.80700  0.65000  Biso   1.000  H
  H27      1.0000 0.58300  0.09400  0.36900  Biso   1.000  H
  H28      1.0000 0.41700  0.90600  0.63100  Biso   1.000  H
  N3       1.0000 0.55650  0.99682  0.16580  Biso   1.000  N
  N4       1.0000 0.44350  0.00318  0.83420  Biso   1.000  N
  O11      1.0000 0.43530  0.94325  0.10582  Biso   1.000  O
  O12      1.0000 0.56470  0.05675  0.89418  Biso   1.000  O
  C33      1.0000 0.67700  0.95700  0.20500  Biso   1.000  C
  C34      1.0000 0.32300  0.04300  0.79500  Biso   1.000  C
  C35      1.0000 0.69010  0.84710  0.18510  Biso   1.000  C
  C36      1.0000 0.30990  0.15290  0.81490  Biso   1.000  C
  C37      1.0000 0.58490  0.75910  0.12230  Biso   1.000  C
  C38      1.0000 0.41510  0.24090  0.87770  Biso   1.000  C
  H29      1.0000 0.48300  0.75800  0.08300  Biso   1.000  H
  H30      1.0000 0.51700  0.24200  0.91700  Biso   1.000  H
  N5       1.0000 0.63890  0.67018  0.12220  Biso   1.000  N
  N6       1.0000 0.36110  0.32982  0.87780  Biso   1.000  N
  N7       1.0000 0.77950  0.70063  0.18510  Biso   1.000  N
  N8       1.0000 0.22050  0.29937  0.81490  Biso   1.000  N
  C39      1.0000 0.87290  0.62310  0.21510  Biso   1.000  C
  C40      1.0000 0.12710  0.37690  0.78490  Biso   1.000  C
  H31      1.0000 0.96300  0.65300  0.22800  Biso   1.000  H
  H32      1.0000 0.03700  0.34700  0.77200  Biso   1.000  H
  H33      1.0000 0.84100  0.56800  0.15500  Biso   1.000  H
  H34      1.0000 0.15900  0.43200  0.84500  Biso   1.000  H
  C41      1.0000 0.87180  0.58700  0.31680  Biso   1.000  C
  C42      1.0000 0.12820  0.41300  0.68320  Biso   1.000  C
  H35      1.0000 0.77500  0.56700  0.30700  Biso   1.000  H
  H36      1.0000 0.22500  0.43300  0.69300  Biso   1.000  H
  H37      1.0000 0.91400  0.64600  0.38200  Biso   1.000  H
  H38      1.0000 0.08600  0.35400  0.61800  Biso   1.000  H
  C43      1.0000 0.95480  0.49580  0.34040  Biso   1.000  C
  C44      1.0000 0.04520  0.50420  0.65960  Biso   1.000  C
  H39      1.0000 0.94300  0.47400  0.40200  Biso   1.000  H
  H40      1.0000 0.05700  0.52600  0.59800  Biso   1.000  H
  H41      1.0000 0.91400  0.43700  0.27600  Biso   1.000  H
  H42      1.0000 0.08600  0.56300  0.72400  Biso   1.000  H
  C45      1.0000 0.11040  0.52500  0.36920  Biso   1.000  C
  C46      1.0000 0.88960  0.47500  0.63080  Biso   1.000  C
  H43      1.0000 0.15900  0.46500  0.38200  Biso   1.000  H
  H44      1.0000 0.84100  0.53500  0.61800  Biso   1.000  H
  H45      1.0000 0.14500  0.59100  0.43800  Biso   1.000  H
  H46      1.0000 0.85500  0.40900  0.56200  Biso   1.000  H
  H47      1.0000 0.12700  0.54100  0.31000  Biso   1.000  H
  H48      1.0000 0.87300  0.45900  0.69000  Biso   1.000  H
  C47      1.0000 0.81360  0.80510  0.22380  Biso   1.000  C
  C48      1.0000 0.18640  0.19490  0.77620  Biso   1.000  C
  H49      1.0000 0.90390  0.84290  0.26860  Biso   1.000  H
  H50      1.0000 0.09610  0.15710  0.73140  Biso   1.000  H
  Cl1      1.0000 0.16470  0.17780  0.21770  Biso   1.000  Cl
  Cl2      1.0000 0.83530  0.82220  0.78230  Biso   1.000  Cl
  C49      1.0000 0.11200  0.06140  0.15490  Biso   1.000  C
  C50      1.0000 0.88800  0.93860  0.84510  Biso   1.000  C
  H51      1.0000 0.19210  0.02340  0.16680  Biso   1.000  H
  H52      1.0000 0.80790  0.97660  0.83320  Biso   1.000  H
  H53      1.0000 0.04910  0.02790  0.18320  Biso   1.000  H
  H54      1.0000 0.95090  0.97210  0.81680  Biso   1.000  H
  C51      1.0000 0.03340  0.05530  0.03100  Biso   1.000  C
  C52      1.0000 0.96660  0.94470  0.96900  Biso   1.000  C
  H55      1.0000 0.96060  0.10040  0.02010  Biso   1.000  H
  H56      1.0000 0.03940  0.89960  0.97990  Biso   1.000  H
  H57      1.0000 0.09930  0.08180  0.00140  Biso   1.000  H
  H58      1.0000 0.90070  0.91820  0.99860  Biso   1.000  H
