data_image0
_cell_length_a       10.4676
_cell_length_b       13.0922
_cell_length_c       13.424
_cell_angle_alpha    99.848
_cell_angle_beta     112.137
_cell_angle_gamma    94.697

_symmetry_space_group_name_H-M    "P 1"
_symmetry_int_tables_number       1

loop_
  _symmetry_equiv_pos_as_xyz
  'x, y, z'

loop_
  _atom_site_label
  _atom_site_occupancy
  _atom_site_fract_x
  _atom_site_fract_y
  _atom_site_fract_z
  _atom_site_thermal_displace_type
  _atom_site_B_iso_or_equiv
  _atom_site_type_symbol
  Cu1      1.0000 0.00000  0.00000  0.50000  Biso   1.000  Cu
  O1       1.0000 0.11020  0.91144  0.44268  Biso   1.000  O
  O2       1.0000 0.88980  0.08856  0.55732  Biso   1.000  O
  C1       1.0000 0.26080  0.86020  0.35840  Biso   1.000  C
  C2       1.0000 0.73920  0.13980  0.64160  Biso   1.000  C
  F1       1.0000 0.16800  0.83990  0.26350  Biso   1.000  F
  F2       1.0000 0.83200  0.16010  0.73650  Biso   1.000  F
  F3       1.0000 0.27920  0.77761  0.40520  Biso   1.000  F
  F4       1.0000 0.72080  0.22239  0.59480  Biso   1.000  F
  F5       1.0000 0.37900  0.89800  0.34100  Biso   1.000  F
  F6       1.0000 0.62100  0.10200  0.65900  Biso   1.000  F
  F7       1.0000 0.16100  0.81320  0.24980  Biso   1.000  F
  F8       1.0000 0.83900  0.18680  0.75020  Biso   1.000  F
  F9       1.0000 0.38200  0.88700  0.36100  Biso   1.000  F
  F10      1.0000 0.61800  0.11300  0.63900  Biso   1.000  F
  C3       1.0000 0.21200  0.94610  0.42280  Biso   1.000  C
  C4       1.0000 0.78800  0.05390  0.57720  Biso   1.000  C
  C5       1.0000 0.27970  0.04880  0.44890  Biso   1.000  C
  C6       1.0000 0.72030  0.95120  0.55110  Biso   1.000  C
  H1       1.0000 0.35790  0.06330  0.43100  Biso   1.000  H
  H2       1.0000 0.64210  0.93670  0.56900  Biso   1.000  H
  C7       1.0000 0.23440  0.13130  0.50140  Biso   1.000  C
  C8       1.0000 0.76560  0.86870  0.49860  Biso   1.000  C
  C9       1.0000 0.31360  0.24320  0.52660  Biso   1.000  C
  C10      1.0000 0.68640  0.75680  0.47340  Biso   1.000  C
  F11      1.0000 0.41510  0.24757  0.48971  Biso   1.000  F
  F12      1.0000 0.58490  0.75243  0.51029  Biso   1.000  F
  F13      1.0000 0.37400  0.29320  0.64000  Biso   1.000  F
  F14      1.0000 0.62600  0.70680  0.36000  Biso   1.000  F
  F15      1.0000 0.22600  0.30646  0.48126  Biso   1.000  F
  F16      1.0000 0.77400  0.69354  0.51874  Biso   1.000  F
  F17      1.0000 0.36900  0.26950  0.63100  Biso   1.000  F
  F18      1.0000 0.63100  0.73050  0.36900  Biso   1.000  F
  O3       1.0000 0.13490  0.12690  0.53159  Biso   1.000  O
  O4       1.0000 0.86510  0.87310  0.46841  Biso   1.000  O
  Cu2      1.0000 0.50000  0.50000  0.00000  Biso   1.000  Cu
  O5       1.0000 0.33760  0.56820  0.98937  Biso   1.000  O
  O6       1.0000 0.66240  0.43180  0.01063  Biso   1.000  O
  C11      1.0000 0.16260  0.63990  0.03280  Biso   1.000  C
  C12      1.0000 0.83740  0.36010  0.96720  Biso   1.000  C
  F19      1.0000 0.07620  0.60820  0.92646  Biso   1.000  F
  F20      1.0000 0.92380  0.39180  0.07354  Biso   1.000  F
  F21      1.0000 0.20500  0.73170  0.03920  Biso   1.000  F
  F22      1.0000 0.79500  0.26830  0.96080  Biso   1.000  F
  F23      1.0000 0.08640  0.62910  0.09209  Biso   1.000  F
  F24      1.0000 0.91360  0.37090  0.90791  Biso   1.000  F
  F25      1.0000 0.21200  0.75150  0.06190  Biso   1.000  F
  F26      1.0000 0.78800  0.24850  0.93810  Biso   1.000  F
  C13      1.0000 0.28550  0.57810  0.06050  Biso   1.000  C
  C14      1.0000 0.71450  0.42190  0.93950  Biso   1.000  C
  C15      1.0000 0.32720  0.54400  0.15840  Biso   1.000  C
  C16      1.0000 0.67280  0.45600  0.84160  Biso   1.000  C
  H3       1.0000 0.28040  0.56040  0.20600  Biso   1.000  H
  H4       1.0000 0.71960  0.43960  0.79400  Biso   1.000  H
  C17      1.0000 0.43660  0.48600  0.18860  Biso   1.000  C
  C18      1.0000 0.56340  0.51400  0.81140  Biso   1.000  C
  C19      1.0000 0.46970  0.44930  0.29740  Biso   1.000  C
  C20      1.0000 0.53030  0.55070  0.70260  Biso   1.000  C
  F27      1.0000 0.46700  0.52700  0.38100  Biso   1.000  F
  F28      1.0000 0.53300  0.47300  0.61900  Biso   1.000  F
  F29      1.0000 0.39100  0.36590  0.28720  Biso   1.000  F
  F30      1.0000 0.60900  0.63410  0.71280  Biso   1.000  F
  F31      1.0000 0.59910  0.41630  0.33940  Biso   1.000  F
  F32      1.0000 0.40090  0.58370  0.66060  Biso   1.000  F
  F33      1.0000 0.44300  0.51400  0.36800  Biso   1.000  F
  F34      1.0000 0.55700  0.48600  0.63200  Biso   1.000  F
  F35      1.0000 0.37560  0.35780  0.27570  Biso   1.000  F
  F36      1.0000 0.62440  0.64220  0.72430  Biso   1.000  F
  F37      1.0000 0.59800  0.44250  0.33710  Biso   1.000  F
  F38      1.0000 0.40200  0.55750  0.66290  Biso   1.000  F
  O7       1.0000 0.50920  0.45573  0.13627  Biso   1.000  O
  O8       1.0000 0.49080  0.54427  0.86373  Biso   1.000  O
  O9       1.0000 0.91200  0.02539  0.31781  Biso   1.000  O
  O10      1.0000 0.08800  0.97461  0.68219  Biso   1.000  O
  N1       1.0000 0.78220  0.03500  0.26550  Biso   1.000  N
  N2       1.0000 0.21780  0.96500  0.73450  Biso   1.000  N
  C21      1.0000 0.73860  0.14020  0.25000  Biso   1.000  C
  C22      1.0000 0.26140  0.85980  0.75000  Biso   1.000  C
  C23      1.0000 0.78050  0.16860  0.15900  Biso   1.000  C
  C24      1.0000 0.21950  0.83140  0.84100  Biso   1.000  C
  H5       1.0000 0.88250  0.18600  0.18730  Biso   1.000  H
  H6       1.0000 0.11750  0.81400  0.81270  Biso   1.000  H
  H7       1.0000 0.73840  0.22920  0.13580  Biso   1.000  H
  H8       1.0000 0.26160  0.77080  0.86420  Biso   1.000  H
  H9       1.0000 0.74750  0.10860  0.09590  Biso   1.000  H
  H10      1.0000 0.25250  0.89140  0.90410  Biso   1.000  H
  C25      1.0000 0.81360  0.22330  0.35680  Biso   1.000  C
  C26      1.0000 0.18640  0.77670  0.64320  Biso   1.000  C
  H11      1.0000 0.91360  0.23630  0.37270  Biso   1.000  H
  H12      1.0000 0.08640  0.76370  0.62730  Biso   1.000  H
  H13      1.0000 0.80030  0.19820  0.41760  Biso   1.000  H
  H14      1.0000 0.19970  0.80180  0.58240  Biso   1.000  H
  H15      1.0000 0.77510  0.28860  0.34880  Biso   1.000  H
  H16      1.0000 0.22490  0.71140  0.65120  Biso   1.000  H
  C27      1.0000 0.57870  0.11110  0.21410  Biso   1.000  C
  C28      1.0000 0.42130  0.88890  0.78590  Biso   1.000  C
  C29      1.0000 0.48960  0.16550  0.12680  Biso   1.000  C
  C30      1.0000 0.51040  0.83450  0.87320  Biso   1.000  C
  H17      1.0000 0.39050  0.14260  0.10900  Biso   1.000  H
  H18      1.0000 0.60950  0.85740  0.89100  Biso   1.000  H
  H19      1.0000 0.50820  0.14710  0.06010  Biso   1.000  H
  H20      1.0000 0.49180  0.85290  0.93990  Biso   1.000  H
  H21      1.0000 0.51280  0.24170  0.15490  Biso   1.000  H
  H22      1.0000 0.48720  0.75830  0.84510  Biso   1.000  H
  C31      1.0000 0.53320  0.12110  0.31090  Biso   1.000  C
  C32      1.0000 0.46680  0.87890  0.68910  Biso   1.000  C
  H23      1.0000 0.43150  0.10170  0.28260  Biso   1.000  H
  H24      1.0000 0.56850  0.89830  0.71740  Biso   1.000  H
  H25      1.0000 0.56090  0.19380  0.35350  Biso   1.000  H
  H26      1.0000 0.43910  0.80620  0.64650  Biso   1.000  H
  H27      1.0000 0.57820  0.07420  0.35840  Biso   1.000  H
  H28      1.0000 0.42180  0.92580  0.64160  Biso   1.000  H
  N3       1.0000 0.55760  0.99560  0.16590  Biso   1.000  N
  N4       1.0000 0.44240  0.00440  0.83410  Biso   1.000  N
  O11      1.0000 0.43640  0.94185  0.10611  Biso   1.000  O
  O12      1.0000 0.56360  0.05815  0.89389  Biso   1.000  O
  C33      1.0000 0.67740  0.95580  0.20550  Biso   1.000  C
  C34      1.0000 0.32260  0.04420  0.79450  Biso   1.000  C
  C35      1.0000 0.69080  0.84650  0.18550  Biso   1.000  C
  C36      1.0000 0.30920  0.15350  0.81450  Biso   1.000  C
  C37      1.0000 0.58610  0.75850  0.12250  Biso   1.000  C
  C38      1.0000 0.41390  0.24150  0.87750  Biso   1.000  C
  H29      1.0000 0.49000  0.76230  0.08510  Biso   1.000  H
  H30      1.0000 0.51000  0.23770  0.91490  Biso   1.000  H
  N5       1.0000 0.63950  0.67020  0.12240  Biso   1.000  N
  N6       1.0000 0.36050  0.32980  0.87760  Biso   1.000  N
  H31      1.0000 0.59450  0.60600  0.08920  Biso   1.000  H
  H32      1.0000 0.40550  0.39400  0.91080  Biso   1.000  H
  N7       1.0000 0.77890  0.70000  0.18490  Biso   1.000  N
  N8       1.0000 0.22110  0.30000  0.81510  Biso   1.000  N
  C39      1.0000 0.87160  0.62240  0.21430  Biso   1.000  C
  C40      1.0000 0.12840  0.37760  0.78570  Biso   1.000  C
  H33      1.0000 0.96750  0.65330  0.22730  Biso   1.000  H
  H34      1.0000 0.03250  0.34670  0.77270  Biso   1.000  H
  H35      1.0000 0.84060  0.56080  0.15180  Biso   1.000  H
  H36      1.0000 0.15940  0.43920  0.84820  Biso   1.000  H
  C41      1.0000 0.87390  0.58620  0.31650  Biso   1.000  C
  C42      1.0000 0.12610  0.41380  0.68350  Biso   1.000  C
  H37      1.0000 0.77670  0.56350  0.30710  Biso   1.000  H
  H38      1.0000 0.22330  0.43650  0.69290  Biso   1.000  H
  H39      1.0000 0.91580  0.64610  0.38090  Biso   1.000  H
  H40      1.0000 0.08420  0.35390  0.61910  Biso   1.000  H
  C43      1.0000 0.95670  0.49570  0.33950  Biso   1.000  C
  C44      1.0000 0.04330  0.50430  0.66050  Biso   1.000  C
  H41      1.0000 0.94460  0.46970  0.40090  Biso   1.000  H
  H42      1.0000 0.05540  0.53030  0.59910  Biso   1.000  H
  H43      1.0000 0.91770  0.43740  0.27340  Biso   1.000  H
  H44      1.0000 0.08230  0.56260  0.72660  Biso   1.000  H
  C45      1.0000 0.11030  0.52580  0.36850  Biso   1.000  C
  C46      1.0000 0.88970  0.47420  0.63150  Biso   1.000  C
  H45      1.0000 0.15710  0.46460  0.38210  Biso   1.000  H
  H46      1.0000 0.84290  0.53540  0.61790  Biso   1.000  H
  H47      1.0000 0.15040  0.58220  0.43500  Biso   1.000  H
  H48      1.0000 0.84960  0.41780  0.56500  Biso   1.000  H
  H49      1.0000 0.12350  0.55000  0.30740  Biso   1.000  H
  H50      1.0000 0.87650  0.45000  0.69260  Biso   1.000  H
  C47      1.0000 0.81380  0.80390  0.22430  Biso   1.000  C
  C48      1.0000 0.18620  0.19610  0.77570  Biso   1.000  C
  H51      1.0000 0.90470  0.84150  0.26970  Biso   1.000  H
  H52      1.0000 0.09530  0.15850  0.73030  Biso   1.000  H
  Cl1      1.0000 0.16427  0.17766  0.21442  Biso   1.000  Cl
  Cl2      1.0000 0.83573  0.82234  0.78558  Biso   1.000  Cl
  C49      1.0000 0.11080  0.06090  0.15350  Biso   1.000  C
  C50      1.0000 0.88920  0.93910  0.84650  Biso   1.000  C
  C51      1.0000 0.03270  0.05540  0.02990  Biso   1.000  C
  C52      1.0000 0.96730  0.94460  0.97010  Biso   1.000  C
