data_image0
_cell_length_a       10.628
_cell_length_b       13.153
_cell_length_c       13.451
_cell_angle_alpha    98.316
_cell_angle_beta     110.69
_cell_angle_gamma    98.05

_symmetry_space_group_name_H-M    "P 1"
_symmetry_int_tables_number       1

loop_
  _symmetry_equiv_pos_as_xyz
  'x, y, z'

loop_
  _atom_site_label
  _atom_site_occupancy
  _atom_site_fract_x
  _atom_site_fract_y
  _atom_site_fract_z
  _atom_site_thermal_displace_type
  _atom_site_B_iso_or_equiv
  _atom_site_type_symbol
  Cu1      1.0000 0.50000  0.50000  0.00000  Biso   1.000  Cu
  O1       1.0000 0.38230  0.58530  0.05530  Biso   1.000  O
  O2       1.0000 0.61770  0.41470  0.94470  Biso   1.000  O
  C1       1.0000 0.23530  0.62520  0.14040  Biso   1.000  C
  C2       1.0000 0.76470  0.37480  0.85960  Biso   1.000  C
  F1       1.0000 0.34590  0.67010  0.24240  Biso   1.000  F
  F2       1.0000 0.65410  0.32990  0.75760  Biso   1.000  F
  F3       1.0000 0.14100  0.59000  0.17370  Biso   1.000  F
  F4       1.0000 0.85900  0.41000  0.82630  Biso   1.000  F
  F5       1.0000 0.20100  0.70060  0.07960  Biso   1.000  F
  F6       1.0000 0.79900  0.29940  0.92040  Biso   1.000  F
  F7       1.0000 0.23900  0.71300  0.11920  Biso   1.000  F
  F8       1.0000 0.76100  0.28700  0.88080  Biso   1.000  F
  F9       1.0000 0.29500  0.64800  0.23100  Biso   1.000  F
  F10      1.0000 0.70500  0.35200  0.76900  Biso   1.000  F
  F11      1.0000 0.10400  0.59100  0.12340  Biso   1.000  F
  F12      1.0000 0.89600  0.40900  0.87660  Biso   1.000  F
  C3       1.0000 0.28500  0.54610  0.07820  Biso   1.000  C
  C4       1.0000 0.71500  0.45390  0.92180  Biso   1.000  C
  C5       1.0000 0.22110  0.44060  0.05480  Biso   1.000  C
  C6       1.0000 0.77890  0.55940  0.94520  Biso   1.000  C
  H1       1.0000 0.14640  0.42170  0.07620  Biso   1.000  H
  H2       1.0000 0.85360  0.57830  0.92380  Biso   1.000  H
  C7       1.0000 0.26360  0.36230  0.00110  Biso   1.000  C
  C8       1.0000 0.73640  0.63770  0.99890  Biso   1.000  C
  C9       1.0000 0.18500  0.24890  0.97680  Biso   1.000  C
  C10      1.0000 0.81500  0.75110  0.02320  Biso   1.000  C
  F13      1.0000 0.15300  0.20400  0.88010  Biso   1.000  F
  F14      1.0000 0.84700  0.79600  0.11990  Biso   1.000  F
  F15      1.0000 0.06900  0.24020  0.00300  Biso   1.000  F
  F16      1.0000 0.93100  0.75980  0.99700  Biso   1.000  F
  F17      1.0000 0.26100  0.18700  0.03400  Biso   1.000  F
  F18      1.0000 0.73900  0.81300  0.96600  Biso   1.000  F
  F19      1.0000 0.26940  0.19290  0.01700  Biso   1.000  F
  F20      1.0000 0.73060  0.80710  0.98300  Biso   1.000  F
  F21      1.0000 0.10300  0.23500  0.02200  Biso   1.000  F
  F22      1.0000 0.89700  0.76500  0.97800  Biso   1.000  F
  F23      1.0000 0.11700  0.21300  0.86870  Biso   1.000  F
  F24      1.0000 0.88300  0.78700  0.13130  Biso   1.000  F
  O3       1.0000 0.36100  0.37130  0.96900  Biso   1.000  O
  O4       1.0000 0.63900  0.62870  0.03100  Biso   1.000  O
  Cu2      1.0000 0.00000  0.00000  0.50000  Biso   1.000  Cu
  O5       1.0000 0.01060  0.94870  0.63330  Biso   1.000  O
  O6       1.0000 0.98940  0.05130  0.36670  Biso   1.000  O
  C11      1.0000 0.98010  0.93490  0.79580  Biso   1.000  C
  C12      1.0000 0.01990  0.06510  0.20420  Biso   1.000  C
  F25      1.0000 0.11200  0.94300  0.84230  Biso   1.000  F
  F26      1.0000 0.88800  0.05700  0.15770  Biso   1.000  F
  F27      1.0000 0.88800  0.83510  0.77500  Biso   1.000  F
  F28      1.0000 0.11200  0.16490  0.22500  Biso   1.000  F
  F29      1.0000 0.97100  0.00000  0.87200  Biso   1.000  F
  F30      1.0000 0.02900  0.00000  0.12800  Biso   1.000  F
  F31      1.0000 0.92900  0.84340  0.78050  Biso   1.000  F
  F32      1.0000 0.07100  0.15660  0.21950  Biso   1.000  F
  F33      1.0000 0.93900  0.98600  0.87100  Biso   1.000  F
  F34      1.0000 0.06100  0.01400  0.12900  Biso   1.000  F
  F35      1.0000 0.10300  0.91410  0.82870  Biso   1.000  F
  F36      1.0000 0.89700  0.08590  0.17130  Biso   1.000  F
  C13      1.0000 0.94390  0.97540  0.69010  Biso   1.000  C
  C14      1.0000 0.05610  0.02460  0.30990  Biso   1.000  C
  C15      1.0000 0.84140  0.03400  0.66680  Biso   1.000  C
  C16      1.0000 0.15860  0.96600  0.33320  Biso   1.000  C
  H3       1.0000 0.79990  0.04910  0.71770  Biso   1.000  H
  H4       1.0000 0.20010  0.95090  0.28230  Biso   1.000  H
  C17      1.0000 0.79880  0.07070  0.57190  Biso   1.000  C
  C18      1.0000 0.20120  0.92930  0.42810  Biso   1.000  C
  C19      1.0000 0.68350  0.13270  0.55020  Biso   1.000  C
  C20      1.0000 0.31650  0.86730  0.44980  Biso   1.000  C
  F37      1.0000 0.72900  0.21810  0.55000  Biso   1.000  F
  F38      1.0000 0.27100  0.78190  0.45000  Biso   1.000  F
  F39      1.0000 0.61500  0.12600  0.61300  Biso   1.000  F
  F40      1.0000 0.38500  0.87400  0.38700  Biso   1.000  F
  F41      1.0000 0.58760  0.09600  0.45220  Biso   1.000  F
  F42      1.0000 0.41240  0.90400  0.54780  Biso   1.000  F
  F43      1.0000 0.73200  0.24400  0.56000  Biso   1.000  F
  F44      1.0000 0.26800  0.75600  0.44000  Biso   1.000  F
  F45      1.0000 0.63000  0.13400  0.62900  Biso   1.000  F
  F46      1.0000 0.37000  0.86600  0.37100  Biso   1.000  F
  O7       1.0000 0.84460  0.06290  0.49730  Biso   1.000  O
  O8       1.0000 0.15540  0.93710  0.50270  Biso   1.000  O
  O9       1.0000 0.42280  0.51890  0.82710  Biso   1.000  O
  O10      1.0000 0.57720  0.48110  0.17290  Biso   1.000  O
  N1       1.0000 0.29840  0.53000  0.77440  Biso   1.000  N
  N2       1.0000 0.70160  0.47000  0.22560  Biso   1.000  N
  C21      1.0000 0.26600  0.63470  0.75740  Biso   1.000  C
  C22      1.0000 0.73400  0.36530  0.24260  Biso   1.000  C
  C23      1.0000 0.31760  0.66070  0.66950  Biso   1.000  C
  C24      1.0000 0.68240  0.33930  0.33050  Biso   1.000  C
  H5       1.0000 0.41830  0.67450  0.69880  Biso   1.000  H
  H6       1.0000 0.58170  0.32550  0.30120  Biso   1.000  H
  H7       1.0000 0.28620  0.72310  0.64610  Biso   1.000  H
  H8       1.0000 0.71380  0.27690  0.35390  Biso   1.000  H
  H9       1.0000 0.28150  0.60130  0.60720  Biso   1.000  H
  H10      1.0000 0.71850  0.39870  0.39280  Biso   1.000  H
  C25      1.0000 0.33930  0.71740  0.86200  Biso   1.000  C
  C26      1.0000 0.66070  0.28260  0.13800  Biso   1.000  C
  H11      1.0000 0.43890  0.72450  0.88400  Biso   1.000  H
  H12      1.0000 0.56110  0.27550  0.11600  Biso   1.000  H
  H13      1.0000 0.31170  0.69610  0.91940  Biso   1.000  H
  H14      1.0000 0.68830  0.30390  0.08060  Biso   1.000  H
  H15      1.0000 0.31450  0.78490  0.85010  Biso   1.000  H
  H16      1.0000 0.68550  0.21510  0.14990  Biso   1.000  H
  C27      1.0000 0.10750  0.60800  0.71710  Biso   1.000  C
  C28      1.0000 0.89250  0.39200  0.28290  Biso   1.000  C
  C29      1.0000 0.03150  0.66280  0.62940  Biso   1.000  C
  C30      1.0000 0.96850  0.33720  0.37060  Biso   1.000  C
  H17      1.0000 0.93230  0.64100  0.60980  Biso   1.000  H
  H18      1.0000 0.06770  0.35900  0.39020  Biso   1.000  H
  H19      1.0000 0.05360  0.64380  0.56520  Biso   1.000  H
  H20      1.0000 0.94640  0.35620  0.43480  Biso   1.000  H
  H21      1.0000 0.05950  0.73900  0.65660  Biso   1.000  H
  H22      1.0000 0.94050  0.26100  0.34340  Biso   1.000  H
  C31      1.0000 0.05270  0.61770  0.80910  Biso   1.000  C
  C32      1.0000 0.94730  0.38230  0.19090  Biso   1.000  C
  H23      1.0000 0.95200  0.60370  0.77770  Biso   1.000  H
  H24      1.0000 0.04800  0.39630  0.22230  Biso   1.000  H
  H25      1.0000 0.08790  0.68880  0.85420  Biso   1.000  H
  H26      1.0000 0.91210  0.31120  0.14580  Biso   1.000  H
  H27      1.0000 0.08330  0.56670  0.85410  Biso   1.000  H
  H28      1.0000 0.91670  0.43330  0.14590  Biso   1.000  H
  N3       1.0000 0.07930  0.49170  0.67080  Biso   1.000  N
  N4       1.0000 0.92070  0.50830  0.32920  Biso   1.000  N
  O11      1.0000 0.95940  0.43920  0.61100  Biso   1.000  O
  O12      1.0000 0.04060  0.56080  0.38900  Biso   1.000  O
  C33      1.0000 0.19230  0.45110  0.71320  Biso   1.000  C
  C34      1.0000 0.80770  0.54890  0.28680  Biso   1.000  C
  C35      1.0000 0.19810  0.34260  0.69160  Biso   1.000  C
  C36      1.0000 0.80190  0.65740  0.30840  Biso   1.000  C
  C37      1.0000 0.09250  0.25690  0.62300  Biso   1.000  C
  C38      1.0000 0.90750  0.74310  0.37700  Biso   1.000  C
  H29      1.0000 0.00060  0.26190  0.58330  Biso   1.000  H
  H30      1.0000 0.99940  0.73810  0.41670  Biso   1.000  H
  N5       1.0000 0.13900  0.16850  0.62150  Biso   1.000  N
  N6       1.0000 0.86100  0.83150  0.37850  Biso   1.000  N
  N7       1.0000 0.27280  0.19550  0.68980  Biso   1.000  N
  N8       1.0000 0.72720  0.80450  0.31020  Biso   1.000  N
  C39      1.0000 0.35700  0.11580  0.70940  Biso   1.000  C
  C40      1.0000 0.64300  0.88420  0.29060  Biso   1.000  C
  H31      1.0000 0.29650  0.04610  0.67190  Biso   1.000  H
  H32      1.0000 0.70350  0.95390  0.32810  Biso   1.000  H
  H33      1.0000 0.42470  0.12750  0.67490  Biso   1.000  H
  H34      1.0000 0.57530  0.87250  0.32510  Biso   1.000  H
  C41      1.0000 0.42920  0.11210  0.81870  Biso   1.000  C
  C42      1.0000 0.57080  0.88790  0.18130  Biso   1.000  C
  H35      1.0000 0.36350  0.10400  0.85540  Biso   1.000  H
  H36      1.0000 0.63650  0.89600  0.14460  Biso   1.000  H
  H37      1.0000 0.49580  0.17930  0.85590  Biso   1.000  H
  H38      1.0000 0.50420  0.82070  0.14410  Biso   1.000  H
  C43      1.0000 0.50760  0.02020  0.82980  Biso   1.000  C
  C44      1.0000 0.49240  0.97980  0.17020  Biso   1.000  C
  H39      1.0000 0.45270  0.96240  0.84610  Biso   1.000  H
  H40      1.0000 0.54730  0.03760  0.15390  Biso   1.000  H
  H41      1.0000 0.51170  0.99400  0.75850  Biso   1.000  H
  H42      1.0000 0.48830  0.00600  0.24150  Biso   1.000  H
  C45      1.0000 0.63430  0.04140  0.90450  Biso   1.000  C
  C46      1.0000 0.36570  0.95860  0.09550  Biso   1.000  C
  H43      1.0000 0.67420  0.97870  0.90190  Biso   1.000  H
  H44      1.0000 0.32580  0.02130  0.09810  Biso   1.000  H
  H45      1.0000 0.63190  0.06240  0.97660  Biso   1.000  H
  H46      1.0000 0.36810  0.93760  0.02340  Biso   1.000  H
  H47      1.0000 0.69050  0.09870  0.89010  Biso   1.000  H
  H48      1.0000 0.30950  0.90130  0.10990  Biso   1.000  H
  C47      1.0000 0.31240  0.29790  0.73300  Biso   1.000  C
  C48      1.0000 0.68760  0.70210  0.26700  Biso   1.000  C
  H49      1.0000 0.40150  0.33380  0.78260  Biso   1.000  H
  H50      1.0000 0.59850  0.66620  0.21740  Biso   1.000  H
  I1       1.0000 0.36468  0.29712  0.45630  Biso   1.000  I
  I2       1.0000 0.63532  0.70288  0.54370  Biso   1.000  I
  C49      1.0000 0.50800  0.42720  0.57460  Biso   1.000  C
  C50      1.0000 0.49200  0.57280  0.42540  Biso   1.000  C
  H51      1.0000 0.59360  0.40810  0.57600  Biso   1.000  H
  H52      1.0000 0.40640  0.59190  0.42400  Biso   1.000  H
  H53      1.0000 0.51220  0.45000  0.64670  Biso   1.000  H
  H54      1.0000 0.48780  0.55000  0.35330  Biso   1.000  H
  C51      1.0000 0.50000  0.50000  0.50000  Biso   1.000  C
  H55      1.0000 0.41870  0.52260  0.50430  Biso   1.000  H
  H56      1.0000 0.58130  0.47740  0.49570  Biso   1.000  H
  H57      1.0000 0.48430  0.47230  0.42610  Biso   1.000  H
  H58      1.0000 0.51570  0.52770  0.57390  Biso   1.000  H
  C52      1.0000 0.62390  0.60340  0.56300  Biso   1.000  C
  C53      1.0000 0.37610  0.39660  0.43700  Biso   1.000  C
  H59      1.0000 0.69800  0.58370  0.54320  Biso   1.000  H
  H60      1.0000 0.30200  0.41630  0.45680  Biso   1.000  H
  H61      1.0000 0.65310  0.61470  0.64010  Biso   1.000  H
  H62      1.0000 0.34690  0.38530  0.35990  Biso   1.000  H
  C54      1.0000 0.55500  0.67490  0.49710  Biso   1.000  C
  C55      1.0000 0.44500  0.32510  0.50290  Biso   1.000  C
  H63      1.0000 0.63890  0.72970  0.53040  Biso   1.000  H
  H64      1.0000 0.36110  0.27030  0.46960  Biso   1.000  H
  H65      1.0000 0.52730  0.66460  0.42030  Biso   1.000  H
  H66      1.0000 0.47270  0.33540  0.57970  Biso   1.000  H
  H67      1.0000 0.48200  0.69580  0.51820  Biso   1.000  H
  H68      1.0000 0.51800  0.30420  0.48180  Biso   1.000  H
