data_image0
_cell_length_a       10.865
_cell_length_b       13.334
_cell_length_c       13.637
_cell_angle_alpha    98.583
_cell_angle_beta     111.859
_cell_angle_gamma    96.863

_symmetry_space_group_name_H-M    "P 1"
_symmetry_int_tables_number       1

loop_
  _symmetry_equiv_pos_as_xyz
  'x, y, z'

loop_
  _atom_site_label
  _atom_site_occupancy
  _atom_site_fract_x
  _atom_site_fract_y
  _atom_site_fract_z
  _atom_site_thermal_displace_type
  _atom_site_B_iso_or_equiv
  _atom_site_type_symbol
  Cu1      1.0000 0.50000  0.50000  0.00000  Biso   1.000  Cu
  O1       1.0000 0.39080  0.58120  0.05640  Biso   1.000  O
  O2       1.0000 0.60920  0.41880  0.94360  Biso   1.000  O
  C1       1.0000 0.24320  0.62180  0.13660  Biso   1.000  C
  C2       1.0000 0.75680  0.37820  0.86340  Biso   1.000  C
  F1       1.0000 0.35000  0.67900  0.22780  Biso   1.000  F
  F2       1.0000 0.65000  0.32100  0.77220  Biso   1.000  F
  F3       1.0000 0.15800  0.58860  0.17400  Biso   1.000  F
  F4       1.0000 0.84200  0.41140  0.82600  Biso   1.000  F
  F5       1.0000 0.20100  0.68870  0.08060  Biso   1.000  F
  F6       1.0000 0.79900  0.31130  0.91940  Biso   1.000  F
  F7       1.0000 0.26000  0.70940  0.12000  Biso   1.000  F
  F8       1.0000 0.74000  0.29060  0.88000  Biso   1.000  F
  F9       1.0000 0.29100  0.62400  0.23470  Biso   1.000  F
  F10      1.0000 0.70900  0.37600  0.76530  Biso   1.000  F
  F11      1.0000 0.11200  0.59560  0.10390  Biso   1.000  F
  F12      1.0000 0.88800  0.40440  0.89610  Biso   1.000  F
  C3       1.0000 0.29600  0.54270  0.07870  Biso   1.000  C
  C4       1.0000 0.70400  0.45730  0.92130  Biso   1.000  C
  C5       1.0000 0.23680  0.44050  0.05670  Biso   1.000  C
  C6       1.0000 0.76320  0.55950  0.94330  Biso   1.000  C
  H1       1.0000 0.16630  0.42290  0.07790  Biso   1.000  H
  H2       1.0000 0.83370  0.57710  0.92210  Biso   1.000  H
  C7       1.0000 0.27760  0.36310  0.00480  Biso   1.000  C
  C8       1.0000 0.72240  0.63690  0.99520  Biso   1.000  C
  C9       1.0000 0.20180  0.25180  0.98010  Biso   1.000  C
  C10      1.0000 0.79820  0.74820  0.01990  Biso   1.000  C
  F13      1.0000 0.19300  0.19930  0.90100  Biso   1.000  F
  F14      1.0000 0.80700  0.80070  0.09900  Biso   1.000  F
  F15      1.0000 0.09400  0.24740  0.99400  Biso   1.000  F
  F16      1.0000 0.90600  0.75260  0.00600  Biso   1.000  F
  F17      1.0000 0.27900  0.20400  0.05600  Biso   1.000  F
  F18      1.0000 0.72100  0.79600  0.94400  Biso   1.000  F
  F19      1.0000 0.28590  0.19220  0.01210  Biso   1.000  F
  F20      1.0000 0.71410  0.80780  0.98790  Biso   1.000  F
  F21      1.0000 0.12400  0.23560  0.03000  Biso   1.000  F
  F22      1.0000 0.87600  0.76440  0.97000  Biso   1.000  F
  F23      1.0000 0.12810  0.22200  0.87670  Biso   1.000  F
  F24      1.0000 0.87190  0.77800  0.12330  Biso   1.000  F
  O3       1.0000 0.37210  0.37220  0.97340  Biso   1.000  O
  O4       1.0000 0.62790  0.62780  0.02660  Biso   1.000  O
  Cu2      1.0000 0.00000  0.00000  0.50000  Biso   1.000  Cu
  O5       1.0000 0.01680  0.95210  0.63350  Biso   1.000  O
  O6       1.0000 0.98320  0.04790  0.36650  Biso   1.000  O
  C11      1.0000 0.99570  0.94060  0.79580  Biso   1.000  C
  C12      1.0000 0.00430  0.05940  0.20420  Biso   1.000  C
  F25      1.0000 0.12900  0.95430  0.84850  Biso   1.000  F
  F26      1.0000 0.87100  0.04570  0.15150  Biso   1.000  F
  F27      1.0000 0.89700  0.85360  0.77400  Biso   1.000  F
  F28      1.0000 0.10300  0.14640  0.22600  Biso   1.000  F
  F29      1.0000 0.99600  0.00810  0.87280  Biso   1.000  F
  F30      1.0000 0.00400  0.99190  0.12720  Biso   1.000  F
  F31      1.0000 0.95400  0.84820  0.78550  Biso   1.000  F
  F32      1.0000 0.04600  0.15180  0.21450  Biso   1.000  F
  F33      1.0000 0.95000  0.98160  0.86420  Biso   1.000  F
  F34      1.0000 0.05000  0.01840  0.13580  Biso   1.000  F
  F35      1.0000 0.10300  0.90600  0.81740  Biso   1.000  F
  F36      1.0000 0.89700  0.09400  0.18260  Biso   1.000  F
  C13      1.0000 0.95490  0.97900  0.69010  Biso   1.000  C
  C14      1.0000 0.04510  0.02100  0.30990  Biso   1.000  C
  C15      1.0000 0.85400  0.03750  0.66760  Biso   1.000  C
  C16      1.0000 0.14600  0.96250  0.33240  Biso   1.000  C
  H3       1.0000 0.81640  0.05270  0.71780  Biso   1.000  H
  H4       1.0000 0.18360  0.94730  0.28220  Biso   1.000  H
  C17      1.0000 0.80780  0.07380  0.57380  Biso   1.000  C
  C18      1.0000 0.19220  0.92620  0.42620  Biso   1.000  C
  C19      1.0000 0.69620  0.13490  0.55650  Biso   1.000  C
  C20      1.0000 0.30380  0.86510  0.44350  Biso   1.000  C
  F37      1.0000 0.73200  0.20890  0.55600  Biso   1.000  F
  F38      1.0000 0.26800  0.79110  0.44400  Biso   1.000  F
  F39      1.0000 0.61800  0.12070  0.60510  Biso   1.000  F
  F40      1.0000 0.38200  0.87930  0.39490  Biso   1.000  F
  F41      1.0000 0.59910  0.10040  0.46150  Biso   1.000  F
  F42      1.0000 0.40090  0.89960  0.53850  Biso   1.000  F
  F43      1.0000 0.73370  0.24130  0.54960  Biso   1.000  F
  F44      1.0000 0.26630  0.75870  0.45040  Biso   1.000  F
  F45      1.0000 0.66390  0.15250  0.63640  Biso   1.000  F
  F46      1.0000 0.33610  0.84750  0.36360  Biso   1.000  F
  O7       1.0000 0.84910  0.06449  0.49930  Biso   1.000  O
  O8       1.0000 0.15090  0.93551  0.50070  Biso   1.000  O
  O9       1.0000 0.40710  0.51780  0.82130  Biso   1.000  O
  O10      1.0000 0.59290  0.48220  0.17870  Biso   1.000  O
  N1       1.0000 0.28280  0.52650  0.76930  Biso   1.000  N
  N2       1.0000 0.71720  0.47350  0.23070  Biso   1.000  N
  C21      1.0000 0.24410  0.62820  0.75350  Biso   1.000  C
  C22      1.0000 0.75590  0.37180  0.24650  Biso   1.000  C
  C23      1.0000 0.29160  0.65730  0.66690  Biso   1.000  C
  C24      1.0000 0.70840  0.34270  0.33310  Biso   1.000  C
  H5       1.0000 0.38850  0.67050  0.69540  Biso   1.000  H
  H6       1.0000 0.61150  0.32950  0.30460  Biso   1.000  H
  H7       1.0000 0.25950  0.71810  0.64640  Biso   1.000  H
  H8       1.0000 0.74050  0.28190  0.35360  Biso   1.000  H
  H9       1.0000 0.25650  0.60140  0.60480  Biso   1.000  H
  H10      1.0000 0.74350  0.39860  0.39520  Biso   1.000  H
  C25      1.0000 0.31480  0.70920  0.85850  Biso   1.000  C
  C26      1.0000 0.68520  0.29080  0.14150  Biso   1.000  C
  H11      1.0000 0.41090  0.71690  0.88060  Biso   1.000  H
  H12      1.0000 0.58910  0.28310  0.11940  Biso   1.000  H
  H13      1.0000 0.28980  0.68760  0.91360  Biso   1.000  H
  H14      1.0000 0.71020  0.31240  0.08640  Biso   1.000  H
  H15      1.0000 0.28830  0.77410  0.84720  Biso   1.000  H
  H16      1.0000 0.71170  0.22590  0.15280  Biso   1.000  H
  C27      1.0000 0.08880  0.59720  0.71270  Biso   1.000  C
  C28      1.0000 0.91120  0.40280  0.28730  Biso   1.000  C
  C29      1.0000 0.00800  0.64940  0.62500  Biso   1.000  C
  C30      1.0000 0.99200  0.35060  0.37500  Biso   1.000  C
  H17      1.0000 0.91330  0.62770  0.60720  Biso   1.000  H
  H18      1.0000 0.08670  0.37230  0.39280  Biso   1.000  H
  H19      1.0000 0.02660  0.63060  0.56200  Biso   1.000  H
  H20      1.0000 0.97340  0.36940  0.43800  Biso   1.000  H
  H21      1.0000 0.03270  0.72300  0.65050  Biso   1.000  H
  H22      1.0000 0.96730  0.27700  0.34950  Biso   1.000  H
  C31      1.0000 0.03700  0.60460  0.80290  Biso   1.000  C
  C32      1.0000 0.96300  0.39540  0.19710  Biso   1.000  C
  H23      1.0000 0.94010  0.59100  0.77190  Biso   1.000  H
  H24      1.0000 0.05990  0.40900  0.22810  Biso   1.000  H
  H25      1.0000 0.06990  0.67270  0.84780  Biso   1.000  H
  H26      1.0000 0.93010  0.32730  0.15220  Biso   1.000  H
  H27      1.0000 0.06860  0.55470  0.84560  Biso   1.000  H
  H28      1.0000 0.93140  0.44530  0.15440  Biso   1.000  H
  N3       1.0000 0.06800  0.48430  0.66740  Biso   1.000  N
  N4       1.0000 0.93200  0.51570  0.33260  Biso   1.000  N
  O11      1.0000 0.95210  0.43060  0.60860  Biso   1.000  O
  O12      1.0000 0.04790  0.56940  0.39140  Biso   1.000  O
  C33      1.0000 0.18140  0.44620  0.70830  Biso   1.000  C
  C34      1.0000 0.81860  0.55380  0.29170  Biso   1.000  C
  C35      1.0000 0.19390  0.34050  0.68760  Biso   1.000  C
  C36      1.0000 0.80610  0.65950  0.31240  Biso   1.000  C
  C37      1.0000 0.09410  0.25540  0.62060  Biso   1.000  C
  C38      1.0000 0.90590  0.74460  0.37940  Biso   1.000  C
  H29      1.0000 0.00430  0.25900  0.58260  Biso   1.000  H
  H30      1.0000 0.99570  0.74100  0.41740  Biso   1.000  H
  N5       1.0000 0.14250  0.16930  0.61780  Biso   1.000  N
  N6       1.0000 0.85750  0.83070  0.38220  Biso   1.000  N
  N7       1.0000 0.27540  0.19830  0.68460  Biso   1.000  N
  N8       1.0000 0.72460  0.80170  0.31540  Biso   1.000  N
  C39      1.0000 0.36370  0.12280  0.70340  Biso   1.000  C
  C40      1.0000 0.63630  0.87720  0.29660  Biso   1.000  C
  H31      1.0000 0.31320  0.05680  0.65640  Biso   1.000  H
  H32      1.0000 0.68680  0.94320  0.34360  Biso   1.000  H
  H33      1.0000 0.43770  0.14400  0.68300  Biso   1.000  H
  H34      1.0000 0.56230  0.85600  0.31700  Biso   1.000  H
  C41      1.0000 0.41810  0.10880  0.81110  Biso   1.000  C
  C42      1.0000 0.58190  0.89120  0.18890  Biso   1.000  C
  H35      1.0000 0.34600  0.09900  0.83650  Biso   1.000  H
  H36      1.0000 0.65400  0.90100  0.16350  Biso   1.000  H
  H37      1.0000 0.48240  0.17060  0.85690  Biso   1.000  H
  H38      1.0000 0.51760  0.82940  0.14310  Biso   1.000  H
  C43      1.0000 0.49260  0.01070  0.82180  Biso   1.000  C
  C44      1.0000 0.50740  0.98930  0.17820  Biso   1.000  C
  H39      1.0000 0.45460  0.96360  0.85550  Biso   1.000  H
  H40      1.0000 0.54540  0.03640  0.14450  Biso   1.000  H
  H41      1.0000 0.48010  0.97390  0.75090  Biso   1.000  H
  H42      1.0000 0.51990  0.02610  0.24910  Biso   1.000  H
  C45      1.0000 0.59790  0.03870  0.87030  Biso   1.000  C
  C46      1.0000 0.40210  0.96130  0.12970  Biso   1.000  C
  H43      1.0000 0.64560  0.98250  0.87180  Biso   1.000  H
  H44      1.0000 0.35440  0.01750  0.12820  Biso   1.000  H
  H45      1.0000 0.60980  0.06870  0.94250  Biso   1.000  H
  H46      1.0000 0.39020  0.93130  0.05750  Biso   1.000  H
  H47      1.0000 0.63250  0.09010  0.83990  Biso   1.000  H
  H48      1.0000 0.36750  0.90990  0.16010  Biso   1.000  H
  C47      1.0000 0.30880  0.29900  0.72640  Biso   1.000  C
  C48      1.0000 0.69120  0.70100  0.27360  Biso   1.000  C
  H49      1.0000 0.39440  0.33520  0.77340  Biso   1.000  H
  H50      1.0000 0.60560  0.66480  0.22660  Biso   1.000  H
  I1       1.0000 0.37480  0.30510  0.43970  Biso   1.000  I
  I2       1.0000 0.62520  0.69490  0.56030  Biso   1.000  I
  C49      1.0000 0.47300  0.43290  0.56820  Biso   1.000  C
  C50      1.0000 0.52700  0.56710  0.43180  Biso   1.000  C
  H51      1.0000 0.55860  0.41380  0.56960  Biso   1.000  H
  H52      1.0000 0.44140  0.58620  0.43040  Biso   1.000  H
  H53      1.0000 0.47730  0.45570  0.64020  Biso   1.000  H
  H54      1.0000 0.52270  0.54430  0.35980  Biso   1.000  H
  C51      1.0000 0.50000  0.50000  0.50000  Biso   1.000  C
  H55      1.0000 0.41870  0.52260  0.50430  Biso   1.000  H
  H56      1.0000 0.58130  0.47740  0.49570  Biso   1.000  H
  H57      1.0000 0.51570  0.52770  0.57390  Biso   1.000  H
  H58      1.0000 0.48430  0.47230  0.42610  Biso   1.000  H
  C52      1.0000 0.37760  0.41630  0.40270  Biso   1.000  C
  C53      1.0000 0.62240  0.58370  0.59730  Biso   1.000  C
  H59      1.0000 0.30350  0.43610  0.42270  Biso   1.000  H
  H60      1.0000 0.69650  0.56390  0.57730  Biso   1.000  H
  H61      1.0000 0.34830  0.40510  0.32580  Biso   1.000  H
  H62      1.0000 0.65170  0.59490  0.67420  Biso   1.000  H
  C54      1.0000 0.58320  0.67530  0.52230  Biso   1.000  C
  C55      1.0000 0.41680  0.32470  0.47770  Biso   1.000  C
  H63      1.0000 0.66740  0.73010  0.55560  Biso   1.000  H
  H64      1.0000 0.33260  0.26990  0.44440  Biso   1.000  H
  H65      1.0000 0.55580  0.66500  0.44550  Biso   1.000  H
  H66      1.0000 0.44420  0.33500  0.55450  Biso   1.000  H
  H67      1.0000 0.51050  0.69630  0.54340  Biso   1.000  H
  H68      1.0000 0.48950  0.30370  0.45660  Biso   1.000  H
