data_image0
_cell_length_a       10.7287
_cell_length_b       13.29
_cell_length_c       13.5384
_cell_angle_alpha    98.573
_cell_angle_beta     111.987
_cell_angle_gamma    97.182

_symmetry_space_group_name_H-M    "P 1"
_symmetry_int_tables_number       1

loop_
  _symmetry_equiv_pos_as_xyz
  'x, y, z'

loop_
  _atom_site_label
  _atom_site_occupancy
  _atom_site_fract_x
  _atom_site_fract_y
  _atom_site_fract_z
  _atom_site_thermal_displace_type
  _atom_site_B_iso_or_equiv
  _atom_site_type_symbol
  Cu1      1.0000 0.50000  0.50000  0.50000  Biso   1.000  Cu
  O1       1.0000 0.36570  0.37192  0.47100  Biso   1.000  O
  O2       1.0000 0.63430  0.62808  0.52900  Biso   1.000  O
  C1       1.0000 0.19410  0.25170  0.47970  Biso   1.000  C
  C2       1.0000 0.80590  0.74830  0.52030  Biso   1.000  C
  F1       1.0000 0.08940  0.24790  0.50530  Biso   1.000  F
  F2       1.0000 0.91060  0.75210  0.49470  Biso   1.000  F
  F3       1.0000 0.15640  0.20760  0.38240  Biso   1.000  F
  F4       1.0000 0.84360  0.79240  0.61760  Biso   1.000  F
  F5       1.0000 0.28300  0.19780  0.54100  Biso   1.000  F
  F6       1.0000 0.71700  0.80220  0.45900  Biso   1.000  F
  F7       1.0000 0.10800  0.23540  0.52640  Biso   1.000  F
  F8       1.0000 0.89200  0.76460  0.47360  Biso   1.000  F
  F9       1.0000 0.12520  0.21580  0.37400  Biso   1.000  F
  F10      1.0000 0.87480  0.78420  0.62600  Biso   1.000  F
  F11      1.0000 0.27620  0.19100  0.51370  Biso   1.000  F
  F12      1.0000 0.72380  0.80900  0.48630  Biso   1.000  F
  C3       1.0000 0.27070  0.36410  0.50340  Biso   1.000  C
  C4       1.0000 0.72930  0.63590  0.49660  Biso   1.000  C
  C5       1.0000 0.22970  0.44160  0.55550  Biso   1.000  C
  C6       1.0000 0.77030  0.55840  0.44450  Biso   1.000  C
  H1       1.0000 0.16300  0.42400  0.57100  Biso   1.000  H
  H2       1.0000 0.83700  0.57600  0.42900  Biso   1.000  H
  C7       1.0000 0.29070  0.54480  0.57850  Biso   1.000  C
  C8       1.0000 0.70930  0.45520  0.42150  Biso   1.000  C
  C9       1.0000 0.24010  0.62550  0.63850  Biso   1.000  C
  C10      1.0000 0.75990  0.37450  0.36150  Biso   1.000  C
  F13      1.0000 0.19880  0.69590  0.58030  Biso   1.000  F
  F14      1.0000 0.80120  0.30410  0.41970  Biso   1.000  F
  F15      1.0000 0.15200  0.59180  0.67420  Biso   1.000  F
  F16      1.0000 0.84800  0.40820  0.32580  Biso   1.000  F
  F17      1.0000 0.34540  0.68230  0.72940  Biso   1.000  F
  F18      1.0000 0.65460  0.31770  0.27060  Biso   1.000  F
  F19      1.0000 0.29460  0.63260  0.73860  Biso   1.000  F
  F20      1.0000 0.70540  0.36740  0.26140  Biso   1.000  F
  F21      1.0000 0.10550  0.59410  0.61240  Biso   1.000  F
  F22      1.0000 0.89450  0.40590  0.38760  Biso   1.000  F
  F23      1.0000 0.24610  0.70970  0.61070  Biso   1.000  F
  F24      1.0000 0.75390  0.29030  0.38930  Biso   1.000  F
  O3       1.0000 0.38710  0.58327  0.55597  Biso   1.000  O
  O4       1.0000 0.61290  0.41673  0.44403  Biso   1.000  O
  Cu2      1.0000 0.00000  0.00000  0.00000  Biso   1.000  Cu
  O5       1.0000 0.01620  0.95035  0.13442  Biso   1.000  O
  O6       1.0000 0.98380  0.04965  0.86558  Biso   1.000  O
  C11      1.0000 0.99150  0.93880  0.29680  Biso   1.000  C
  C12      1.0000 0.00850  0.06120  0.70320  Biso   1.000  C
  F25      1.0000 0.97260  0.99760  0.37420  Biso   1.000  F
  F26      1.0000 0.02740  0.00240  0.62580  Biso   1.000  F
  F27      1.0000 0.92460  0.84540  0.28110  Biso   1.000  F
  F28      1.0000 0.07540  0.15460  0.71890  Biso   1.000  F
  F29      1.0000 0.11960  0.93030  0.33640  Biso   1.000  F
  F30      1.0000 0.88040  0.06970  0.66360  Biso   1.000  F
  C13      1.0000 0.95230  0.97740  0.19140  Biso   1.000  C
  C14      1.0000 0.04770  0.02260  0.80860  Biso   1.000  C
  C15      1.0000 0.85000  0.03510  0.16750  Biso   1.000  C
  C16      1.0000 0.15000  0.96490  0.83250  Biso   1.000  C
  H3       1.0000 0.81500  0.04500  0.20700  Biso   1.000  H
  H4       1.0000 0.18500  0.95500  0.79300  Biso   1.000  H
  C17      1.0000 0.80280  0.07130  0.07250  Biso   1.000  C
  C18      1.0000 0.19720  0.92870  0.92750  Biso   1.000  C
  C19      1.0000 0.68690  0.13140  0.05140  Biso   1.000  C
  C20      1.0000 0.31310  0.86860  0.94860  Biso   1.000  C
  F31      1.0000 0.59910  0.10360  0.95090  Biso   1.000  F
  F32      1.0000 0.40090  0.89640  0.04910  Biso   1.000  F
  F33      1.0000 0.73700  0.22970  0.07000  Biso   1.000  F
  F34      1.0000 0.26300  0.77030  0.93000  Biso   1.000  F
  F35      1.0000 0.62420  0.12000  0.11670  Biso   1.000  F
  F36      1.0000 0.37580  0.88000  0.88330  Biso   1.000  F
  F37      1.0000 0.63620  0.14330  0.12620  Biso   1.000  F
  F38      1.0000 0.36380  0.85670  0.87380  Biso   1.000  F
  F39      1.0000 0.57730  0.08550  0.96160  Biso   1.000  F
  F40      1.0000 0.42270  0.91450  0.03840  Biso   1.000  F
  F41      1.0000 0.72400  0.22550  0.03900  Biso   1.000  F
  F42      1.0000 0.27600  0.77450  0.96100  Biso   1.000  F
  O7       1.0000 0.84460  0.06206  0.99757  Biso   1.000  O
  O8       1.0000 0.15540  0.93794  0.00243  Biso   1.000  O
  O9       1.0000 0.41310  0.51887  0.32491  Biso   1.000  O
  O10      1.0000 0.58690  0.48113  0.67509  Biso   1.000  O
  N1       1.0000 0.28720  0.52719  0.27150  Biso   1.000  N
  N2       1.0000 0.71280  0.47281  0.72850  Biso   1.000  N
  C21      1.0000 0.24890  0.63010  0.25410  Biso   1.000  C
  C22      1.0000 0.75110  0.36990  0.74590  Biso   1.000  C
  C23      1.0000 0.32060  0.71210  0.35920  Biso   1.000  C
  C24      1.0000 0.67940  0.28790  0.64080  Biso   1.000  C
  H5       1.0000 0.29600  0.68600  0.41900  Biso   1.000  H
  H6       1.0000 0.70400  0.31400  0.58100  Biso   1.000  H
  H7       1.0000 0.30100  0.77300  0.35000  Biso   1.000  H
  H8       1.0000 0.69900  0.22700  0.65000  Biso   1.000  H
  H9       1.0000 0.41200  0.72300  0.38200  Biso   1.000  H
  H10      1.0000 0.58800  0.27700  0.61800  Biso   1.000  H
  C25      1.0000 0.29650  0.65750  0.16680  Biso   1.000  C
  C26      1.0000 0.70350  0.34250  0.83320  Biso   1.000  C
  H11      1.0000 0.25700  0.60900  0.10500  Biso   1.000  H
  H12      1.0000 0.74300  0.39100  0.89500  Biso   1.000  H
  H13      1.0000 0.38700  0.65900  0.19300  Biso   1.000  H
  H14      1.0000 0.61300  0.34100  0.80700  Biso   1.000  H
  H15      1.0000 0.28200  0.72200  0.15500  Biso   1.000  H
  H16      1.0000 0.71800  0.27800  0.84500  Biso   1.000  H
  C27      1.0000 0.09110  0.59970  0.21350  Biso   1.000  C
  C28      1.0000 0.90890  0.40030  0.78650  Biso   1.000  C
  C29      1.0000 0.03980  0.60810  0.30460  Biso   1.000  C
  C30      1.0000 0.96020  0.39190  0.69540  Biso   1.000  C
  H17      1.0000 0.08900  0.57300  0.35900  Biso   1.000  H
  H18      1.0000 0.91100  0.42700  0.64100  Biso   1.000  H
  H19      1.0000 0.94200  0.58400  0.27300  Biso   1.000  H
  H20      1.0000 0.05800  0.41600  0.72700  Biso   1.000  H
  H21      1.0000 0.04300  0.67700  0.33700  Biso   1.000  H
  H22      1.0000 0.95700  0.32300  0.66300  Biso   1.000  H
  C31      1.0000 0.00940  0.65200  0.12530  Biso   1.000  C
  C32      1.0000 0.99060  0.34800  0.87470  Biso   1.000  C
  H23      1.0000 0.03500  0.64000  0.06600  Biso   1.000  H
  H24      1.0000 0.96500  0.36000  0.93400  Biso   1.000  H
  H25      1.0000 0.03100  0.72600  0.15100  Biso   1.000  H
  H26      1.0000 0.96900  0.27400  0.84900  Biso   1.000  H
  H27      1.0000 0.90700  0.62300  0.10800  Biso   1.000  H
  H28      1.0000 0.09300  0.37700  0.89200  Biso   1.000  H
  N3       1.0000 0.06830  0.48580  0.16750  Biso   1.000  N
  N4       1.0000 0.93170  0.51420  0.83250  Biso   1.000  N
  O11      1.0000 0.95060  0.43180  0.10750  Biso   1.000  O
  O12      1.0000 0.04940  0.56820  0.89250  Biso   1.000  O
  C33      1.0000 0.18420  0.44750  0.21000  Biso   1.000  C
  C34      1.0000 0.81580  0.55250  0.79000  Biso   1.000  C
  C35      1.0000 0.19430  0.34030  0.18960  Biso   1.000  C
  C36      1.0000 0.80570  0.65970  0.81040  Biso   1.000  C
  C37      1.0000 0.09190  0.25490  0.12210  Biso   1.000  C
  C38      1.0000 0.90810  0.74510  0.87790  Biso   1.000  C
  H29      1.0000 0.00300  0.25400  0.08300  Biso   1.000  H
  H30      1.0000 0.99700  0.74600  0.91700  Biso   1.000  H
  N5       1.0000 0.13990  0.16796  0.12100  Biso   1.000  N
  N6       1.0000 0.86010  0.83204  0.87900  Biso   1.000  N
  N7       1.0000 0.27480  0.19720  0.18920  Biso   1.000  N
  N8       1.0000 0.72520  0.80280  0.81080  Biso   1.000  N
  C39      1.0000 0.36400  0.12050  0.21030  Biso   1.000  C
  C40      1.0000 0.63600  0.87950  0.78970  Biso   1.000  C
  H31      1.0000 0.31250  0.05380  0.16350  Biso   1.000  H
  H32      1.0000 0.68750  0.94620  0.83650  Biso   1.000  H
  H33      1.0000 0.44030  0.14090  0.19080  Biso   1.000  H
  H34      1.0000 0.55970  0.85910  0.80920  Biso   1.000  H
  C41      1.0000 0.41750  0.10850  0.32130  Biso   1.000  C
  C42      1.0000 0.58250  0.89150  0.67870  Biso   1.000  C
  H35      1.0000 0.34410  0.10300  0.34680  Biso   1.000  H
  H36      1.0000 0.65590  0.89700  0.65320  Biso   1.000  H
  H37      1.0000 0.48640  0.16940  0.36680  Biso   1.000  H
  H38      1.0000 0.51360  0.83060  0.63320  Biso   1.000  H
  C43      1.0000 0.48430  0.00710  0.33250  Biso   1.000  C
  C44      1.0000 0.51570  0.99290  0.66750  Biso   1.000  C
  H39      1.0000 0.46050  0.97120  0.38220  Biso   1.000  H
  H40      1.0000 0.53950  0.02880  0.61780  Biso   1.000  H
  H41      1.0000 0.45120  0.96000  0.26200  Biso   1.000  H
  H42      1.0000 0.54880  0.04000  0.73800  Biso   1.000  H
  C45      1.0000 0.61690  0.03880  0.37000  Biso   1.000  C
  C46      1.0000 0.38310  0.96120  0.63000  Biso   1.000  C
  H43      1.0000 0.66120  0.98050  0.38140  Biso   1.000  H
  H44      1.0000 0.33880  0.01950  0.61860  Biso   1.000  H
  H45      1.0000 0.64760  0.08810  0.43780  Biso   1.000  H
  H46      1.0000 0.35240  0.91190  0.56220  Biso   1.000  H
  H47      1.0000 0.63940  0.07100  0.31830  Biso   1.000  H
  H48      1.0000 0.36060  0.92900  0.68170  Biso   1.000  H
  C47      1.0000 0.31060  0.29860  0.23050  Biso   1.000  C
  C48      1.0000 0.68940  0.70140  0.76950  Biso   1.000  C
  H49      1.0000 0.39900  0.32900  0.27600  Biso   1.000  H
  H50      1.0000 0.60100  0.67100  0.72400  Biso   1.000  H
  C49      1.0000 0.64070  0.73010  0.03110  Biso   1.000  C
  C50      1.0000 0.35930  0.26990  0.96890  Biso   1.000  C
  H51      1.0000 0.60510  0.77100  0.97790  Biso   1.000  H
  H52      1.0000 0.39490  0.22900  0.02210  Biso   1.000  H
  H53      1.0000 0.73430  0.72810  0.04310  Biso   1.000  H
  H54      1.0000 0.26570  0.27190  0.95690  Biso   1.000  H
  H55      1.0000 0.63640  0.76060  0.09830  Biso   1.000  H
  H56      1.0000 0.36360  0.23940  0.90170  Biso   1.000  H
  C51      1.0000 0.55400  0.61780  0.98890  Biso   1.000  C
  C52      1.0000 0.44600  0.38220  0.01110  Biso   1.000  C
  H57      1.0000 0.45940  0.62600  0.95750  Biso   1.000  H
  H58      1.0000 0.54060  0.37400  0.04250  Biso   1.000  H
  H59      1.0000 0.57440  0.58790  0.92820  Biso   1.000  H
  H60      1.0000 0.42560  0.41210  0.07180  Biso   1.000  H
  C53      1.0000 0.55300  0.53720  0.04860  Biso   1.000  C
  C54      1.0000 0.44700  0.46280  0.95140  Biso   1.000  C
  H61      1.0000 0.52310  0.55480  0.10710  Biso   1.000  H
  H62      1.0000 0.47690  0.44520  0.89290  Biso   1.000  H
  H63      1.0000 0.64020  0.51480  0.07570  Biso   1.000  H
  H64      1.0000 0.35980  0.48520  0.92430  Biso   1.000  H
