data_image0
_cell_length_a       11.928
_cell_length_b       12.134
_cell_length_c       13.797
_cell_angle_alpha    104.279
_cell_angle_beta     104.738
_cell_angle_gamma    110.294

_symmetry_space_group_name_H-M    "P 1"
_symmetry_int_tables_number       1

loop_
  _symmetry_equiv_pos_as_xyz
  'x, y, z'

loop_
  _atom_site_label
  _atom_site_occupancy
  _atom_site_fract_x
  _atom_site_fract_y
  _atom_site_fract_z
  _atom_site_thermal_displace_type
  _atom_site_B_iso_or_equiv
  _atom_site_type_symbol
  Cu1      1.0000 0.00000  0.00000  0.50000  Biso   1.000  Cu
  O1       1.0000 0.09640  0.12650  0.64490  Biso   1.000  O
  O2       1.0000 0.90360  0.87350  0.35510  Biso   1.000  O
  C1       1.0000 0.25090  0.30630  0.79130  Biso   1.000  C
  C2       1.0000 0.74910  0.69370  0.20870  Biso   1.000  C
  F1       1.0000 0.21900  0.24200  0.86100  Biso   1.000  F
  F2       1.0000 0.78100  0.75800  0.13900  Biso   1.000  F
  F3       1.0000 0.20190  0.38970  0.80800  Biso   1.000  F
  F4       1.0000 0.79810  0.61030  0.19200  Biso   1.000  F
  F5       1.0000 0.38480  0.39360  0.83990  Biso   1.000  F
  F6       1.0000 0.61520  0.60640  0.16010  Biso   1.000  F
  F7       1.0000 0.26500  0.24000  0.83650  Biso   1.000  F
  F8       1.0000 0.73500  0.76000  0.16350  Biso   1.000  F
  F9       1.0000 0.18700  0.35800  0.81880  Biso   1.000  F
  F10      1.0000 0.81300  0.64200  0.18120  Biso   1.000  F
  F11      1.0000 0.35410  0.36700  0.81190  Biso   1.000  F
  F12      1.0000 0.64590  0.63300  0.18810  Biso   1.000  F
  C3       1.0000 0.19560  0.22510  0.67040  Biso   1.000  C
  C4       1.0000 0.80440  0.77490  0.32960  Biso   1.000  C
  C5       1.0000 0.25510  0.26880  0.60530  Biso   1.000  C
  C6       1.0000 0.74490  0.73120  0.39470  Biso   1.000  C
  H1       1.0000 0.33020  0.34720  0.63640  Biso   1.000  H
  H2       1.0000 0.66980  0.65280  0.36360  Biso   1.000  H
  C7       1.0000 0.20880  0.20210  0.49650  Biso   1.000  C
  C8       1.0000 0.79120  0.79790  0.50350  Biso   1.000  C
  C9       1.0000 0.27890  0.25650  0.42780  Biso   1.000  C
  C10      1.0000 0.72110  0.74350  0.57220  Biso   1.000  C
  F13      1.0000 0.42850  0.33600  0.51700  Biso   1.000  F
  F14      1.0000 0.57150  0.66400  0.48300  Biso   1.000  F
  F15      1.0000 0.29640  0.18390  0.36740  Biso   1.000  F
  F16      1.0000 0.70360  0.81610  0.63260  Biso   1.000  F
  F17      1.0000 0.26570  0.33480  0.41920  Biso   1.000  F
  F18      1.0000 0.73430  0.66520  0.58080  Biso   1.000  F
  F19      1.0000 0.32500  0.18140  0.38560  Biso   1.000  F
  F20      1.0000 0.67500  0.81860  0.61440  Biso   1.000  F
  F21      1.0000 0.34270  0.36830  0.44980  Biso   1.000  F
  F22      1.0000 0.65730  0.63170  0.55020  Biso   1.000  F
  F23      1.0000 0.16890  0.23290  0.31240  Biso   1.000  F
  F24      1.0000 0.83110  0.76710  0.68760  Biso   1.000  F
  O3       1.0000 0.11160  0.09920  0.44220  Biso   1.000  O
  O4       1.0000 0.88840  0.90080  0.55780  Biso   1.000  O
  Cu2      1.0000 0.00000  0.50000  0.00000  Biso   1.000  Cu
  O5       1.0000 0.15600  0.61060  0.97500  Biso   1.000  O
  O6       1.0000 0.84400  0.38940  0.02500  Biso   1.000  O
  C11      1.0000 0.37360  0.71450  0.99470  Biso   1.000  C
  C12      1.0000 0.62640  0.28550  0.00530  Biso   1.000  C
  F25      1.0000 0.42200  0.66800  0.93240  Biso   1.000  F
  F26      1.0000 0.57800  0.33200  0.06760  Biso   1.000  F
  F27      1.0000 0.32870  0.78270  0.93330  Biso   1.000  F
  F28      1.0000 0.67130  0.21730  0.06670  Biso   1.000  F
  F29      1.0000 0.45400  0.80620  0.08760  Biso   1.000  F
  F30      1.0000 0.54600  0.19380  0.91240  Biso   1.000  F
  F31      1.0000 0.45000  0.65300  0.96360  Biso   1.000  F
  F32      1.0000 0.55000  0.34700  0.03640  Biso   1.000  F
  F33      1.0000 0.33220  0.75350  0.93180  Biso   1.000  F
  F34      1.0000 0.66780  0.24650  0.06820  Biso   1.000  F
  F35      1.0000 0.46700  0.80200  0.08130  Biso   1.000  F
  F36      1.0000 0.53300  0.19800  0.91870  Biso   1.000  F
  C13      1.0000 0.26550  0.61760  0.01320  Biso   1.000  C
  C14      1.0000 0.73450  0.38240  0.98680  Biso   1.000  C
  C15      1.0000 0.30250  0.54910  0.07160  Biso   1.000  C
  C16      1.0000 0.69750  0.45090  0.92840  Biso   1.000  C
  H3       1.0000 0.39070  0.56560  0.09690  Biso   1.000  H
  H4       1.0000 0.60930  0.43440  0.90310  Biso   1.000  H
  C17      1.0000 0.21800  0.45910  0.09430  Biso   1.000  C
  C18      1.0000 0.78200  0.54090  0.90570  Biso   1.000  C
  C19      1.0000 0.27350  0.39510  0.15960  Biso   1.000  C
  C20      1.0000 0.72650  0.60490  0.84040  Biso   1.000  C
  F37      1.0000 0.21960  0.29630  0.13390  Biso   1.000  F
  F38      1.0000 0.78040  0.70370  0.86610  Biso   1.000  F
  F39      1.0000 0.37900  0.40800  0.19160  Biso   1.000  F
  F40      1.0000 0.62100  0.59200  0.80840  Biso   1.000  F
  F41      1.0000 0.18150  0.24650  0.09400  Biso   1.000  F
  F42      1.0000 0.81850  0.75350  0.90600  Biso   1.000  F
  F43      1.0000 0.21510  0.37200  0.23310  Biso   1.000  F
  F44      1.0000 0.78490  0.62800  0.76690  Biso   1.000  F
  F45      1.0000 0.30710  0.46180  0.26480  Biso   1.000  F
  F46      1.0000 0.69290  0.53820  0.73520  Biso   1.000  F
  F47      1.0000 0.38600  0.40400  0.15400  Biso   1.000  F
  F48      1.0000 0.61400  0.59600  0.84600  Biso   1.000  F
  O7       1.0000 0.09960  0.42550  0.07020  Biso   1.000  O
  O8       1.0000 0.90040  0.57450  0.92980  Biso   1.000  O
  O9       1.0000 0.17060  0.93070  0.54460  Biso   1.000  O
  O10      1.0000 0.82940  0.06930  0.45540  Biso   1.000  O
  N1       1.0000 0.17960  0.82810  0.54820  Biso   1.000  N
  N2       1.0000 0.82040  0.17190  0.45180  Biso   1.000  N
  C21      1.0000 0.20530  0.80300  0.65150  Biso   1.000  C
  C22      1.0000 0.79470  0.19700  0.34850  Biso   1.000  C
  C23      1.0000 0.31770  0.92170  0.74130  Biso   1.000  C
  C24      1.0000 0.68230  0.07830  0.25870  Biso   1.000  C
  H5       1.0000 0.29080  0.98970  0.75670  Biso   1.000  H
  H6       1.0000 0.70920  0.01030  0.24330  Biso   1.000  H
  H7       1.0000 0.39060  0.94820  0.71810  Biso   1.000  H
  H8       1.0000 0.60940  0.05180  0.28190  Biso   1.000  H
  H9       1.0000 0.34350  0.90320  0.80640  Biso   1.000  H
  H10      1.0000 0.65650  0.09680  0.19360  Biso   1.000  H
  C25      1.0000 0.07940  0.77350  0.67360  Biso   1.000  C
  C26      1.0000 0.92060  0.22650  0.32640  Biso   1.000  C
  H11      1.0000 0.06760  0.85090  0.69400  Biso   1.000  H
  H12      1.0000 0.93240  0.14910  0.30600  Biso   1.000  H
  H13      1.0000 0.08470  0.74160  0.73250  Biso   1.000  H
  H14      1.0000 0.91530  0.25840  0.26750  Biso   1.000  H
  H15      1.0000 0.00620  0.70950  0.60840  Biso   1.000  H
  H16      1.0000 0.99380  0.29050  0.39160  Biso   1.000  H
  C27      1.0000 0.23350  0.68530  0.61760  Biso   1.000  C
  C28      1.0000 0.76650  0.31470  0.38240  Biso   1.000  C
  C29      1.0000 0.37650  0.71770  0.64700  Biso   1.000  C
  C30      1.0000 0.62350  0.28230  0.35300  Biso   1.000  C
  H17      1.0000 0.38660  0.63970  0.62350  Biso   1.000  H
  H18      1.0000 0.61340  0.36030  0.37650  Biso   1.000  H
  H19      1.0000 0.42170  0.76080  0.72530  Biso   1.000  H
  H20      1.0000 0.57830  0.23920  0.27470  Biso   1.000  H
  H21      1.0000 0.41300  0.77320  0.61100  Biso   1.000  H
  H22      1.0000 0.58700  0.22680  0.38900  Biso   1.000  H
  C31      1.0000 0.16860  0.57910  0.65260  Biso   1.000  C
  C32      1.0000 0.83140  0.42090  0.34740  Biso   1.000  C
  H23      1.0000 0.19190  0.51010  0.62850  Biso   1.000  H
  H24      1.0000 0.80810  0.48990  0.37150  Biso   1.000  H
  H25      1.0000 0.07490  0.54790  0.62070  Biso   1.000  H
  H26      1.0000 0.92510  0.45210  0.37930  Biso   1.000  H
  H27      1.0000 0.19700  0.61070  0.73140  Biso   1.000  H
  H28      1.0000 0.80300  0.38930  0.26860  Biso   1.000  H
  N3       1.0000 0.17730  0.64120  0.49760  Biso   1.000  N
  N4       1.0000 0.82270  0.35880  0.50240  Biso   1.000  N
  O11      1.0000 0.16320  0.53470  0.43670  Biso   1.000  O
  O12      1.0000 0.83680  0.46530  0.56330  Biso   1.000  O
  C33      1.0000 0.15880  0.73200  0.46360  Biso   1.000  C
  C34      1.0000 0.84120  0.26800  0.53640  Biso   1.000  C
  C35      1.0000 0.12600  0.72530  0.35380  Biso   1.000  C
  C36      1.0000 0.87400  0.27470  0.64620  Biso   1.000  C
  C37      1.0000 0.09250  0.62260  0.26020  Biso   1.000  C
  C38      1.0000 0.90750  0.37740  0.73980  Biso   1.000  C
  H29      1.0000 0.08530  0.54180  0.25940  Biso   1.000  H
  H30      1.0000 0.91470  0.45820  0.74060  Biso   1.000  H
  N5       1.0000 0.07210  0.65280  0.17310  Biso   1.000  N
  N6       1.0000 0.92790  0.34720  0.82690  Biso   1.000  N
  N7       1.0000 0.09330  0.77650  0.21110  Biso   1.000  N
  N8       1.0000 0.90670  0.22350  0.78890  Biso   1.000  N
  C39      1.0000 0.08370  0.84580  0.13860  Biso   1.000  C
  C40      1.0000 0.91630  0.15420  0.86140  Biso   1.000  C
  H31      1.0000 0.04710  0.90440  0.16300  Biso   1.000  H
  H32      1.0000 0.95290  0.09560  0.83700  Biso   1.000  H
  H33      1.0000 0.02320  0.78490  0.06520  Biso   1.000  H
  H34      1.0000 0.97680  0.21510  0.93480  Biso   1.000  H
  C41      1.0000 0.21050  0.92030  0.13300  Biso   1.000  C
  C42      1.0000 0.78950  0.07970  0.86700  Biso   1.000  C
  H35      1.0000 0.25240  0.86410  0.11690  Biso   1.000  H
  H36      1.0000 0.74760  0.13590  0.88310  Biso   1.000  H
  H37      1.0000 0.26770  0.98860  0.20410  Biso   1.000  H
  H38      1.0000 0.73230  0.01140  0.79590  Biso   1.000  H
  C43      1.0000 0.19390  0.97870  0.04580  Biso   1.000  C
  C44      1.0000 0.80610  0.02130  0.95420  Biso   1.000  C
  H39      1.0000 0.14370  0.90970  0.97400  Biso   1.000  H
  H40      1.0000 0.85630  0.09030  0.02600  Biso   1.000  H
  H41      1.0000 0.14410  0.02760  0.05790  Biso   1.000  H
  H42      1.0000 0.85590  0.97240  0.94210  Biso   1.000  H
  C45      1.0000 0.31890  0.06290  0.04600  Biso   1.000  C
  C46      1.0000 0.68110  0.93710  0.95400  Biso   1.000  C
  H43      1.0000 0.30300  0.09720  0.98930  Biso   1.000  H
  H44      1.0000 0.69700  0.90280  0.01070  Biso   1.000  H
  H45      1.0000 0.36800  0.01460  0.03250  Biso   1.000  H
  H46      1.0000 0.63200  0.98540  0.96750  Biso   1.000  H
  H47      1.0000 0.36830  0.13250  0.11620  Biso   1.000  H
  H48      1.0000 0.63170  0.86750  0.88380  Biso   1.000  H
  C47      1.0000 0.12610  0.82170  0.31780  Biso   1.000  C
  C48      1.0000 0.87390  0.17830  0.68220  Biso   1.000  C
  H49      1.0000 0.14600  0.90520  0.36120  Biso   1.000  H
  H50      1.0000 0.85400  0.09480  0.63880  Biso   1.000  H
  O13      1.0000 0.50000  0.00000  0.50000  Biso   1.000  O
  C49      1.0000 0.46710  0.89660  0.48750  Biso   1.000  C
  C50      1.0000 0.53290  0.10340  0.51250  Biso   1.000  C
  C51      1.0000 0.46900  0.82600  0.37000  Biso   1.000  C
  C52      1.0000 0.53100  0.17400  0.63000  Biso   1.000  C
  C53      1.0000 0.51700  0.09940  0.58500  Biso   1.000  C
  C54      1.0000 0.48300  0.90060  0.41500  Biso   1.000  C
  C55      1.0000 0.44600  0.75900  0.39000  Biso   1.000  C
  C56      1.0000 0.55400  0.24100  0.61000  Biso   1.000  C
