data_image0
_cell_length_a       21.2577
_cell_length_b       13.1431
_cell_length_c       13.4322
_cell_angle_alpha    98.289
_cell_angle_beta     111.652
_cell_angle_gamma    97.466

_symmetry_space_group_name_H-M    "P 1"
_symmetry_int_tables_number       1

loop_
  _symmetry_equiv_pos_as_xyz
  'x, y, z'

loop_
  _atom_site_label
  _atom_site_occupancy
  _atom_site_fract_x
  _atom_site_fract_y
  _atom_site_fract_z
  _atom_site_thermal_displace_type
  _atom_site_B_iso_or_equiv
  _atom_site_type_symbol
  Cu1      1.0000 0.50000  0.50000  0.00000  Biso   1.000  Cu
  O1       1.0000 0.43196  0.37082  0.96459  Biso   1.000  O
  O2       1.0000 0.56804  0.62918  0.03541  Biso   1.000  O
  C1       1.0000 0.33872  0.25120  0.95840  Biso   1.000  C
  C2       1.0000 0.66128  0.74880  0.04160  Biso   1.000  C
  F1       1.0000 0.37960  0.19270  0.00070  Biso   1.000  F
  F2       1.0000 0.62040  0.80730  0.99930  Biso   1.000  F
  F3       1.0000 0.30930  0.21680  0.84810  Biso   1.000  F
  F4       1.0000 0.69070  0.78320  0.15190  Biso   1.000  F
  F5       1.0000 0.28990  0.24370  0.99480  Biso   1.000  F
  F6       1.0000 0.71010  0.75630  0.00520  Biso   1.000  F
  F7       1.0000 0.37690  0.19010  0.01670  Biso   1.000  F
  F8       1.0000 0.62310  0.80990  0.98330  Biso   1.000  F
  F9       1.0000 0.32300  0.20660  0.86220  Biso   1.000  F
  F10      1.0000 0.67700  0.79340  0.13780  Biso   1.000  F
  F11      1.0000 0.28140  0.24050  0.97640  Biso   1.000  F
  F12      1.0000 0.71860  0.75950  0.02360  Biso   1.000  F
  C3       1.0000 0.37930  0.36380  0.98660  Biso   1.000  C
  C4       1.0000 0.62070  0.63620  0.01340  Biso   1.000  C
  C5       1.0000 0.35542  0.44340  0.03280  Biso   1.000  C
  C6       1.0000 0.64458  0.55660  0.96720  Biso   1.000  C
  H1       1.0000 0.31460  0.42630  0.04540  Biso   1.000  H
  H2       1.0000 0.68540  0.57370  0.95460  Biso   1.000  H
  C7       1.0000 0.38929  0.54690  0.06090  Biso   1.000  C
  C8       1.0000 0.61071  0.45310  0.93910  Biso   1.000  C
  C9       1.0000 0.36114  0.62880  0.11560  Biso   1.000  C
  C10      1.0000 0.63886  0.37120  0.88440  Biso   1.000  C
  F13      1.0000 0.35801  0.71271  0.07185  Biso   1.000  F
  F14      1.0000 0.64199  0.28729  0.92815  Biso   1.000  F
  F15      1.0000 0.29820  0.59531  0.10830  Biso   1.000  F
  F16      1.0000 0.70180  0.40469  0.89170  Biso   1.000  F
  F17      1.0000 0.40189  0.66150  0.21918  Biso   1.000  F
  F18      1.0000 0.59811  0.33850  0.78082  Biso   1.000  F
  O3       1.0000 0.44262  0.58464  0.04845  Biso   1.000  O
  O4       1.0000 0.55738  0.41536  0.95155  Biso   1.000  O
  Cu2      1.0000 0.75472  0.99310  0.52076  Biso   1.000  Cu
  Cu3      1.0000 0.24528  0.00690  0.47924  Biso   1.000  Cu
  O5       1.0000 0.67592  0.05500  0.51643  Biso   1.000  O
  O6       1.0000 0.32408  0.94500  0.48357  Biso   1.000  O
  C11      1.0000 0.59594  0.12640  0.56850  Biso   1.000  C
  C12      1.0000 0.40406  0.87360  0.43150  Biso   1.000  C
  F19      1.0000 0.54666  0.08917  0.46923  Biso   1.000  F
  F20      1.0000 0.45334  0.91083  0.53077  Biso   1.000  F
  F21      1.0000 0.56570  0.12662  0.63908  Biso   1.000  F
  F22      1.0000 0.43430  0.87338  0.36092  Biso   1.000  F
  F23      1.0000 0.62040  0.22517  0.57269  Biso   1.000  F
  F24      1.0000 0.37960  0.77483  0.42731  Biso   1.000  F
  C13      1.0000 0.65302  0.06329  0.59070  Biso   1.000  C
  C14      1.0000 0.34698  0.93671  0.40930  Biso   1.000  C
  C15      1.0000 0.67518  0.02620  0.68650  Biso   1.000  C
  C16      1.0000 0.32482  0.97380  0.31350  Biso   1.000  C
  H3       1.0000 0.65480  0.04160  0.73770  Biso   1.000  H
  H4       1.0000 0.34520  0.95840  0.26230  Biso   1.000  H
  C17      1.0000 0.72655  0.96710  0.71000  Biso   1.000  C
  C18      1.0000 0.27345  0.03290  0.29000  Biso   1.000  C
  C19      1.0000 0.74427  0.92620  0.81650  Biso   1.000  C
  C20      1.0000 0.25573  0.07380  0.18350  Biso   1.000  C
  F25      1.0000 0.73573  0.98836  0.89420  Biso   1.000  F
  F26      1.0000 0.26427  0.01164  0.10580  Biso   1.000  F
  F27      1.0000 0.70423  0.83290  0.79718  Biso   1.000  F
  F28      1.0000 0.29577  0.16710  0.20282  Biso   1.000  F
  F29      1.0000 0.80804  0.91100  0.85488  Biso   1.000  F
  F30      1.0000 0.19196  0.08900  0.14512  Biso   1.000  F
  O7       1.0000 0.75996  0.94048  0.65441  Biso   1.000  O
  O8       1.0000 0.24004  0.05952  0.34559  Biso   1.000  O
  O9       1.0000 0.74686  0.04571  0.38680  Biso   1.000  O
  O10      1.0000 0.25314  0.95429  0.61320  Biso   1.000  O
  C21      1.0000 0.75446  0.05380  0.21840  Biso   1.000  C
  C22      1.0000 0.24554  0.94620  0.78160  Biso   1.000  C
  F31      1.0000 0.68812  0.05550  0.17987  Biso   1.000  F
  F32      1.0000 0.31188  0.94450  0.82013  Biso   1.000  F
  F33      1.0000 0.78757  0.15130  0.23336  Biso   1.000  F
  F34      1.0000 0.21243  0.84870  0.76664  Biso   1.000  F
  F35      1.0000 0.76635  0.99486  0.14201  Biso   1.000  F
  F36      1.0000 0.23365  0.00514  0.85799  Biso   1.000  F
  C23      1.0000 0.77741  0.01654  0.32700  Biso   1.000  C
  C24      1.0000 0.22259  0.98346  0.67300  Biso   1.000  C
  C25      1.0000 0.82919  0.95790  0.34930  Biso   1.000  C
  C26      1.0000 0.17081  0.04210  0.65070  Biso   1.000  C
  H5       1.0000 0.84810  0.94170  0.29630  Biso   1.000  H
  H6       1.0000 0.15190  0.05830  0.70370  Biso   1.000  H
  C27      1.0000 0.85389  0.92260  0.44560  Biso   1.000  C
  C28      1.0000 0.14611  0.07740  0.55440  Biso   1.000  C
  C29      1.0000 0.91274  0.86270  0.46600  Biso   1.000  C
  C30      1.0000 0.08726  0.13730  0.53400  Biso   1.000  C
  F37      1.0000 0.89070  0.76295  0.46010  Biso   1.000  F
  F38      1.0000 0.10930  0.23705  0.53990  Biso   1.000  F
  F39      1.0000 0.94185  0.86674  0.39464  Biso   1.000  F
  F40      1.0000 0.05815  0.13326  0.60536  Biso   1.000  F
  F41      1.0000 0.96178  0.89927  0.56403  Biso   1.000  F
  F42      1.0000 0.03822  0.10073  0.43597  Biso   1.000  F
  O11      1.0000 0.83337  0.93130  0.52301  Biso   1.000  O
  O12      1.0000 0.16663  0.06870  0.47699  Biso   1.000  O
  Cu4      1.0000 0.00000  0.50000  0.00000  Biso   1.000  Cu
  O13      1.0000 0.07310  0.62762  0.02765  Biso   1.000  O
  O14      1.0000 0.92690  0.37238  0.97235  Biso   1.000  O
  C31      1.0000 0.15029  0.75280  0.00200  Biso   1.000  C
  C32      1.0000 0.84971  0.24720  0.99800  Biso   1.000  C
  F43      1.0000 0.19909  0.76629  0.96400  Biso   1.000  F
  F44      1.0000 0.80091  0.23371  0.03600  Biso   1.000  F
  F45      1.0000 0.17857  0.79679  0.10726  Biso   1.000  F
  F46      1.0000 0.82143  0.20321  0.89274  Biso   1.000  F
  F47      1.0000 0.10433  0.80814  0.95620  Biso   1.000  F
  F48      1.0000 0.89567  0.19186  0.04380  Biso   1.000  F
  C33      1.0000 0.11553  0.63910  0.98330  Biso   1.000  C
  C34      1.0000 0.88447  0.36090  0.01670  Biso   1.000  C
  C35      1.0000 0.13275  0.56390  0.92090  Biso   1.000  C
  C36      1.0000 0.86725  0.43610  0.07910  Biso   1.000  C
  H7       1.0000 0.16460  0.58570  0.89020  Biso   1.000  H
  H8       1.0000 0.83540  0.41430  0.10980  Biso   1.000  H
  C37      1.0000 0.10541  0.45670  0.90090  Biso   1.000  C
  C38      1.0000 0.89459  0.54330  0.09910  Biso   1.000  C
  C39      1.0000 0.12632  0.38190  0.82620  Biso   1.000  C
  C40      1.0000 0.87368  0.61810  0.17380  Biso   1.000  C
  F49      1.0000 0.13050  0.29390  0.85680  Biso   1.000  F
  F50      1.0000 0.86950  0.70610  0.14320  Biso   1.000  F
  F51      1.0000 0.18890  0.41500  0.83710  Biso   1.000  F
  F52      1.0000 0.81110  0.58500  0.16290  Biso   1.000  F
  F53      1.0000 0.08390  0.36520  0.72700  Biso   1.000  F
  F54      1.0000 0.91610  0.63480  0.27300  Biso   1.000  F
  F55      1.0000 0.07330  0.31980  0.75190  Biso   1.000  F
  F56      1.0000 0.92670  0.68020  0.24810  Biso   1.000  F
  F57      1.0000 0.16090  0.31720  0.87860  Biso   1.000  F
  F58      1.0000 0.83910  0.68280  0.12140  Biso   1.000  F
  F59      1.0000 0.16080  0.42460  0.77480  Biso   1.000  F
  F60      1.0000 0.83920  0.57540  0.22520  Biso   1.000  F
  O15      1.0000 0.06498  0.41301  0.93593  Biso   1.000  O
  O16      1.0000 0.93502  0.58699  0.06407  Biso   1.000  O
  O17      1.0000 0.53742  0.48097  0.18225  Biso   1.000  O
  O18      1.0000 0.46258  0.51903  0.81775  Biso   1.000  O
  N1       1.0000 0.59844  0.46665  0.23850  Biso   1.000  N
  N2       1.0000 0.40156  0.53335  0.76150  Biso   1.000  N
  C41      1.0000 0.61222  0.35968  0.25490  Biso   1.000  C
  C42      1.0000 0.38778  0.64032  0.74510  Biso   1.000  C
  C43      1.0000 0.58384  0.33370  0.34000  Biso   1.000  C
  C44      1.0000 0.41616  0.66630  0.66000  Biso   1.000  C
  H9       1.0000 0.53320  0.31950  0.30670  Biso   1.000  H
  H10      1.0000 0.46680  0.68050  0.69330  Biso   1.000  H
  H11      1.0000 0.60050  0.39330  0.40230  Biso   1.000  H
  H12      1.0000 0.39950  0.60670  0.59770  Biso   1.000  H
  H13      1.0000 0.59970  0.27160  0.36540  Biso   1.000  H
  H14      1.0000 0.40030  0.72840  0.63460  Biso   1.000  H
  C45      1.0000 0.57604  0.27920  0.14890  Biso   1.000  C
  C46      1.0000 0.42396  0.72080  0.85110  Biso   1.000  C
  H15      1.0000 0.52600  0.26930  0.12760  Biso   1.000  H
  H16      1.0000 0.47400  0.73070  0.87240  Biso   1.000  H
  H17      1.0000 0.59070  0.21240  0.15910  Biso   1.000  H
  H18      1.0000 0.40930  0.78760  0.84090  Biso   1.000  H
  H19      1.0000 0.58800  0.30360  0.09140  Biso   1.000  H
  H20      1.0000 0.41200  0.69640  0.90860  Biso   1.000  H
  C47      1.0000 0.69193  0.38260  0.29950  Biso   1.000  C
  C48      1.0000 0.30807  0.61740  0.70050  Biso   1.000  C
  C49      1.0000 0.72059  0.37300  0.21020  Biso   1.000  C
  C50      1.0000 0.27941  0.62700  0.78980  Biso   1.000  C
  H21      1.0000 0.77120  0.38920  0.24420  Biso   1.000  H
  H22      1.0000 0.22880  0.61080  0.75580  Biso   1.000  H
  H23      1.0000 0.70420  0.42240  0.16290  Biso   1.000  H
  H24      1.0000 0.29580  0.57760  0.83710  Biso   1.000  H
  H25      1.0000 0.70470  0.30130  0.16630  Biso   1.000  H
  H26      1.0000 0.29530  0.69870  0.83370  Biso   1.000  H
  C51      1.0000 0.72681  0.32300  0.38630  Biso   1.000  C
  C52      1.0000 0.27319  0.67700  0.61370  Biso   1.000  C
  H27      1.0000 0.77700  0.34220  0.40990  Biso   1.000  H
  H28      1.0000 0.22300  0.65780  0.59010  Biso   1.000  H
  H29      1.0000 0.71150  0.24740  0.35580  Biso   1.000  H
  H30      1.0000 0.28850  0.75260  0.64420  Biso   1.000  H
  H31      1.0000 0.71440  0.34080  0.44920  Biso   1.000  H
  H32      1.0000 0.28560  0.65920  0.55080  Biso   1.000  H
  N3       1.0000 0.70737  0.49769  0.34827  Biso   1.000  N
  N4       1.0000 0.29263  0.50231  0.65173  Biso   1.000  N
  O19      1.0000 0.76813  0.54696  0.41239  Biso   1.000  O
  O20      1.0000 0.23187  0.45304  0.58761  Biso   1.000  O
  C53      1.0000 0.65237  0.54227  0.30310  Biso   1.000  C
  C54      1.0000 0.34763  0.45773  0.69690  Biso   1.000  C
  C55      1.0000 0.65205  0.65265  0.32390  Biso   1.000  C
  C56      1.0000 0.34795  0.34735  0.67610  Biso   1.000  C
  C57      1.0000 0.59694  0.70170  0.27930  Biso   1.000  C
  C58      1.0000 0.40306  0.29830  0.72070  Biso   1.000  C
  H33      1.0000 0.55190  0.66830  0.22800  Biso   1.000  H
  H34      1.0000 0.44810  0.33170  0.77200  Biso   1.000  H
  N5       1.0000 0.61898  0.80393  0.32176  Biso   1.000  N
  N6       1.0000 0.38102  0.19607  0.67824  Biso   1.000  N
  C59      1.0000 0.58116  0.88970  0.30190  Biso   1.000  C
  C60      1.0000 0.41884  0.11030  0.69810  Biso   1.000  C
  H35      1.0000 0.55840  0.89820  0.35400  Biso   1.000  H
  H36      1.0000 0.44160  0.10180  0.64600  Biso   1.000  H
  H37      1.0000 0.61490  0.95560  0.31780  Biso   1.000  H
  H38      1.0000 0.38510  0.04440  0.68220  Biso   1.000  H
  C61      1.0000 0.52854  0.87570  0.19010  Biso   1.000  C
  C62      1.0000 0.47146  0.12430  0.80990  Biso   1.000  C
  H39      1.0000 0.49260  0.81290  0.17490  Biso   1.000  H
  H40      1.0000 0.50740  0.18710  0.82510  Biso   1.000  H
  H41      1.0000 0.55020  0.86410  0.13680  Biso   1.000  H
  H42      1.0000 0.44980  0.13590  0.86320  Biso   1.000  H
  C63      1.0000 0.49507  0.97190  0.17600  Biso   1.000  C
  C64      1.0000 0.50493  0.02810  0.82400  Biso   1.000  C
  H43      1.0000 0.48020  0.98940  0.23710  Biso   1.000  H
  H44      1.0000 0.51980  0.01060  0.76290  Biso   1.000  H
  H45      1.0000 0.53040  0.03210  0.18170  Biso   1.000  H
  H46      1.0000 0.46960  0.96790  0.81830  Biso   1.000  H
  C65      1.0000 0.43480  0.95910  0.07130  Biso   1.000  C
  C66      1.0000 0.56520  0.04090  0.92870  Biso   1.000  C
  H47      1.0000 0.41600  0.02330  0.06970  Biso   1.000  H
  H48      1.0000 0.58400  0.97670  0.93030  Biso   1.000  H
  H49      1.0000 0.39930  0.90000  0.06470  Biso   1.000  H
  H50      1.0000 0.60070  0.10000  0.93530  Biso   1.000  H
  H51      1.0000 0.44920  0.94540  0.01010  Biso   1.000  H
  H52      1.0000 0.55080  0.05460  0.98990  Biso   1.000  H
  N7       1.0000 0.68630  0.82685  0.39490  Biso   1.000  N
  N8       1.0000 0.31370  0.17315  0.60510  Biso   1.000  N
  C67      1.0000 0.70613  0.73521  0.39480  Biso   1.000  C
  C68      1.0000 0.29387  0.26479  0.60520  Biso   1.000  C
  H53      1.0000 0.75130  0.72650  0.43720  Biso   1.000  H
  H54      1.0000 0.24870  0.27350  0.56280  Biso   1.000  H
  O21      1.0000 0.96082  0.51608  0.84429  Biso   1.000  O
  O22      1.0000 0.03918  0.48392  0.15571  Biso   1.000  O
  N9       1.0000 0.89654  0.52382  0.79279  Biso   1.000  N
  N10      1.0000 0.10346  0.47618  0.20721  Biso   1.000  N
  C69      1.0000 0.87700  0.62730  0.77210  Biso   1.000  C
  C70      1.0000 0.12300  0.37270  0.22790  Biso   1.000  C
  C71      1.0000 0.89896  0.65120  0.68030  Biso   1.000  C
  C72      1.0000 0.10104  0.34880  0.31970  Biso   1.000  C
  H55      1.0000 0.94940  0.67040  0.70870  Biso   1.000  H
  H56      1.0000 0.05060  0.32960  0.29130  Biso   1.000  H
  H57      1.0000 0.87890  0.70960  0.65240  Biso   1.000  H
  H58      1.0000 0.12110  0.29040  0.34760  Biso   1.000  H
  H59      1.0000 0.88260  0.58900  0.62080  Biso   1.000  H
  H60      1.0000 0.11740  0.41100  0.37920  Biso   1.000  H
  C73      1.0000 0.91361  0.71340  0.87430  Biso   1.000  C
  C74      1.0000 0.08639  0.28660  0.12570  Biso   1.000  C
  H61      1.0000 0.96330  0.72760  0.89120  Biso   1.000  H
  H62      1.0000 0.03670  0.27240  0.10880  Biso   1.000  H
  H63      1.0000 0.90570  0.69090  0.93590  Biso   1.000  H
  H64      1.0000 0.09430  0.30910  0.06410  Biso   1.000  H
  H65      1.0000 0.89540  0.77730  0.86180  Biso   1.000  H
  H66      1.0000 0.10460  0.22270  0.13820  Biso   1.000  H
  C75      1.0000 0.79773  0.59610  0.73560  Biso   1.000  C
  C76      1.0000 0.20227  0.40390  0.26440  Biso   1.000  C
  C77      1.0000 0.77376  0.60600  0.82990  Biso   1.000  C
  C78      1.0000 0.22624  0.39400  0.17010  Biso   1.000  C
  H67      1.0000 0.72330  0.58510  0.80070  Biso   1.000  H
  H68      1.0000 0.27670  0.41490  0.19930  Biso   1.000  H
  H69      1.0000 0.78790  0.67890  0.87060  Biso   1.000  H
  H70      1.0000 0.21210  0.32110  0.12940  Biso   1.000  H
  H71      1.0000 0.79460  0.56030  0.87900  Biso   1.000  H
  H72      1.0000 0.20540  0.43970  0.12100  Biso   1.000  H
  C79      1.0000 0.75550  0.64750  0.64580  Biso   1.000  C
  C80      1.0000 0.24450  0.35250  0.35420  Biso   1.000  C
  H73      1.0000 0.70620  0.62330  0.62760  Biso   1.000  H
  H74      1.0000 0.29380  0.37670  0.37240  Biso   1.000  H
  H75      1.0000 0.76540  0.62850  0.58060  Biso   1.000  H
  H76      1.0000 0.23460  0.37150  0.41940  Biso   1.000  H
  H77      1.0000 0.76770  0.72390  0.67140  Biso   1.000  H
  H78      1.0000 0.23230  0.27610  0.32860  Biso   1.000  H
  N11      1.0000 0.78641  0.48045  0.69137  Biso   1.000  N
  N12      1.0000 0.21359  0.51955  0.30863  Biso   1.000  N
  O23      1.0000 0.72713  0.42543  0.63156  Biso   1.000  O
  O24      1.0000 0.27287  0.57457  0.36844  Biso   1.000  O
  C81      1.0000 0.84511  0.44278  0.73260  Biso   1.000  C
  C82      1.0000 0.15489  0.55722  0.26740  Biso   1.000  C
  C83      1.0000 0.85066  0.33483  0.71100  Biso   1.000  C
  C84      1.0000 0.14934  0.66517  0.28900  Biso   1.000  C
  C85      1.0000 0.91022  0.29430  0.74810  Biso   1.000  C
  C86      1.0000 0.08978  0.70570  0.25190  Biso   1.000  C
  H79      1.0000 0.95520  0.33270  0.79470  Biso   1.000  H
  H80      1.0000 0.04480  0.66730  0.20530  Biso   1.000  H
  N13      1.0000 0.89287  0.19203  0.70666  Biso   1.000  N
  N14      1.0000 0.10713  0.80797  0.29334  Biso   1.000  N
  C87      1.0000 0.93903  0.11640  0.72650  Biso   1.000  C
  C88      1.0000 0.06097  0.88360  0.27350  Biso   1.000  C
  H81      1.0000 0.91850  0.05400  0.66580  Biso   1.000  H
  H82      1.0000 0.08150  0.94600  0.33420  Biso   1.000  H
  H83      1.0000 0.98370  0.14860  0.72620  Biso   1.000  H
  H84      1.0000 0.01630  0.85140  0.27380  Biso   1.000  H
  C89      1.0000 0.95170  0.08290  0.83040  Biso   1.000  C
  C90      1.0000 0.04830  0.91710  0.16960  Biso   1.000  C
  H85      1.0000 0.90690  0.05420  0.83240  Biso   1.000  H
  H86      1.0000 0.09310  0.94580  0.16760  Biso   1.000  H
  H87      1.0000 0.97450  0.14480  0.89140  Biso   1.000  H
  H88      1.0000 0.02550  0.85520  0.10860  Biso   1.000  H
  C91      1.0000 0.99730  0.99890  0.84810  Biso   1.000  C
  C92      1.0000 0.00270  0.00110  0.15190  Biso   1.000  C
  H89      1.0000 0.99720  0.97060  0.91250  Biso   1.000  H
  H90      1.0000 0.00280  0.02940  0.08750  Biso   1.000  H
  H91      1.0000 0.97730  0.94030  0.78330  Biso   1.000  H
  H92      1.0000 0.02270  0.05970  0.21670  Biso   1.000  H
  C93      1.0000 0.06840  0.04100  0.86550  Biso   1.000  C
  C94      1.0000 0.93160  0.95900  0.13450  Biso   1.000  C
  H93      1.0000 0.09510  0.98510  0.87540  Biso   1.000  H
  H94      1.0000 0.90490  0.01490  0.12460  Biso   1.000  H
  H95      1.0000 0.08900  0.09750  0.93100  Biso   1.000  H
  H96      1.0000 0.91100  0.90250  0.06900  Biso   1.000  H
  H97      1.0000 0.06880  0.06860  0.80170  Biso   1.000  H
  H98      1.0000 0.93120  0.93140  0.19830  Biso   1.000  H
  N15      1.0000 0.82399  0.16033  0.64225  Biso   1.000  N
  N16      1.0000 0.17601  0.83967  0.35775  Biso   1.000  N
  C95      1.0000 0.79890  0.24743  0.64530  Biso   1.000  C
  C96      1.0000 0.20110  0.75257  0.35470  Biso   1.000  C
  H99      1.0000 0.75180  0.25030  0.60780  Biso   1.000  H
  H100     1.0000 0.24820  0.74970  0.39220  Biso   1.000  H
  C97      1.0000 0.91727  0.27360  0.48070  Biso   1.000  C
  C98      1.0000 0.08273  0.72640  0.51930  Biso   1.000  C
  H101     1.0000 0.88160  0.24590  0.50500  Biso   1.000  H
  H102     1.0000 0.11840  0.75410  0.49500  Biso   1.000  H
  H103     1.0000 0.95860  0.24480  0.51380  Biso   1.000  H
  H104     1.0000 0.04140  0.75520  0.48620  Biso   1.000  H
  H105     1.0000 0.90000  0.25360  0.40080  Biso   1.000  H
  H106     1.0000 0.10000  0.74640  0.59920  Biso   1.000  H
  C99      1.0000 0.93517  0.39180  0.51570  Biso   1.000  C
  C100     1.0000 0.06483  0.60820  0.48430  Biso   1.000  C
  H107     1.0000 0.89290  0.42020  0.48340  Biso   1.000  H
  H108     1.0000 0.10710  0.57980  0.51660  Biso   1.000  H
  H109     1.0000 0.95140  0.41130  0.59640  Biso   1.000  H
  H110     1.0000 0.04860  0.58870  0.40360  Biso   1.000  H
  C101     1.0000 0.98963  0.44140  0.48210  Biso   1.000  C
  C102     1.0000 0.01037  0.55860  0.51790  Biso   1.000  C
  H111     1.0000 0.97260  0.42290  0.40120  Biso   1.000  H
  H112     1.0000 0.02740  0.57710  0.59880  Biso   1.000  H
  H113     1.0000 0.03120  0.41090  0.51240  Biso   1.000  H
  H114     1.0000 0.96880  0.58910  0.48760  Biso   1.000  H
  C103     1.0000 0.57000  0.74020  0.53550  Biso   1.000  C
  C104     1.0000 0.43000  0.25980  0.46450  Biso   1.000  C
  H115     1.0000 0.55810  0.79720  0.49670  Biso   1.000  H
  H116     1.0000 0.44190  0.20280  0.50330  Biso   1.000  H
  H117     1.0000 0.61500  0.72730  0.53860  Biso   1.000  H
  H118     1.0000 0.38500  0.27270  0.46140  Biso   1.000  H
  H119     1.0000 0.57220  0.76000  0.61000  Biso   1.000  H
  H120     1.0000 0.42780  0.24000  0.39000  Biso   1.000  H
  C105     1.0000 0.51592  0.64220  0.47570  Biso   1.000  C
  C106     1.0000 0.48408  0.35780  0.52430  Biso   1.000  C
  H121     1.0000 0.51330  0.62440  0.39990  Biso   1.000  H
  H122     1.0000 0.48670  0.37560  0.60010  Biso   1.000  H
  H123     1.0000 0.47060  0.65700  0.47130  Biso   1.000  H
  H124     1.0000 0.52940  0.34300  0.52870  Biso   1.000  H
  C107     1.0000 0.52857  0.54750  0.52770  Biso   1.000  C
  C108     1.0000 0.47143  0.45250  0.47230  Biso   1.000  C
  H125     1.0000 0.57200  0.52900  0.52660  Biso   1.000  H
  H126     1.0000 0.42800  0.47100  0.47340  Biso   1.000  H
  H127     1.0000 0.53490  0.56690  0.60530  Biso   1.000  H
  H128     1.0000 0.46510  0.43310  0.39470  Biso   1.000  H
