data_image0
_cell_length_a       12.144
_cell_length_b       12.321
_cell_length_c       13.924
_cell_angle_alpha    104.231
_cell_angle_beta     104.219
_cell_angle_gamma    112.561

_symmetry_space_group_name_H-M    "P 1"
_symmetry_int_tables_number       1

loop_
  _symmetry_equiv_pos_as_xyz
  'x, y, z'

loop_
  _atom_site_label
  _atom_site_occupancy
  _atom_site_fract_x
  _atom_site_fract_y
  _atom_site_fract_z
  _atom_site_thermal_displace_type
  _atom_site_B_iso_or_equiv
  _atom_site_type_symbol
  Cu1      1.0000 0.00000  0.00000  0.50000  Biso   1.000  Cu
  O1       1.0000 0.90260  0.87350  0.35489  Biso   1.000  O
  O2       1.0000 0.09740  0.12650  0.64511  Biso   1.000  O
  C1       1.0000 0.74320  0.69280  0.20730  Biso   1.000  C
  C2       1.0000 0.25680  0.30720  0.79270  Biso   1.000  C
  F1       1.0000 0.77980  0.75700  0.14890  Biso   1.000  F
  F2       1.0000 0.22020  0.24300  0.85110  Biso   1.000  F
  F3       1.0000 0.79320  0.61050  0.19410  Biso   1.000  F
  F4       1.0000 0.20680  0.38950  0.80590  Biso   1.000  F
  F5       1.0000 0.62250  0.62140  0.16850  Biso   1.000  F
  F6       1.0000 0.37750  0.37860  0.83150  Biso   1.000  F
  F7       1.0000 0.70800  0.75730  0.15700  Biso   1.000  F
  F8       1.0000 0.29200  0.24270  0.84300  Biso   1.000  F
  F9       1.0000 0.81160  0.65600  0.17310  Biso   1.000  F
  F10      1.0000 0.18840  0.34400  0.82690  Biso   1.000  F
  F11      1.0000 0.63420  0.59170  0.17740  Biso   1.000  F
  F12      1.0000 0.36580  0.40830  0.82260  Biso   1.000  F
  C3       1.0000 0.80120  0.77270  0.32760  Biso   1.000  C
  C4       1.0000 0.19880  0.22730  0.67240  Biso   1.000  C
  C5       1.0000 0.74000  0.72620  0.39100  Biso   1.000  C
  C6       1.0000 0.26000  0.27380  0.60900  Biso   1.000  C
  H1       1.0000 0.66470  0.64740  0.35900  Biso   1.000  H
  H2       1.0000 0.33530  0.35260  0.64100  Biso   1.000  H
  C7       1.0000 0.78610  0.79190  0.49950  Biso   1.000  C
  C8       1.0000 0.21390  0.20810  0.50050  Biso   1.000  C
  C9       1.0000 0.71280  0.73290  0.56420  Biso   1.000  C
  C10      1.0000 0.28720  0.26710  0.43580  Biso   1.000  C
  F13      1.0000 0.57980  0.65930  0.49820  Biso   1.000  F
  F14      1.0000 0.42020  0.34070  0.50180  Biso   1.000  F
  F15      1.0000 0.71400  0.81450  0.63550  Biso   1.000  F
  F16      1.0000 0.28600  0.18550  0.36450  Biso   1.000  F
  F17      1.0000 0.74600  0.65370  0.58330  Biso   1.000  F
  F18      1.0000 0.25400  0.34630  0.41670  Biso   1.000  F
  F19      1.0000 0.66550  0.79870  0.60960  Biso   1.000  F
  F20      1.0000 0.33450  0.20130  0.39040  Biso   1.000  F
  F21      1.0000 0.63740  0.62260  0.52930  Biso   1.000  F
  F22      1.0000 0.36260  0.37740  0.47070  Biso   1.000  F
  F23      1.0000 0.80250  0.75620  0.66420  Biso   1.000  F
  F24      1.0000 0.19750  0.24380  0.33580  Biso   1.000  F
  O3       1.0000 0.88490  0.89770  0.55532  Biso   1.000  O
  O4       1.0000 0.11510  0.10230  0.44468  Biso   1.000  O
  Cu2      1.0000 0.00000  0.50000  0.00000  Biso   1.000  Cu
  O5       1.0000 0.15260  0.61149  0.97746  Biso   1.000  O
  O6       1.0000 0.84740  0.38851  0.02254  Biso   1.000  O
  C11      1.0000 0.36840  0.71960  0.99350  Biso   1.000  C
  C12      1.0000 0.63160  0.28040  0.00650  Biso   1.000  C
  F25      1.0000 0.40450  0.66770  0.92430  Biso   1.000  F
  F26      1.0000 0.59550  0.33230  0.07570  Biso   1.000  F
  F27      1.0000 0.32990  0.78650  0.94680  Biso   1.000  F
  F28      1.0000 0.67010  0.21350  0.05320  Biso   1.000  F
  F29      1.0000 0.44090  0.81650  0.08250  Biso   1.000  F
  F30      1.0000 0.55910  0.18350  0.91750  Biso   1.000  F
  F31      1.0000 0.44660  0.67380  0.96870  Biso   1.000  F
  F32      1.0000 0.55340  0.32620  0.03130  Biso   1.000  F
  F33      1.0000 0.32370  0.75620  0.92220  Biso   1.000  F
  F34      1.0000 0.67630  0.24380  0.07780  Biso   1.000  F
  F35      1.0000 0.46820  0.80260  0.07560  Biso   1.000  F
  F36      1.0000 0.53180  0.19740  0.92440  Biso   1.000  F
  C13      1.0000 0.26220  0.62180  0.01470  Biso   1.000  C
  C14      1.0000 0.73780  0.37820  0.98530  Biso   1.000  C
  C15      1.0000 0.29890  0.55550  0.07270  Biso   1.000  C
  C16      1.0000 0.70110  0.44450  0.92730  Biso   1.000  C
  H3       1.0000 0.38600  0.57410  0.09740  Biso   1.000  H
  H4       1.0000 0.61400  0.42590  0.90260  Biso   1.000  H
  C17      1.0000 0.21350  0.46420  0.09520  Biso   1.000  C
  C18      1.0000 0.78650  0.53580  0.90480  Biso   1.000  C
  C19      1.0000 0.26610  0.39920  0.16030  Biso   1.000  C
  C20      1.0000 0.73390  0.60080  0.83970  Biso   1.000  C
  F37      1.0000 0.19130  0.27870  0.12040  Biso   1.000  F
  F38      1.0000 0.80870  0.72130  0.87960  Biso   1.000  F
  F39      1.0000 0.35500  0.46530  0.24500  Biso   1.000  F
  F40      1.0000 0.64500  0.53470  0.75500  Biso   1.000  F
  F41      1.0000 0.28900  0.32300  0.10300  Biso   1.000  F
  F42      1.0000 0.71100  0.67700  0.89700  Biso   1.000  F
  F43      1.0000 0.18250  0.31400  0.17400  Biso   1.000  F
  F44      1.0000 0.81750  0.68600  0.82600  Biso   1.000  F
  F45      1.0000 0.26400  0.44210  0.25720  Biso   1.000  F
  F46      1.0000 0.73600  0.55790  0.74280  Biso   1.000  F
  F47      1.0000 0.37810  0.41280  0.16140  Biso   1.000  F
  F48      1.0000 0.62190  0.58720  0.83860  Biso   1.000  F
  O7       1.0000 0.09530  0.42776  0.07182  Biso   1.000  O
  O8       1.0000 0.90470  0.57224  0.92818  Biso   1.000  O
  O9       1.0000 0.16440  0.93110  0.54630  Biso   1.000  O
  O10      1.0000 0.83560  0.06890  0.45370  Biso   1.000  O
  N1       1.0000 0.17510  0.83130  0.54970  Biso   1.000  N
  N2       1.0000 0.82490  0.16870  0.45030  Biso   1.000  N
  C21      1.0000 0.19760  0.80510  0.65030  Biso   1.000  C
  C22      1.0000 0.80240  0.19490  0.34970  Biso   1.000  C
  C23      1.0000 0.30690  0.92680  0.74330  Biso   1.000  C
  C24      1.0000 0.69310  0.07320  0.25670  Biso   1.000  C
  H5       1.0000 0.27850  0.99050  0.75760  Biso   1.000  H
  H6       1.0000 0.72150  0.00950  0.24240  Biso   1.000  H
  H7       1.0000 0.38150  0.95850  0.72420  Biso   1.000  H
  H8       1.0000 0.61850  0.04150  0.27580  Biso   1.000  H
  H9       1.0000 0.32980  0.90800  0.80680  Biso   1.000  H
  H10      1.0000 0.67020  0.09200  0.19320  Biso   1.000  H
  C25      1.0000 0.07050  0.76700  0.66890  Biso   1.000  C
  C26      1.0000 0.92950  0.23300  0.33110  Biso   1.000  C
  H11      1.0000 0.05630  0.84030  0.68780  Biso   1.000  H
  H12      1.0000 0.94370  0.15970  0.31220  Biso   1.000  H
  H13      1.0000 0.07530  0.73590  0.72650  Biso   1.000  H
  H14      1.0000 0.92470  0.26410  0.27350  Biso   1.000  H
  H15      1.0000 0.99970  0.70070  0.60390  Biso   1.000  H
  H16      1.0000 0.00030  0.29930  0.39610  Biso   1.000  H
  C27      1.0000 0.23090  0.69330  0.61860  Biso   1.000  C
  C28      1.0000 0.76910  0.30670  0.38140  Biso   1.000  C
  C29      1.0000 0.37460  0.73490  0.65240  Biso   1.000  C
  C30      1.0000 0.62540  0.26510  0.34760  Biso   1.000  C
  H17      1.0000 0.38710  0.66090  0.63020  Biso   1.000  H
  H18      1.0000 0.61290  0.33910  0.36980  Biso   1.000  H
  H19      1.0000 0.41640  0.77800  0.72970  Biso   1.000  H
  H20      1.0000 0.58360  0.22200  0.27030  Biso   1.000  H
  H21      1.0000 0.41170  0.79220  0.61890  Biso   1.000  H
  H22      1.0000 0.58830  0.20780  0.38110  Biso   1.000  H
  C31      1.0000 0.16370  0.58180  0.64980  Biso   1.000  C
  C32      1.0000 0.83630  0.41820  0.35020  Biso   1.000  C
  H23      1.0000 0.18990  0.51770  0.62750  Biso   1.000  H
  H24      1.0000 0.81010  0.48230  0.37250  Biso   1.000  H
  H25      1.0000 0.07100  0.54520  0.61470  Biso   1.000  H
  H26      1.0000 0.92900  0.45480  0.38530  Biso   1.000  H
  H27      1.0000 0.18760  0.61180  0.72680  Biso   1.000  H
  H28      1.0000 0.81240  0.38820  0.27320  Biso   1.000  H
  N3       1.0000 0.17880  0.65060  0.49940  Biso   1.000  N
  N4       1.0000 0.82120  0.34940  0.50060  Biso   1.000  N
  O11      1.0000 0.17020  0.54820  0.43906  Biso   1.000  O
  O12      1.0000 0.82980  0.45180  0.56094  Biso   1.000  O
  C33      1.0000 0.15830  0.73770  0.46610  Biso   1.000  C
  C34      1.0000 0.84170  0.26230  0.53390  Biso   1.000  C
  C35      1.0000 0.12640  0.73120  0.35740  Biso   1.000  C
  C36      1.0000 0.87360  0.26880  0.64260  Biso   1.000  C
  C37      1.0000 0.09360  0.62950  0.26410  Biso   1.000  C
  C38      1.0000 0.90640  0.37050  0.73590  Biso   1.000  C
  H29      1.0000 0.08650  0.55040  0.26260  Biso   1.000  H
  H30      1.0000 0.91350  0.44960  0.73740  Biso   1.000  H
  N5       1.0000 0.07380  0.65940  0.17840  Biso   1.000  N
  N6       1.0000 0.92620  0.34060  0.82160  Biso   1.000  N
  N7       1.0000 0.09390  0.78130  0.21620  Biso   1.000  N
  N8       1.0000 0.90610  0.21870  0.78380  Biso   1.000  N
  C39      1.0000 0.08280  0.84920  0.14460  Biso   1.000  C
  C40      1.0000 0.91720  0.15080  0.85540  Biso   1.000  C
  H31      1.0000 0.04930  0.90650  0.17050  Biso   1.000  H
  H32      1.0000 0.95070  0.09350  0.82950  Biso   1.000  H
  H33      1.0000 0.02030  0.78750  0.07300  Biso   1.000  H
  H34      1.0000 0.97970  0.21250  0.92700  Biso   1.000  H
  C41      1.0000 0.20870  0.92560  0.13620  Biso   1.000  C
  C42      1.0000 0.79130  0.07440  0.86380  Biso   1.000  C
  H35      1.0000 0.24570  0.86990  0.11520  Biso   1.000  H
  H36      1.0000 0.75430  0.13010  0.88480  Biso   1.000  H
  H37      1.0000 0.26940  0.99210  0.20650  Biso   1.000  H
  H38      1.0000 0.73060  0.00790  0.79350  Biso   1.000  H
  C43      1.0000 0.19050  0.98730  0.05360  Biso   1.000  C
  C44      1.0000 0.80950  0.01270  0.94640  Biso   1.000  C
  H39      1.0000 0.13200  0.92040  0.98290  Biso   1.000  H
  H40      1.0000 0.86800  0.07960  0.01710  Biso   1.000  H
  H41      1.0000 0.15050  0.04040  0.07330  Biso   1.000  H
  H42      1.0000 0.84950  0.95960  0.92670  Biso   1.000  H
  C45      1.0000 0.31210  0.06490  0.04740  Biso   1.000  C
  C46      1.0000 0.68790  0.93510  0.95260  Biso   1.000  C
  H43      1.0000 0.29630  0.10160  0.99470  Biso   1.000  H
  H44      1.0000 0.70370  0.89840  0.00530  Biso   1.000  H
  H45      1.0000 0.35130  0.01240  0.02650  Biso   1.000  H
  H46      1.0000 0.64870  0.98760  0.97350  Biso   1.000  H
  H47      1.0000 0.36970  0.13230  0.11680  Biso   1.000  H
  H48      1.0000 0.63030  0.86770  0.88320  Biso   1.000  H
  C47      1.0000 0.12480  0.82640  0.32150  Biso   1.000  C
  C48      1.0000 0.87520  0.17360  0.67850  Biso   1.000  C
  H49      1.0000 0.14250  0.90790  0.36390  Biso   1.000  H
  H50      1.0000 0.85750  0.09210  0.63610  Biso   1.000  H
  O13      1.0000 0.46450  0.94380  0.50270  Biso   1.000  O
  O14      1.0000 0.53550  0.05620  0.49730  Biso   1.000  O
  C49      1.0000 0.50700  0.07510  0.53400  Biso   1.000  C
  C50      1.0000 0.49300  0.92490  0.46600  Biso   1.000  C
  C51      1.0000 0.53400  0.16390  0.64640  Biso   1.000  C
  C52      1.0000 0.46600  0.83610  0.35360  Biso   1.000  C
  C53      1.0000 0.50600  0.91500  0.41900  Biso   1.000  C
  C54      1.0000 0.49400  0.08500  0.58100  Biso   1.000  C
  C55      1.0000 0.54700  0.22100  0.60600  Biso   1.000  C
  C56      1.0000 0.45300  0.77900  0.39400  Biso   1.000  C
