data_image0
_cell_length_a       11.726
_cell_length_b       11.907
_cell_length_c       13.498
_cell_angle_alpha    104.463
_cell_angle_beta     104.71
_cell_angle_gamma    109.324

_symmetry_space_group_name_H-M    "P 1"
_symmetry_int_tables_number       1

loop_
  _symmetry_equiv_pos_as_xyz
  'x, y, z'

loop_
  _atom_site_label
  _atom_site_occupancy
  _atom_site_fract_x
  _atom_site_fract_y
  _atom_site_fract_z
  _atom_site_thermal_displace_type
  _atom_site_B_iso_or_equiv
  _atom_site_type_symbol
  Cu1      1.0000 0.00000  0.00000  0.50000  Biso   1.000  Cu
  O1       1.0000 0.90620  0.87500  0.35410  Biso   1.000  O
  O2       1.0000 0.09380  0.12500  0.64590  Biso   1.000  O
  C1       1.0000 0.75110  0.69470  0.20940  Biso   1.000  C
  C2       1.0000 0.24890  0.30530  0.79060  Biso   1.000  C
  F1       1.0000 0.78840  0.77100  0.12850  Biso   1.000  F
  F2       1.0000 0.21160  0.22900  0.87150  Biso   1.000  F
  F3       1.0000 0.80820  0.60720  0.18560  Biso   1.000  F
  F4       1.0000 0.19180  0.39280  0.81440  Biso   1.000  F
  F5       1.0000 0.63190  0.63320  0.13730  Biso   1.000  F
  F6       1.0000 0.36810  0.36680  0.86270  Biso   1.000  F
  F7       1.0000 0.74700  0.74940  0.16290  Biso   1.000  F
  F8       1.0000 0.25300  0.25060  0.83710  Biso   1.000  F
  F9       1.0000 0.80670  0.63290  0.18590  Biso   1.000  F
  F10      1.0000 0.19330  0.36710  0.81410  Biso   1.000  F
  F11      1.0000 0.62100  0.61080  0.19800  Biso   1.000  F
  F12      1.0000 0.37900  0.38920  0.80200  Biso   1.000  F
  C3       1.0000 0.80550  0.77570  0.32680  Biso   1.000  C
  C4       1.0000 0.19450  0.22430  0.67320  Biso   1.000  C
  C5       1.0000 0.74540  0.73370  0.39340  Biso   1.000  C
  C6       1.0000 0.25460  0.26630  0.60660  Biso   1.000  C
  H1       1.0000 0.66950  0.65540  0.36210  Biso   1.000  H
  H2       1.0000 0.33050  0.34460  0.63790  Biso   1.000  H
  C7       1.0000 0.79090  0.80030  0.50190  Biso   1.000  C
  C8       1.0000 0.20910  0.19970  0.49810  Biso   1.000  C
  C9       1.0000 0.71980  0.74580  0.57090  Biso   1.000  C
  C10      1.0000 0.28020  0.25420  0.42910  Biso   1.000  C
  F13      1.0000 0.55910  0.67370  0.46750  Biso   1.000  F
  F14      1.0000 0.44090  0.32630  0.53250  Biso   1.000  F
  F15      1.0000 0.71550  0.65740  0.56780  Biso   1.000  F
  F16      1.0000 0.28450  0.34260  0.43220  Biso   1.000  F
  F17      1.0000 0.66690  0.63410  0.55600  Biso   1.000  F
  F18      1.0000 0.33310  0.36590  0.44400  Biso   1.000  F
  F19      1.0000 0.67690  0.82190  0.61770  Biso   1.000  F
  F20      1.0000 0.32310  0.17810  0.38230  Biso   1.000  F
  F21      1.0000 0.69400  0.81670  0.62780  Biso   1.000  F
  F22      1.0000 0.30600  0.18330  0.37220  Biso   1.000  F
  F23      1.0000 0.83790  0.77320  0.69840  Biso   1.000  F
  F24      1.0000 0.16210  0.22680  0.30160  Biso   1.000  F
  O3       1.0000 0.88890  0.90180  0.55840  Biso   1.000  O
  O4       1.0000 0.11110  0.09820  0.44160  Biso   1.000  O
  Cu2      1.0000 0.00000  0.50000  0.00000  Biso   1.000  Cu
  O5       1.0000 0.83630  0.38640  0.02790  Biso   1.000  O
  O6       1.0000 0.16370  0.61360  0.97210  Biso   1.000  O
  C11      1.0000 0.61770  0.28660  0.00350  Biso   1.000  C
  C12      1.0000 0.38230  0.71340  0.99650  Biso   1.000  C
  F25      1.0000 0.55960  0.32510  0.06710  Biso   1.000  F
  F26      1.0000 0.44040  0.67490  0.93290  Biso   1.000  F
  F27      1.0000 0.65570  0.20250  0.06760  Biso   1.000  F
  F28      1.0000 0.34430  0.79750  0.93240  Biso   1.000  F
  F29      1.0000 0.53550  0.22300  0.90040  Biso   1.000  F
  F30      1.0000 0.46450  0.77700  0.09960  Biso   1.000  F
  F31      1.0000 0.55430  0.36730  0.03580  Biso   1.000  F
  F32      1.0000 0.44570  0.63270  0.96420  Biso   1.000  F
  F33      1.0000 0.66020  0.25550  0.05890  Biso   1.000  F
  F34      1.0000 0.33980  0.74450  0.94110  Biso   1.000  F
  F35      1.0000 0.52640  0.18040  0.91870  Biso   1.000  F
  F36      1.0000 0.47360  0.81960  0.08130  Biso   1.000  F
  C13      1.0000 0.72770  0.38040  0.98670  Biso   1.000  C
  C14      1.0000 0.27230  0.61960  0.01330  Biso   1.000  C
  C15      1.0000 0.69120  0.44940  0.92600  Biso   1.000  C
  C16      1.0000 0.30880  0.55060  0.07400  Biso   1.000  C
  H3       1.0000 0.60200  0.43300  0.89820  Biso   1.000  H
  H4       1.0000 0.39800  0.56700  0.10180  Biso   1.000  H
  C17      1.0000 0.77660  0.53830  0.90510  Biso   1.000  C
  C18      1.0000 0.22340  0.46170  0.09490  Biso   1.000  C
  C19      1.0000 0.72040  0.59990  0.83620  Biso   1.000  C
  C20      1.0000 0.27960  0.40010  0.16380  Biso   1.000  C
  F37      1.0000 0.76910  0.69860  0.86820  Biso   1.000  F
  F38      1.0000 0.23090  0.30140  0.13180  Biso   1.000  F
  F39      1.0000 0.64170  0.62460  0.81470  Biso   1.000  F
  F40      1.0000 0.35830  0.37540  0.18530  Biso   1.000  F
  F41      1.0000 0.82530  0.76550  0.90550  Biso   1.000  F
  F42      1.0000 0.17470  0.23450  0.09450  Biso   1.000  F
  F43      1.0000 0.79870  0.64010  0.76120  Biso   1.000  F
  F44      1.0000 0.20130  0.35990  0.23880  Biso   1.000  F
  F45      1.0000 0.70020  0.53510  0.73320  Biso   1.000  F
  F46      1.0000 0.29980  0.46490  0.26680  Biso   1.000  F
  F47      1.0000 0.58060  0.55580  0.82270  Biso   1.000  F
  F48      1.0000 0.41940  0.44420  0.17730  Biso   1.000  F
  O7       1.0000 0.89790  0.57570  0.93070  Biso   1.000  O
  O8       1.0000 0.10210  0.42430  0.06930  Biso   1.000  O
  O9       1.0000 0.82810  0.06930  0.45860  Biso   1.000  O
  O10      1.0000 0.17190  0.93070  0.54140  Biso   1.000  O
  N1       1.0000 0.82020  0.17360  0.45350  Biso   1.000  N
  N2       1.0000 0.17980  0.82640  0.54650  Biso   1.000  N
  C21      1.0000 0.79440  0.19790  0.34960  Biso   1.000  C
  C22      1.0000 0.20560  0.80210  0.65040  Biso   1.000  C
  C23      1.0000 0.67920  0.07980  0.25880  Biso   1.000  C
  C24      1.0000 0.32080  0.92020  0.74120  Biso   1.000  C
  H5       1.0000 0.70430  0.00850  0.24280  Biso   1.000  H
  H6       1.0000 0.29570  0.99150  0.75720  Biso   1.000  H
  H7       1.0000 0.65380  0.09900  0.19220  Biso   1.000  H
  H8       1.0000 0.34620  0.90100  0.80780  Biso   1.000  H
  H9       1.0000 0.60580  0.05640  0.28330  Biso   1.000  H
  H10      1.0000 0.39420  0.94360  0.71670  Biso   1.000  H
  C25      1.0000 0.91690  0.22240  0.32360  Biso   1.000  C
  C26      1.0000 0.08310  0.77760  0.67640  Biso   1.000  C
  H11      1.0000 0.92840  0.14290  0.30360  Biso   1.000  H
  H12      1.0000 0.07160  0.85710  0.69640  Biso   1.000  H
  H13      1.0000 0.99210  0.28750  0.38840  Biso   1.000  H
  H14      1.0000 0.00790  0.71250  0.61160  Biso   1.000  H
  H15      1.0000 0.90940  0.25250  0.26200  Biso   1.000  H
  H16      1.0000 0.09060  0.74750  0.73800  Biso   1.000  H
  C27      1.0000 0.76650  0.31690  0.38240  Biso   1.000  C
  C28      1.0000 0.23350  0.68310  0.61760  Biso   1.000  C
  C29      1.0000 0.62390  0.28770  0.35510  Biso   1.000  C
  C30      1.0000 0.37610  0.71230  0.64490  Biso   1.000  C
  H17      1.0000 0.61420  0.36780  0.37820  Biso   1.000  H
  H18      1.0000 0.38580  0.63220  0.62180  Biso   1.000  H
  H19      1.0000 0.58830  0.23380  0.39380  Biso   1.000  H
  H20      1.0000 0.41170  0.76620  0.60620  Biso   1.000  H
  H21      1.0000 0.57680  0.24260  0.27550  Biso   1.000  H
  H22      1.0000 0.42320  0.75740  0.72450  Biso   1.000  H
  C31      1.0000 0.82940  0.42090  0.34270  Biso   1.000  C
  C32      1.0000 0.17060  0.57910  0.65730  Biso   1.000  C
  H23      1.0000 0.80650  0.49230  0.36720  Biso   1.000  H
  H24      1.0000 0.19350  0.50770  0.63280  Biso   1.000  H
  H25      1.0000 0.79830  0.38670  0.26210  Biso   1.000  H
  H26      1.0000 0.20170  0.61330  0.73790  Biso   1.000  H
  H27      1.0000 0.92400  0.45090  0.37310  Biso   1.000  H
  H28      1.0000 0.07600  0.54910  0.62690  Biso   1.000  H
  N3       1.0000 0.82590  0.36350  0.50390  Biso   1.000  N
  N4       1.0000 0.17410  0.63650  0.49610  Biso   1.000  N
  O11      1.0000 0.84150  0.47210  0.56460  Biso   1.000  O
  O12      1.0000 0.15850  0.52790  0.43540  Biso   1.000  O
  C33      1.0000 0.84300  0.27240  0.53860  Biso   1.000  C
  C34      1.0000 0.15700  0.72760  0.46140  Biso   1.000  C
  C35      1.0000 0.87660  0.28020  0.65060  Biso   1.000  C
  C36      1.0000 0.12340  0.71980  0.34940  Biso   1.000  C
  C37      1.0000 0.91100  0.38480  0.74510  Biso   1.000  C
  C38      1.0000 0.08900  0.61520  0.25490  Biso   1.000  C
  H29      1.0000 0.91880  0.46690  0.74540  Biso   1.000  H
  H30      1.0000 0.08120  0.53310  0.25460  Biso   1.000  H
  N5       1.0000 0.93110  0.35510  0.83360  Biso   1.000  N
  N6       1.0000 0.06890  0.64490  0.16640  Biso   1.000  N
  N7       1.0000 0.90790  0.23010  0.79660  Biso   1.000  N
  N8       1.0000 0.09210  0.76990  0.20340  Biso   1.000  N
  C39      1.0000 0.91520  0.16080  0.87140  Biso   1.000  C
  C40      1.0000 0.08480  0.83920  0.12860  Biso   1.000  C
  H31      1.0000 0.96890  0.22310  0.94730  Biso   1.000  H
  H32      1.0000 0.03110  0.77690  0.05270  Biso   1.000  H
  H33      1.0000 0.95910  0.10530  0.85190  Biso   1.000  H
  H34      1.0000 0.04090  0.89470  0.14810  Biso   1.000  H
  C41      1.0000 0.78720  0.08160  0.86880  Biso   1.000  C
  C42      1.0000 0.21280  0.91840  0.13120  Biso   1.000  C
  H35      1.0000 0.73720  0.01150  0.79600  Biso   1.000  H
  H36      1.0000 0.26280  0.98850  0.20400  Biso   1.000  H
  H37      1.0000 0.73820  0.13430  0.87940  Biso   1.000  H
  H38      1.0000 0.26180  0.86570  0.12060  Biso   1.000  H
  C43      1.0000 0.80200  0.02490  0.95950  Biso   1.000  C
  C44      1.0000 0.19800  0.97510  0.04050  Biso   1.000  C
  H39      1.0000 0.85770  0.97870  0.95270  Biso   1.000  H
  H40      1.0000 0.14230  0.02130  0.04730  Biso   1.000  H
  H41      1.0000 0.84550  0.09510  0.03240  Biso   1.000  H
  H42      1.0000 0.15450  0.90490  0.96760  Biso   1.000  H
  C45      1.0000 0.67390  0.93550  0.95220  Biso   1.000  C
  C46      1.0000 0.32610  0.06450  0.04780  Biso   1.000  C
  H43      1.0000 0.68690  0.90130  0.01100  Biso   1.000  H
  H44      1.0000 0.31310  0.09870  0.98900  Biso   1.000  H
  H45      1.0000 0.63130  0.86500  0.88060  Biso   1.000  H
  H46      1.0000 0.36870  0.13500  0.11940  Biso   1.000  H
  H47      1.0000 0.61910  0.98130  0.96030  Biso   1.000  H
  H48      1.0000 0.38090  0.01870  0.03970  Biso   1.000  H
  C47      1.0000 0.87520  0.18250  0.68810  Biso   1.000  C
  C48      1.0000 0.12480  0.81750  0.31190  Biso   1.000  C
  H49      1.0000 0.85470  0.09720  0.64470  Biso   1.000  H
  H50      1.0000 0.14530  0.90280  0.35530  Biso   1.000  H
  O13      1.0000 0.50000  0.00000  0.50000  Biso   1.000  O
  C49      1.0000 0.53420  0.11270  0.50600  Biso   1.000  C
  C50      1.0000 0.46580  0.88730  0.49400  Biso   1.000  C
  H51      1.0000 0.46900  0.11710  0.44940  Biso   1.000  H
  H52      1.0000 0.53100  0.88290  0.55060  Biso   1.000  H
  H53      1.0000 0.61380  0.14000  0.49280  Biso   1.000  H
  H54      1.0000 0.38620  0.86000  0.50720  Biso   1.000  H
  C51      1.0000 0.55400  0.20700  0.62400  Biso   1.000  C
  C52      1.0000 0.44600  0.79300  0.37600  Biso   1.000  C
  H55      1.0000 0.57960  0.29280  0.62430  Biso   1.000  H
  H56      1.0000 0.42040  0.70720  0.37570  Biso   1.000  H
  H57      1.0000 0.47400  0.18150  0.63710  Biso   1.000  H
  H58      1.0000 0.52600  0.81850  0.36290  Biso   1.000  H
  H59      1.0000 0.62030  0.20470  0.68090  Biso   1.000  H
  H60      1.0000 0.37970  0.79530  0.31910  Biso   1.000  H
  C53      1.0000 0.47980  0.90500  0.39020  Biso   1.000  C
  C54      1.0000 0.52020  0.09500  0.60980  Biso   1.000  C
  H61      1.0000 0.54950  0.94150  0.36680  Biso   1.000  H
  H62      1.0000 0.45050  0.05850  0.63320  Biso   1.000  H
  H63      1.0000 0.40030  0.89200  0.33650  Biso   1.000  H
  H64      1.0000 0.59970  0.10800  0.66350  Biso   1.000  H
  C55      1.0000 0.46900  0.78000  0.39530  Biso   1.000  C
  C56      1.0000 0.53100  0.22000  0.60470  Biso   1.000  C
  H65      1.0000 0.45530  0.72450  0.32390  Biso   1.000  H
  H66      1.0000 0.54470  0.27550  0.67610  Biso   1.000  H
  H67      1.0000 0.54920  0.79230  0.44770  Biso   1.000  H
  H68      1.0000 0.45080  0.20770  0.55230  Biso   1.000  H
  H69      1.0000 0.39850  0.74220  0.41720  Biso   1.000  H
  H70      1.0000 0.60150  0.25780  0.58280  Biso   1.000  H
