data_image0
_cell_length_a       9.307
_cell_length_b       13.308
_cell_length_c       14.627
_cell_angle_alpha    109.283
_cell_angle_beta     91.869
_cell_angle_gamma    107.739

_symmetry_space_group_name_H-M    "P 1"
_symmetry_int_tables_number       1

loop_
  _symmetry_equiv_pos_as_xyz
  'x, y, z'

loop_
  _atom_site_label
  _atom_site_occupancy
  _atom_site_fract_x
  _atom_site_fract_y
  _atom_site_fract_z
  _atom_site_thermal_displace_type
  _atom_site_B_iso_or_equiv
  _atom_site_type_symbol
  Cu1      1.0000 0.00000  0.00000  0.00000  Biso   1.000  Cu
  O1       1.0000 0.83480  0.87440  0.01510  Biso   1.000  O
  O2       1.0000 0.16520  0.12560  0.98490  Biso   1.000  O
  C1       1.0000 0.59120  0.76680  0.03060  Biso   1.000  C
  C2       1.0000 0.40880  0.23320  0.96940  Biso   1.000  C
  F1       1.0000 0.64700  0.71600  0.08000  Biso   1.000  F
  F2       1.0000 0.35300  0.28400  0.92000  Biso   1.000  F
  F3       1.0000 0.47100  0.79400  0.07400  Biso   1.000  F
  F4       1.0000 0.52900  0.20600  0.92600  Biso   1.000  F
  F5       1.0000 0.56500  0.69850  0.93300  Biso   1.000  F
  F6       1.0000 0.43500  0.30150  0.06700  Biso   1.000  F
  F7       1.0000 0.63600  0.72400  0.09300  Biso   1.000  F
  F8       1.0000 0.36400  0.27600  0.90700  Biso   1.000  F
  F9       1.0000 0.44700  0.76500  0.05000  Biso   1.000  F
  F10      1.0000 0.55300  0.23500  0.95000  Biso   1.000  F
  F11      1.0000 0.54900  0.69800  0.94700  Biso   1.000  F
  F12      1.0000 0.45100  0.30200  0.05300  Biso   1.000  F
  C3       1.0000 0.71130  0.88220  0.04210  Biso   1.000  C
  C4       1.0000 0.28870  0.11780  0.95790  Biso   1.000  C
  C5       1.0000 0.67090  0.98120  0.08080  Biso   1.000  C
  C6       1.0000 0.32910  0.01880  0.91920  Biso   1.000  C
  H1       1.0000 0.57060  0.97470  0.09570  Biso   1.000  H
  H2       1.0000 0.42940  0.02530  0.90430  Biso   1.000  H
  C7       1.0000 0.77670  0.08790  0.09730  Biso   1.000  C
  C8       1.0000 0.22330  0.91210  0.90270  Biso   1.000  C
  C9       1.0000 0.73120  0.19230  0.15510  Biso   1.000  C
  C10      1.0000 0.26880  0.80770  0.84490  Biso   1.000  C
  F13      1.0000 0.58040  0.16840  0.14980  Biso   1.000  F
  F14      1.0000 0.41960  0.83160  0.85020  Biso   1.000  F
  F15      1.0000 0.79220  0.23240  0.24740  Biso   1.000  F
  F16      1.0000 0.20780  0.76760  0.75260  Biso   1.000  F
  F17      1.0000 0.78340  0.27480  0.11970  Biso   1.000  F
  F18      1.0000 0.21660  0.72520  0.88030  Biso   1.000  F
  O3       1.0000 0.91010  0.11380  0.07610  Biso   1.000  O
  O4       1.0000 0.08990  0.88620  0.92390  Biso   1.000  O
  Cu2      1.0000 0.00000  0.50000  0.50000  Biso   1.000  Cu
  O5       1.0000 0.82860  0.37020  0.50480  Biso   1.000  O
  O6       1.0000 0.17140  0.62980  0.49520  Biso   1.000  O
  C11      1.0000 0.58160  0.24990  0.49470  Biso   1.000  C
  C12      1.0000 0.41840  0.75010  0.50530  Biso   1.000  C
  F19      1.0000 0.43800  0.21150  0.45100  Biso   1.000  F
  F20      1.0000 0.56200  0.78850  0.54900  Biso   1.000  F
  F21      1.0000 0.61700  0.15500  0.45400  Biso   1.000  F
  F22      1.0000 0.38300  0.84500  0.54600  Biso   1.000  F
  F23      1.0000 0.59200  0.25700  0.56820  Biso   1.000  F
  F24      1.0000 0.40800  0.74300  0.43180  Biso   1.000  F
  F25      1.0000 0.43200  0.24290  0.46600  Biso   1.000  F
  F26      1.0000 0.56800  0.75710  0.53400  Biso   1.000  F
  F27      1.0000 0.61300  0.14300  0.43000  Biso   1.000  F
  F28      1.0000 0.38700  0.85700  0.57000  Biso   1.000  F
  F29      1.0000 0.59400  0.27200  0.59840  Biso   1.000  F
  F30      1.0000 0.40600  0.72800  0.40160  Biso   1.000  F
  C13      1.0000 0.69090  0.34810  0.47070  Biso   1.000  C
  C14      1.0000 0.30910  0.65190  0.52930  Biso   1.000  C
  C15      1.0000 0.63390  0.39640  0.41220  Biso   1.000  C
  C16      1.0000 0.36610  0.60360  0.58780  Biso   1.000  C
  H3       1.0000 0.52680  0.37460  0.39450  Biso   1.000  H
  H4       1.0000 0.47320  0.62540  0.60550  Biso   1.000  H
  C17      1.0000 0.73240  0.47660  0.37940  Biso   1.000  C
  C18      1.0000 0.26760  0.52340  0.62060  Biso   1.000  C
  C19      1.0000 0.66270  0.52280  0.31090  Biso   1.000  C
  C20      1.0000 0.33730  0.47720  0.68910  Biso   1.000  C
  F31      1.0000 0.72530  0.51310  0.23120  Biso   1.000  F
  F32      1.0000 0.27470  0.48690  0.76880  Biso   1.000  F
  F33      1.0000 0.68920  0.63460  0.35810  Biso   1.000  F
  F34      1.0000 0.31080  0.36540  0.64190  Biso   1.000  F
  F35      1.0000 0.51380  0.47380  0.28580  Biso   1.000  F
  F36      1.0000 0.48620  0.52620  0.71420  Biso   1.000  F
  O7       1.0000 0.87780  0.52080  0.39780  Biso   1.000  O
  O8       1.0000 0.12220  0.47920  0.60220  Biso   1.000  O
  O9       1.0000 0.17480  0.03720  0.13260  Biso   1.000  O
  O10      1.0000 0.82520  0.96280  0.86740  Biso   1.000  O
  N1       1.0000 0.14900  0.01780  0.21470  Biso   1.000  N
  N2       1.0000 0.85100  0.98220  0.78530  Biso   1.000  N
  C21      1.0000 0.16490  0.91350  0.22820  Biso   1.000  C
  C22      1.0000 0.83510  0.08650  0.77180  Biso   1.000  C
  C23      1.0000 0.33800  0.93360  0.24320  Biso   1.000  C
  C24      1.0000 0.66200  0.06640  0.75680  Biso   1.000  C
  H5       1.0000 0.38750  0.00080  0.30170  Biso   1.000  H
  H6       1.0000 0.61250  0.99920  0.69830  Biso   1.000  H
  H7       1.0000 0.38150  0.94510  0.18580  Biso   1.000  H
  H8       1.0000 0.61850  0.05490  0.81420  Biso   1.000  H
  H9       1.0000 0.35470  0.86780  0.25170  Biso   1.000  H
  H10      1.0000 0.64530  0.13220  0.74830  Biso   1.000  H
  C25      1.0000 0.08630  0.80770  0.13660  Biso   1.000  C
  C26      1.0000 0.91370  0.19230  0.86340  Biso   1.000  C
  H11      1.0000 0.97880  0.79530  0.12760  Biso   1.000  H
  H12      1.0000 0.02120  0.20470  0.87240  Biso   1.000  H
  H13      1.0000 0.12850  0.81890  0.08030  Biso   1.000  H
  H14      1.0000 0.87150  0.18110  0.91970  Biso   1.000  H
  H15      1.0000 0.10270  0.74320  0.14470  Biso   1.000  H
  H16      1.0000 0.89730  0.25680  0.85530  Biso   1.000  H
  C27      1.0000 0.08700  0.91480  0.31840  Biso   1.000  C
  C28      1.0000 0.91300  0.08520  0.68160  Biso   1.000  C
  C29      1.0000 0.15680  0.87620  0.39130  Biso   1.000  C
  C30      1.0000 0.84320  0.12380  0.60870  Biso   1.000  C
  H17      1.0000 0.14050  0.79520  0.36150  Biso   1.000  H
  H18      1.0000 0.85950  0.20480  0.63850  Biso   1.000  H
  H19      1.0000 0.10820  0.89050  0.45050  Biso   1.000  H
  H20      1.0000 0.89180  0.10950  0.54950  Biso   1.000  H
  H21      1.0000 0.26650  0.91820  0.40850  Biso   1.000  H
  H22      1.0000 0.73350  0.08180  0.59150  Biso   1.000  H
  C31      1.0000 0.91090  0.86050  0.29940  Biso   1.000  C
  C32      1.0000 0.08910  0.13950  0.70060  Biso   1.000  C
  H23      1.0000 0.88270  0.77840  0.26740  Biso   1.000  H
  H24      1.0000 0.11730  0.22160  0.73260  Biso   1.000  H
  H25      1.0000 0.86760  0.89100  0.25700  Biso   1.000  H
  H26      1.0000 0.13240  0.10900  0.74300  Biso   1.000  H
  H27      1.0000 0.87100  0.87780  0.36190  Biso   1.000  H
  H28      1.0000 0.12900  0.12220  0.63810  Biso   1.000  H
  N3       1.0000 0.11580  0.04410  0.36930  Biso   1.000  N
  N4       1.0000 0.88420  0.95590  0.63070  Biso   1.000  N
  O11      1.0000 0.10500  0.09200  0.45680  Biso   1.000  O
  O12      1.0000 0.89500  0.90800  0.54320  Biso   1.000  O
  C33      1.0000 0.13490  0.09150  0.29700  Biso   1.000  C
  C34      1.0000 0.86510  0.90850  0.70300  Biso   1.000  C
  C35      1.0000 0.13560  0.20780  0.31700  Biso   1.000  C
  C36      1.0000 0.86440  0.79220  0.68300  Biso   1.000  C
  C37      1.0000 0.10010  0.27790  0.39690  Biso   1.000  C
  C38      1.0000 0.89990  0.72210  0.60310  Biso   1.000  C
  H29      1.0000 0.07650  0.26110  0.45400  Biso   1.000  H
  H30      1.0000 0.92350  0.73890  0.54600  Biso   1.000  H
  N5       1.0000 0.10270  0.37420  0.38480  Biso   1.000  N
  N6       1.0000 0.89730  0.62580  0.61520  Biso   1.000  N
  N7       1.0000 0.14080  0.36390  0.29430  Biso   1.000  N
  N8       1.0000 0.85920  0.63610  0.70570  Biso   1.000  N
  C39      1.0000 0.14850  0.45610  0.25810  Biso   1.000  C
  C40      1.0000 0.85150  0.54390  0.74190  Biso   1.000  C
  H31      1.0000 0.22960  0.52550  0.30110  Biso   1.000  H
  H32      1.0000 0.77040  0.47450  0.69890  Biso   1.000  H
  H33      1.0000 0.05050  0.47090  0.26250  Biso   1.000  H
  H34      1.0000 0.94950  0.52910  0.73750  Biso   1.000  H
  C41      1.0000 0.18060  0.43090  0.15230  Biso   1.000  C
  C42      1.0000 0.81940  0.56910  0.84770  Biso   1.000  C
  H35      1.0000 0.10090  0.36090  0.10880  Biso   1.000  H
  H36      1.0000 0.89910  0.63910  0.89120  Biso   1.000  H
  H37      1.0000 0.28020  0.41860  0.14750  Biso   1.000  H
  H38      1.0000 0.71980  0.58140  0.85250  Biso   1.000  H
  C43      1.0000 0.18310  0.52900  0.11840  Biso   1.000  C
  C44      1.0000 0.81690  0.47100  0.88160  Biso   1.000  C
  H39      1.0000 0.08220  0.53930  0.12170  Biso   1.000  H
  H40      1.0000 0.91780  0.46070  0.87830  Biso   1.000  H
  H41      1.0000 0.25990  0.59930  0.16400  Biso   1.000  H
  H42      1.0000 0.74010  0.40070  0.83600  Biso   1.000  H
  C45      1.0000 0.22020  0.51040  0.01480  Biso   1.000  C
  C46      1.0000 0.77980  0.48960  0.98520  Biso   1.000  C
  H43      1.0000 0.22010  0.57540  0.99730  Biso   1.000  H
  H44      1.0000 0.77990  0.42460  0.00270  Biso   1.000  H
  H45      1.0000 0.14320  0.44190  0.96900  Biso   1.000  H
  H46      1.0000 0.85680  0.55810  0.03100  Biso   1.000  H
  H47      1.0000 0.32100  0.50190  0.01130  Biso   1.000  H
  H48      1.0000 0.67900  0.49810  0.98870  Biso   1.000  H
  C47      1.0000 0.16250  0.26440  0.24810  Biso   1.000  C
  C48      1.0000 0.83750  0.73560  0.75190  Biso   1.000  C
  H49      1.0000 0.18940  0.23810  0.18460  Biso   1.000  H
  H50      1.0000 0.81060  0.76190  0.81540  Biso   1.000  H
