data_image0
_cell_length_a       21.2947
_cell_length_b       13.1648
_cell_length_c       13.455
_cell_angle_alpha    98.295
_cell_angle_beta     111.757
_cell_angle_gamma    97.46

_symmetry_space_group_name_H-M    "P 1"
_symmetry_int_tables_number       1

loop_
  _symmetry_equiv_pos_as_xyz
  'x, y, z'

loop_
  _atom_site_label
  _atom_site_occupancy
  _atom_site_fract_x
  _atom_site_fract_y
  _atom_site_fract_z
  _atom_site_thermal_displace_type
  _atom_site_B_iso_or_equiv
  _atom_site_type_symbol
  Cu1      1.0000 0.50000  0.50000  0.00000  Biso   1.000  Cu
  O1       1.0000 0.43203  0.37116  0.96536  Biso   1.000  O
  O2       1.0000 0.56797  0.62884  0.03464  Biso   1.000  O
  C1       1.0000 0.33953  0.25140  0.96060  Biso   1.000  C
  C2       1.0000 0.66047  0.74860  0.03940  Biso   1.000  C
  F1       1.0000 0.38010  0.19320  0.00220  Biso   1.000  F
  F2       1.0000 0.61990  0.80680  0.99780  Biso   1.000  F
  F3       1.0000 0.31000  0.21940  0.85120  Biso   1.000  F
  F4       1.0000 0.69000  0.78060  0.14880  Biso   1.000  F
  F5       1.0000 0.29160  0.24490  0.99920  Biso   1.000  F
  F6       1.0000 0.70840  0.75510  0.00080  Biso   1.000  F
  F7       1.0000 0.37840  0.19000  0.01780  Biso   1.000  F
  F8       1.0000 0.62160  0.81000  0.98220  Biso   1.000  F
  F9       1.0000 0.32210  0.20580  0.86340  Biso   1.000  F
  F10      1.0000 0.67790  0.79420  0.13660  Biso   1.000  F
  F11      1.0000 0.28250  0.24020  0.97930  Biso   1.000  F
  F12      1.0000 0.71750  0.75980  0.02070  Biso   1.000  F
  C3       1.0000 0.37995  0.36410  0.98840  Biso   1.000  C
  C4       1.0000 0.62005  0.63590  0.01160  Biso   1.000  C
  C5       1.0000 0.35663  0.44370  0.03550  Biso   1.000  C
  C6       1.0000 0.64337  0.55630  0.96450  Biso   1.000  C
  H1       1.0000 0.31630  0.42660  0.04930  Biso   1.000  H
  H2       1.0000 0.68370  0.57340  0.95070  Biso   1.000  H
  C7       1.0000 0.39025  0.54680  0.06270  Biso   1.000  C
  C8       1.0000 0.60975  0.45320  0.93730  Biso   1.000  C
  C9       1.0000 0.36233  0.62850  0.11750  Biso   1.000  C
  C10      1.0000 0.63767  0.37150  0.88250  Biso   1.000  C
  F13      1.0000 0.35810  0.71174  0.07310  Biso   1.000  F
  F14      1.0000 0.64190  0.28826  0.92690  Biso   1.000  F
  F15      1.0000 0.29992  0.59546  0.11140  Biso   1.000  F
  F16      1.0000 0.70008  0.40454  0.88860  Biso   1.000  F
  F17      1.0000 0.40329  0.66240  0.22010  Biso   1.000  F
  F18      1.0000 0.59671  0.33760  0.77990  Biso   1.000  F
  O3       1.0000 0.44290  0.58438  0.04907  Biso   1.000  O
  O4       1.0000 0.55710  0.41562  0.95093  Biso   1.000  O
  Cu2      1.0000 0.75441  0.99353  0.51879  Biso   1.000  Cu
  Cu3      1.0000 0.24559  0.00647  0.48121  Biso   1.000  Cu
  O5       1.0000 0.67581  0.05543  0.51456  Biso   1.000  O
  O6       1.0000 0.32419  0.94457  0.48544  Biso   1.000  O
  C11      1.0000 0.59604  0.12650  0.56690  Biso   1.000  C
  C12      1.0000 0.40396  0.87350  0.43310  Biso   1.000  C
  F19      1.0000 0.54678  0.08980  0.46749  Biso   1.000  F
  F20      1.0000 0.45322  0.91020  0.53251  Biso   1.000  F
  F21      1.0000 0.56578  0.12654  0.63703  Biso   1.000  F
  F22      1.0000 0.43422  0.87346  0.36297  Biso   1.000  F
  F23      1.0000 0.62026  0.22524  0.57140  Biso   1.000  F
  F24      1.0000 0.37974  0.77476  0.42860  Biso   1.000  F
  C13      1.0000 0.65319  0.06370  0.58890  Biso   1.000  C
  C14      1.0000 0.34681  0.93630  0.41110  Biso   1.000  C
  C15      1.0000 0.67535  0.02690  0.68460  Biso   1.000  C
  C16      1.0000 0.32465  0.97310  0.31540  Biso   1.000  C
  H3       1.0000 0.65500  0.04210  0.73560  Biso   1.000  H
  H4       1.0000 0.34500  0.95790  0.26440  Biso   1.000  H
  C17      1.0000 0.72672  0.96790  0.70820  Biso   1.000  C
  C18      1.0000 0.27328  0.03210  0.29180  Biso   1.000  C
  C19      1.0000 0.74472  0.92710  0.81420  Biso   1.000  C
  C20      1.0000 0.25528  0.07290  0.18580  Biso   1.000  C
  F25      1.0000 0.73604  0.98892  0.89202  Biso   1.000  F
  F26      1.0000 0.26396  0.01108  0.10798  Biso   1.000  F
  F27      1.0000 0.70542  0.83381  0.79550  Biso   1.000  F
  F28      1.0000 0.29458  0.16619  0.20450  Biso   1.000  F
  F29      1.0000 0.80847  0.91300  0.85320  Biso   1.000  F
  F30      1.0000 0.19153  0.08700  0.14680  Biso   1.000  F
  O7       1.0000 0.76003  0.94128  0.65244  Biso   1.000  O
  O8       1.0000 0.23997  0.05872  0.34756  Biso   1.000  O
  O9       1.0000 0.74665  0.04593  0.38498  Biso   1.000  O
  O10      1.0000 0.25335  0.95407  0.61502  Biso   1.000  O
  C21      1.0000 0.75497  0.05500  0.21770  Biso   1.000  C
  C22      1.0000 0.24503  0.94500  0.78230  Biso   1.000  C
  F31      1.0000 0.68904  0.05810  0.17905  Biso   1.000  F
  F32      1.0000 0.31096  0.94190  0.82095  Biso   1.000  F
  F33      1.0000 0.78864  0.15157  0.23286  Biso   1.000  F
  F34      1.0000 0.21136  0.84843  0.76714  Biso   1.000  F
  F35      1.0000 0.76635  0.99564  0.14111  Biso   1.000  F
  F36      1.0000 0.23365  0.00436  0.85889  Biso   1.000  F
  C23      1.0000 0.77752  0.01730  0.32590  Biso   1.000  C
  C24      1.0000 0.22248  0.98270  0.67410  Biso   1.000  C
  C25      1.0000 0.82914  0.95890  0.34800  Biso   1.000  C
  C26      1.0000 0.17086  0.04110  0.65200  Biso   1.000  C
  H5       1.0000 0.84820  0.94300  0.29540  Biso   1.000  H
  H6       1.0000 0.15180  0.05700  0.70460  Biso   1.000  H
  C27      1.0000 0.85346  0.92320  0.44430  Biso   1.000  C
  C28      1.0000 0.14654  0.07680  0.55570  Biso   1.000  C
  C29      1.0000 0.91229  0.86330  0.46470  Biso   1.000  C
  C30      1.0000 0.08771  0.13670  0.53530  Biso   1.000  C
  F37      1.0000 0.89024  0.76380  0.45930  Biso   1.000  F
  F38      1.0000 0.10976  0.23620  0.54070  Biso   1.000  F
  F39      1.0000 0.94127  0.86669  0.39370  Biso   1.000  F
  F40      1.0000 0.05873  0.13331  0.60630  Biso   1.000  F
  F41      1.0000 0.96131  0.89970  0.56299  Biso   1.000  F
  F42      1.0000 0.03869  0.10030  0.43701  Biso   1.000  F
  O11      1.0000 0.83292  0.93177  0.52118  Biso   1.000  O
  O12      1.0000 0.16708  0.06823  0.47882  Biso   1.000  O
  Cu4      1.0000 0.00000  0.50000  0.00000  Biso   1.000  Cu
  O13      1.0000 0.07294  0.62778  0.02789  Biso   1.000  O
  O14      1.0000 0.92706  0.37222  0.97211  Biso   1.000  O
  C31      1.0000 0.15063  0.75220  0.00340  Biso   1.000  C
  C32      1.0000 0.84937  0.24780  0.99660  Biso   1.000  C
  F43      1.0000 0.19918  0.76546  0.96570  Biso   1.000  F
  F44      1.0000 0.80082  0.23454  0.03430  Biso   1.000  F
  F45      1.0000 0.17891  0.79590  0.10850  Biso   1.000  F
  F46      1.0000 0.82109  0.20410  0.89150  Biso   1.000  F
  F47      1.0000 0.10506  0.80800  0.95820  Biso   1.000  F
  F48      1.0000 0.89494  0.19200  0.04180  Biso   1.000  F
  C33      1.0000 0.11552  0.63860  0.98420  Biso   1.000  C
  C34      1.0000 0.88448  0.36140  0.01580  Biso   1.000  C
  C35      1.0000 0.13298  0.56330  0.92260  Biso   1.000  C
  C36      1.0000 0.86702  0.43670  0.07740  Biso   1.000  C
  H7       1.0000 0.16510  0.58490  0.89240  Biso   1.000  H
  H8       1.0000 0.83490  0.41510  0.10760  Biso   1.000  H
  C37      1.0000 0.10560  0.45660  0.90260  Biso   1.000  C
  C38      1.0000 0.89440  0.54340  0.09740  Biso   1.000  C
  C39      1.0000 0.12690  0.38170  0.82920  Biso   1.000  C
  C40      1.0000 0.87310  0.61830  0.17080  Biso   1.000  C
  F49      1.0000 0.13200  0.29410  0.86140  Biso   1.000  F
  F50      1.0000 0.86800  0.70590  0.13860  Biso   1.000  F
  F51      1.0000 0.18980  0.41410  0.84110  Biso   1.000  F
  F52      1.0000 0.81020  0.58590  0.15890  Biso   1.000  F
  F53      1.0000 0.08560  0.36610  0.73110  Biso   1.000  F
  F54      1.0000 0.91440  0.63390  0.26890  Biso   1.000  F
  F55      1.0000 0.07440  0.31690  0.75470  Biso   1.000  F
  F56      1.0000 0.92560  0.68310  0.24530  Biso   1.000  F
  F57      1.0000 0.16230  0.31870  0.88340  Biso   1.000  F
  F58      1.0000 0.83770  0.68130  0.11660  Biso   1.000  F
  F59      1.0000 0.16030  0.42380  0.77650  Biso   1.000  F
  F60      1.0000 0.83970  0.57620  0.22350  Biso   1.000  F
  O15      1.0000 0.06458  0.41329  0.93667  Biso   1.000  O
  O16      1.0000 0.93542  0.58671  0.06333  Biso   1.000  O
  O17      1.0000 0.53804  0.48080  0.18173  Biso   1.000  O
  O18      1.0000 0.46196  0.51920  0.81827  Biso   1.000  O
  N1       1.0000 0.59926  0.46694  0.23787  Biso   1.000  N
  N2       1.0000 0.40074  0.53306  0.76213  Biso   1.000  N
  C41      1.0000 0.61358  0.36040  0.25450  Biso   1.000  C
  C42      1.0000 0.38642  0.63960  0.74550  Biso   1.000  C
  C43      1.0000 0.58572  0.33460  0.33990  Biso   1.000  C
  C44      1.0000 0.41428  0.66540  0.66010  Biso   1.000  C
  H9       1.0000 0.53520  0.32030  0.30690  Biso   1.000  H
  H10      1.0000 0.46480  0.67970  0.69310  Biso   1.000  H
  H11      1.0000 0.60250  0.39440  0.40200  Biso   1.000  H
  H12      1.0000 0.39750  0.60560  0.59800  Biso   1.000  H
  H13      1.0000 0.60170  0.27290  0.36540  Biso   1.000  H
  H14      1.0000 0.39830  0.72710  0.63460  Biso   1.000  H
  C45      1.0000 0.57724  0.28000  0.14850  Biso   1.000  C
  C46      1.0000 0.42276  0.72000  0.85150  Biso   1.000  C
  H15      1.0000 0.52720  0.27010  0.12720  Biso   1.000  H
  H16      1.0000 0.47280  0.72990  0.87280  Biso   1.000  H
  H17      1.0000 0.59190  0.21320  0.15840  Biso   1.000  H
  H18      1.0000 0.40810  0.78680  0.84160  Biso   1.000  H
  H19      1.0000 0.58910  0.30440  0.09100  Biso   1.000  H
  H20      1.0000 0.41090  0.69560  0.90900  Biso   1.000  H
  C47      1.0000 0.69306  0.38420  0.29850  Biso   1.000  C
  C48      1.0000 0.30694  0.61580  0.70150  Biso   1.000  C
  C49      1.0000 0.72143  0.37470  0.20910  Biso   1.000  C
  C50      1.0000 0.27857  0.62530  0.79090  Biso   1.000  C
  H21      1.0000 0.77200  0.39090  0.24290  Biso   1.000  H
  H22      1.0000 0.22800  0.60910  0.75710  Biso   1.000  H
  H23      1.0000 0.70490  0.42400  0.16190  Biso   1.000  H
  H24      1.0000 0.29510  0.57600  0.83810  Biso   1.000  H
  H25      1.0000 0.70550  0.30300  0.16520  Biso   1.000  H
  H26      1.0000 0.29450  0.69700  0.83480  Biso   1.000  H
  C51      1.0000 0.72875  0.32550  0.38570  Biso   1.000  C
  C52      1.0000 0.27125  0.67450  0.61430  Biso   1.000  C
  H27      1.0000 0.77880  0.34530  0.40890  Biso   1.000  H
  H28      1.0000 0.22120  0.65470  0.59110  Biso   1.000  H
  H29      1.0000 0.71380  0.24990  0.35570  Biso   1.000  H
  H30      1.0000 0.28620  0.75010  0.64430  Biso   1.000  H
  H31      1.0000 0.71670  0.34330  0.44870  Biso   1.000  H
  H32      1.0000 0.28330  0.65670  0.55130  Biso   1.000  H
  N3       1.0000 0.70835  0.49924  0.34731  Biso   1.000  N
  N4       1.0000 0.29165  0.50076  0.65269  Biso   1.000  N
  O19      1.0000 0.76891  0.54880  0.41082  Biso   1.000  O
  O20      1.0000 0.23109  0.45120  0.58918  Biso   1.000  O
  C53      1.0000 0.65306  0.54320  0.30220  Biso   1.000  C
  C54      1.0000 0.34694  0.45680  0.69780  Biso   1.000  C
  C55      1.0000 0.65236  0.65290  0.32310  Biso   1.000  C
  C56      1.0000 0.34764  0.34710  0.67690  Biso   1.000  C
  C57      1.0000 0.59671  0.70130  0.27830  Biso   1.000  C
  C58      1.0000 0.40329  0.29870  0.72170  Biso   1.000  C
  H33      1.0000 0.55170  0.66740  0.22710  Biso   1.000  H
  H34      1.0000 0.44830  0.33260  0.77290  Biso   1.000  H
  N5       1.0000 0.61825  0.80349  0.32062  Biso   1.000  N
  N6       1.0000 0.38175  0.19651  0.67938  Biso   1.000  N
  C59      1.0000 0.57979  0.88850  0.30040  Biso   1.000  C
  C60      1.0000 0.42021  0.11150  0.69960  Biso   1.000  C
  H35      1.0000 0.55520  0.89410  0.35000  Biso   1.000  H
  H36      1.0000 0.44480  0.10590  0.65000  Biso   1.000  H
  H37      1.0000 0.61330  0.95510  0.31990  Biso   1.000  H
  H38      1.0000 0.38670  0.04490  0.68010  Biso   1.000  H
  C61      1.0000 0.53000  0.87690  0.18900  Biso   1.000  C
  C62      1.0000 0.47000  0.12310  0.81100  Biso   1.000  C
  H39      1.0000 0.49450  0.81260  0.16990  Biso   1.000  H
  H40      1.0000 0.50550  0.18740  0.83010  Biso   1.000  H
  H41      1.0000 0.55370  0.86890  0.13820  Biso   1.000  H
  H42      1.0000 0.44630  0.13110  0.86180  Biso   1.000  H
  C63      1.0000 0.49470  0.97220  0.17490  Biso   1.000  C
  C64      1.0000 0.50530  0.02780  0.82510  Biso   1.000  C
  H43      1.0000 0.48070  0.98910  0.23670  Biso   1.000  H
  H44      1.0000 0.51930  0.01090  0.76330  Biso   1.000  H
  H45      1.0000 0.52900  0.03300  0.17950  Biso   1.000  H
  H46      1.0000 0.47100  0.96700  0.82050  Biso   1.000  H
  C65      1.0000 0.43470  0.95850  0.07340  Biso   1.000  C
  C66      1.0000 0.56530  0.04150  0.92660  Biso   1.000  C
  H47      1.0000 0.41590  0.02270  0.07170  Biso   1.000  H
  H48      1.0000 0.58410  0.97730  0.92830  Biso   1.000  H
  H49      1.0000 0.39960  0.89990  0.06870  Biso   1.000  H
  H50      1.0000 0.60040  0.10010  0.93130  Biso   1.000  H
  H51      1.0000 0.44810  0.94370  0.01140  Biso   1.000  H
  H52      1.0000 0.55190  0.05630  0.98860  Biso   1.000  H
  N7       1.0000 0.68568  0.82719  0.39346  Biso   1.000  N
  N8       1.0000 0.31432  0.17281  0.60654  Biso   1.000  N
  C67      1.0000 0.70581  0.73600  0.39320  Biso   1.000  C
  C68      1.0000 0.29419  0.26400  0.60680  Biso   1.000  C
  H53      1.0000 0.75110  0.72800  0.43560  Biso   1.000  H
  H54      1.0000 0.24890  0.27200  0.56440  Biso   1.000  H
  O21      1.0000 0.96073  0.51605  0.84378  Biso   1.000  O
  O22      1.0000 0.03927  0.48395  0.15622  Biso   1.000  O
  N9       1.0000 0.89648  0.52390  0.79187  Biso   1.000  N
  N10      1.0000 0.10352  0.47610  0.20813  Biso   1.000  N
  C69      1.0000 0.87692  0.62730  0.77120  Biso   1.000  C
  C70      1.0000 0.12308  0.37270  0.22880  Biso   1.000  C
  C71      1.0000 0.89916  0.65130  0.67980  Biso   1.000  C
  C72      1.0000 0.10084  0.34870  0.32020  Biso   1.000  C
  H55      1.0000 0.94960  0.67040  0.70870  Biso   1.000  H
  H56      1.0000 0.05040  0.32960  0.29130  Biso   1.000  H
  H57      1.0000 0.87930  0.70960  0.65190  Biso   1.000  H
  H58      1.0000 0.12070  0.29040  0.34810  Biso   1.000  H
  H59      1.0000 0.88290  0.58920  0.62040  Biso   1.000  H
  H60      1.0000 0.11710  0.41080  0.37960  Biso   1.000  H
  C73      1.0000 0.91367  0.71290  0.87390  Biso   1.000  C
  C74      1.0000 0.08633  0.28710  0.12610  Biso   1.000  C
  H61      1.0000 0.96330  0.72700  0.89080  Biso   1.000  H
  H62      1.0000 0.03670  0.27300  0.10920  Biso   1.000  H
  H63      1.0000 0.90580  0.69010  0.93520  Biso   1.000  H
  H64      1.0000 0.09420  0.30990  0.06480  Biso   1.000  H
  H65      1.0000 0.89560  0.77690  0.86180  Biso   1.000  H
  H66      1.0000 0.10440  0.22310  0.13820  Biso   1.000  H
  C75      1.0000 0.79785  0.59600  0.73400  Biso   1.000  C
  C76      1.0000 0.20215  0.40400  0.26600  Biso   1.000  C
  C77      1.0000 0.77355  0.60570  0.82770  Biso   1.000  C
  C78      1.0000 0.22645  0.39430  0.17230  Biso   1.000  C
  H67      1.0000 0.72320  0.58480  0.79800  Biso   1.000  H
  H68      1.0000 0.27680  0.41520  0.20200  Biso   1.000  H
  H69      1.0000 0.78760  0.67840  0.86850  Biso   1.000  H
  H70      1.0000 0.21240  0.32160  0.13150  Biso   1.000  H
  H71      1.0000 0.79430  0.56000  0.87680  Biso   1.000  H
  H72      1.0000 0.20570  0.44000  0.12320  Biso   1.000  H
  C79      1.0000 0.75587  0.64760  0.64410  Biso   1.000  C
  C80      1.0000 0.24413  0.35240  0.35590  Biso   1.000  C
  H73      1.0000 0.70660  0.62350  0.62560  Biso   1.000  H
  H74      1.0000 0.29340  0.37650  0.37440  Biso   1.000  H
  H75      1.0000 0.76580  0.62850  0.57910  Biso   1.000  H
  H76      1.0000 0.23420  0.37150  0.42090  Biso   1.000  H
  H77      1.0000 0.76810  0.72380  0.66970  Biso   1.000  H
  H78      1.0000 0.23190  0.27620  0.33030  Biso   1.000  H
  N11      1.0000 0.78658  0.48062  0.68972  Biso   1.000  N
  N12      1.0000 0.21342  0.51938  0.31028  Biso   1.000  N
  O23      1.0000 0.72726  0.42580  0.62958  Biso   1.000  O
  O24      1.0000 0.27274  0.57420  0.37042  Biso   1.000  O
  C81      1.0000 0.84524  0.44300  0.73140  Biso   1.000  C
  C82      1.0000 0.15476  0.55700  0.26860  Biso   1.000  C
  C83      1.0000 0.85066  0.33530  0.70960  Biso   1.000  C
  C84      1.0000 0.14934  0.66470  0.29040  Biso   1.000  C
  C85      1.0000 0.91005  0.29440  0.74760  Biso   1.000  C
  C86      1.0000 0.08995  0.70560  0.25240  Biso   1.000  C
  H79      1.0000 0.95490  0.33250  0.79490  Biso   1.000  H
  H80      1.0000 0.04510  0.66750  0.20510  Biso   1.000  H
  N13      1.0000 0.89259  0.19236  0.70559  Biso   1.000  N
  N14      1.0000 0.10741  0.80764  0.29441  Biso   1.000  N
  C87      1.0000 0.93851  0.11650  0.72580  Biso   1.000  C
  C88      1.0000 0.06149  0.88350  0.27420  Biso   1.000  C
  H81      1.0000 0.91700  0.05300  0.66670  Biso   1.000  H
  H82      1.0000 0.08300  0.94700  0.33330  Biso   1.000  H
  H83      1.0000 0.98260  0.14720  0.72280  Biso   1.000  H
  H84      1.0000 0.01740  0.85280  0.27720  Biso   1.000  H
  C89      1.0000 0.95310  0.08620  0.83080  Biso   1.000  C
  C90      1.0000 0.04690  0.91380  0.16920  Biso   1.000  C
  H85      1.0000 0.90890  0.06000  0.83600  Biso   1.000  H
  H86      1.0000 0.09110  0.94000  0.16400  Biso   1.000  H
  H87      1.0000 0.97760  0.14880  0.89020  Biso   1.000  H
  H88      1.0000 0.02240  0.85120  0.10980  Biso   1.000  H
  C91      1.0000 0.99760  0.00000  0.84830  Biso   1.000  C
  C92      1.0000 0.00240  0.00000  0.15170  Biso   1.000  C
  H89      1.0000 0.99710  0.97180  0.91240  Biso   1.000  H
  H90      1.0000 0.00290  0.02820  0.08760  Biso   1.000  H
  H91      1.0000 0.97720  0.94180  0.78330  Biso   1.000  H
  H92      1.0000 0.02280  0.05820  0.21670  Biso   1.000  H
  C93      1.0000 0.06770  0.04100  0.86570  Biso   1.000  C
  C94      1.0000 0.93230  0.95900  0.13430  Biso   1.000  C
  H93      1.0000 0.09420  0.98500  0.87570  Biso   1.000  H
  H94      1.0000 0.90580  0.01500  0.12430  Biso   1.000  H
  H95      1.0000 0.08840  0.09750  0.93110  Biso   1.000  H
  H96      1.0000 0.91160  0.90250  0.06890  Biso   1.000  H
  H97      1.0000 0.06840  0.06850  0.80200  Biso   1.000  H
  H98      1.0000 0.93160  0.93150  0.19800  Biso   1.000  H
  N15      1.0000 0.82382  0.16098  0.64048  Biso   1.000  N
  N16      1.0000 0.17618  0.83902  0.35952  Biso   1.000  N
  C95      1.0000 0.79898  0.24810  0.64350  Biso   1.000  C
  C96      1.0000 0.20102  0.75190  0.35650  Biso   1.000  C
  H99      1.0000 0.75190  0.25110  0.60570  Biso   1.000  H
  H100     1.0000 0.24810  0.74890  0.39430  Biso   1.000  H
  C97      1.0000 0.91860  0.27360  0.48080  Biso   1.000  C
  C98      1.0000 0.08140  0.72640  0.51920  Biso   1.000  C
  H101     1.0000 0.88310  0.24560  0.50510  Biso   1.000  H
  H102     1.0000 0.11690  0.75440  0.49490  Biso   1.000  H
  H103     1.0000 0.96010  0.24520  0.51390  Biso   1.000  H
  H104     1.0000 0.03990  0.75480  0.48610  Biso   1.000  H
  H105     1.0000 0.90130  0.25340  0.40090  Biso   1.000  H
  H106     1.0000 0.09870  0.74660  0.59910  Biso   1.000  H
  C99      1.0000 0.93600  0.39160  0.51540  Biso   1.000  C
  C100     1.0000 0.06400  0.60840  0.48460  Biso   1.000  C
  H107     1.0000 0.89360  0.41930  0.48280  Biso   1.000  H
  H108     1.0000 0.10640  0.58070  0.51720  Biso   1.000  H
  H109     1.0000 0.95200  0.41110  0.59600  Biso   1.000  H
  H110     1.0000 0.04800  0.58890  0.40400  Biso   1.000  H
  C101     1.0000 0.98970  0.44180  0.48300  Biso   1.000  C
  C102     1.0000 0.01030  0.55820  0.51700  Biso   1.000  C
  H111     1.0000 0.97290  0.42260  0.40230  Biso   1.000  H
  H112     1.0000 0.02710  0.57740  0.59770  Biso   1.000  H
  H113     1.0000 0.03130  0.41180  0.51390  Biso   1.000  H
  H114     1.0000 0.96870  0.58820  0.48610  Biso   1.000  H
  C103     1.0000 0.56990  0.73990  0.53530  Biso   1.000  C
  C104     1.0000 0.43010  0.26010  0.46470  Biso   1.000  C
  H115     1.0000 0.55770  0.79650  0.49630  Biso   1.000  H
  H116     1.0000 0.44230  0.20350  0.50370  Biso   1.000  H
  H117     1.0000 0.61490  0.72720  0.53860  Biso   1.000  H
  H118     1.0000 0.38510  0.27280  0.46140  Biso   1.000  H
  H119     1.0000 0.57210  0.75990  0.60970  Biso   1.000  H
  H120     1.0000 0.42790  0.24010  0.39030  Biso   1.000  H
  C105     1.0000 0.51610  0.64180  0.47600  Biso   1.000  C
  C106     1.0000 0.48390  0.35820  0.52400  Biso   1.000  C
  H121     1.0000 0.51350  0.62390  0.40030  Biso   1.000  H
  H122     1.0000 0.48650  0.37610  0.59970  Biso   1.000  H
  H123     1.0000 0.47080  0.65650  0.47130  Biso   1.000  H
  H124     1.0000 0.52920  0.34350  0.52870  Biso   1.000  H
  C107     1.0000 0.52842  0.54760  0.52760  Biso   1.000  C
  C108     1.0000 0.47158  0.45240  0.47240  Biso   1.000  C
  H125     1.0000 0.57190  0.52920  0.52680  Biso   1.000  H
  H126     1.0000 0.42810  0.47080  0.47320  Biso   1.000  H
  H127     1.0000 0.53470  0.56710  0.60500  Biso   1.000  H
  H128     1.0000 0.46530  0.43290  0.39500  Biso   1.000  H
