data_image0
_cell_length_a       11.84
_cell_length_b       12.04
_cell_length_c       13.67
_cell_angle_alpha    104.42
_cell_angle_beta     104.75
_cell_angle_gamma    109.646

_symmetry_space_group_name_H-M    "P 1"
_symmetry_int_tables_number       1

loop_
  _symmetry_equiv_pos_as_xyz
  'x, y, z'

loop_
  _atom_site_label
  _atom_site_occupancy
  _atom_site_fract_x
  _atom_site_fract_y
  _atom_site_fract_z
  _atom_site_thermal_displace_type
  _atom_site_B_iso_or_equiv
  _atom_site_type_symbol
  Cu1      1.0000 0.00000  0.00000  0.50000  Biso   1.000  Cu
  O1       1.0000 0.90500  0.87460  0.35410  Biso   1.000  O
  O2       1.0000 0.09500  0.12540  0.64590  Biso   1.000  O
  C1       1.0000 0.75020  0.69510  0.20820  Biso   1.000  C
  C2       1.0000 0.24980  0.30490  0.79180  Biso   1.000  C
  F1       1.0000 0.77780  0.76810  0.12980  Biso   1.000  F
  F2       1.0000 0.22220  0.23190  0.87020  Biso   1.000  F
  F3       1.0000 0.81090  0.61350  0.19100  Biso   1.000  F
  F4       1.0000 0.18910  0.38650  0.80900  Biso   1.000  F
  F5       1.0000 0.62990  0.62830  0.14070  Biso   1.000  F
  F6       1.0000 0.37010  0.37170  0.85930  Biso   1.000  F
  F7       1.0000 0.74700  0.75200  0.16670  Biso   1.000  F
  F8       1.0000 0.25300  0.24800  0.83330  Biso   1.000  F
  F9       1.0000 0.79910  0.63180  0.18120  Biso   1.000  F
  F10      1.0000 0.20090  0.36820  0.81880  Biso   1.000  F
  F11      1.0000 0.62320  0.60990  0.19930  Biso   1.000  F
  F12      1.0000 0.37680  0.39010  0.80070  Biso   1.000  F
  C3       1.0000 0.80530  0.77560  0.32850  Biso   1.000  C
  C4       1.0000 0.19470  0.22440  0.67150  Biso   1.000  C
  C5       1.0000 0.74410  0.73270  0.39200  Biso   1.000  C
  C6       1.0000 0.25590  0.26730  0.60800  Biso   1.000  C
  H1       1.0000 0.66780  0.65550  0.36010  Biso   1.000  H
  H2       1.0000 0.33220  0.34450  0.63990  Biso   1.000  H
  C7       1.0000 0.79130  0.79970  0.50240  Biso   1.000  C
  C8       1.0000 0.20870  0.20030  0.49760  Biso   1.000  C
  C9       1.0000 0.71390  0.74530  0.56610  Biso   1.000  C
  C10      1.0000 0.28610  0.25470  0.43390  Biso   1.000  C
  F13      1.0000 0.56360  0.66840  0.47290  Biso   1.000  F
  F14      1.0000 0.43640  0.33160  0.52710  Biso   1.000  F
  F15      1.0000 0.73200  0.67280  0.57940  Biso   1.000  F
  F16      1.0000 0.26800  0.32720  0.42060  Biso   1.000  F
  F17      1.0000 0.66480  0.63370  0.55390  Biso   1.000  F
  F18      1.0000 0.33520  0.36630  0.44610  Biso   1.000  F
  F19      1.0000 0.67560  0.82100  0.61510  Biso   1.000  F
  F20      1.0000 0.32440  0.17900  0.38490  Biso   1.000  F
  F21      1.0000 0.69710  0.81760  0.63090  Biso   1.000  F
  F22      1.0000 0.30290  0.18240  0.36910  Biso   1.000  F
  F23      1.0000 0.83720  0.77090  0.69520  Biso   1.000  F
  F24      1.0000 0.16280  0.22910  0.30480  Biso   1.000  F
  O3       1.0000 0.88910  0.90170  0.55800  Biso   1.000  O
  O4       1.0000 0.11090  0.09830  0.44200  Biso   1.000  O
  Cu2      1.0000 0.00000  0.50000  0.00000  Biso   1.000  Cu
  O5       1.0000 0.83970  0.38800  0.02640  Biso   1.000  O
  O6       1.0000 0.16030  0.61200  0.97360  Biso   1.000  O
  C11      1.0000 0.62270  0.28730  0.00500  Biso   1.000  C
  C12      1.0000 0.37730  0.71270  0.99500  Biso   1.000  C
  F25      1.0000 0.56170  0.32500  0.06640  Biso   1.000  F
  F26      1.0000 0.43830  0.67500  0.93360  Biso   1.000  F
  F27      1.0000 0.65920  0.20620  0.06630  Biso   1.000  F
  F28      1.0000 0.34080  0.79380  0.93370  Biso   1.000  F
  F29      1.0000 0.54180  0.21920  0.90310  Biso   1.000  F
  F30      1.0000 0.45820  0.78080  0.09690  Biso   1.000  F
  F31      1.0000 0.55740  0.36060  0.03460  Biso   1.000  F
  F32      1.0000 0.44260  0.63940  0.96540  Biso   1.000  F
  F33      1.0000 0.66740  0.25670  0.06490  Biso   1.000  F
  F34      1.0000 0.33260  0.74330  0.93510  Biso   1.000  F
  F35      1.0000 0.52910  0.18010  0.91890  Biso   1.000  F
  F36      1.0000 0.47090  0.81990  0.08110  Biso   1.000  F
  C13      1.0000 0.73020  0.38150  0.98680  Biso   1.000  C
  C14      1.0000 0.26980  0.61850  0.01320  Biso   1.000  C
  C15      1.0000 0.69380  0.45080  0.92670  Biso   1.000  C
  C16      1.0000 0.30620  0.54920  0.07330  Biso   1.000  C
  H3       1.0000 0.60530  0.43460  0.89950  Biso   1.000  H
  H4       1.0000 0.39470  0.56540  0.10050  Biso   1.000  H
  C17      1.0000 0.77960  0.54000  0.90570  Biso   1.000  C
  C18      1.0000 0.22040  0.46000  0.09430  Biso   1.000  C
  C19      1.0000 0.72410  0.60400  0.83820  Biso   1.000  C
  C20      1.0000 0.27590  0.39600  0.16180  Biso   1.000  C
  F37      1.0000 0.77040  0.69900  0.86720  Biso   1.000  F
  F38      1.0000 0.22960  0.30100  0.13280  Biso   1.000  F
  F39      1.0000 0.64150  0.62300  0.81770  Biso   1.000  F
  F40      1.0000 0.35850  0.37700  0.18230  Biso   1.000  F
  F41      1.0000 0.82410  0.75980  0.90450  Biso   1.000  F
  F42      1.0000 0.17590  0.24020  0.09550  Biso   1.000  F
  F43      1.0000 0.79260  0.63370  0.76170  Biso   1.000  F
  F44      1.0000 0.20740  0.36630  0.23830  Biso   1.000  F
  F45      1.0000 0.69600  0.53490  0.73450  Biso   1.000  F
  F46      1.0000 0.30400  0.46510  0.26550  Biso   1.000  F
  F47      1.0000 0.58470  0.56060  0.82570  Biso   1.000  F
  F48      1.0000 0.41530  0.43940  0.17430  Biso   1.000  F
  O7       1.0000 0.89920  0.57550  0.93070  Biso   1.000  O
  O8       1.0000 0.10080  0.42450  0.06930  Biso   1.000  O
  O9       1.0000 0.82820  0.06960  0.45660  Biso   1.000  O
  O10      1.0000 0.17180  0.93040  0.54340  Biso   1.000  O
  N1       1.0000 0.81980  0.17310  0.45290  Biso   1.000  N
  N2       1.0000 0.18020  0.82690  0.54710  Biso   1.000  N
  C21      1.0000 0.79390  0.19760  0.34890  Biso   1.000  C
  C22      1.0000 0.20610  0.80240  0.65110  Biso   1.000  C
  C23      1.0000 0.68050  0.07970  0.25860  Biso   1.000  C
  C24      1.0000 0.31950  0.92030  0.74140  Biso   1.000  C
  H5       1.0000 0.70630  0.01000  0.24310  Biso   1.000  H
  H6       1.0000 0.29370  0.99000  0.75690  Biso   1.000  H
  H7       1.0000 0.65510  0.09850  0.19280  Biso   1.000  H
  H8       1.0000 0.34490  0.90150  0.80720  Biso   1.000  H
  H9       1.0000 0.60730  0.05510  0.28230  Biso   1.000  H
  H10      1.0000 0.39270  0.94490  0.71770  Biso   1.000  H
  C25      1.0000 0.91690  0.22360  0.32430  Biso   1.000  C
  C26      1.0000 0.08310  0.77640  0.67570  Biso   1.000  C
  H11      1.0000 0.92830  0.14520  0.30410  Biso   1.000  H
  H12      1.0000 0.07170  0.85480  0.69590  Biso   1.000  H
  H13      1.0000 0.99120  0.28800  0.38900  Biso   1.000  H
  H14      1.0000 0.00880  0.71200  0.61100  Biso   1.000  H
  H15      1.0000 0.91020  0.25440  0.26400  Biso   1.000  H
  H16      1.0000 0.08980  0.74560  0.73600  Biso   1.000  H
  C27      1.0000 0.76610  0.31630  0.38210  Biso   1.000  C
  C28      1.0000 0.23390  0.68370  0.61790  Biso   1.000  C
  C29      1.0000 0.62380  0.28630  0.35410  Biso   1.000  C
  C30      1.0000 0.37620  0.71370  0.64590  Biso   1.000  C
  H17      1.0000 0.61420  0.36530  0.37730  Biso   1.000  H
  H18      1.0000 0.38580  0.63470  0.62270  Biso   1.000  H
  H19      1.0000 0.58790  0.23200  0.39150  Biso   1.000  H
  H20      1.0000 0.41210  0.76800  0.60850  Biso   1.000  H
  H21      1.0000 0.57760  0.24220  0.27530  Biso   1.000  H
  H22      1.0000 0.42240  0.75780  0.72470  Biso   1.000  H
  C31      1.0000 0.83020  0.42110  0.34530  Biso   1.000  C
  C32      1.0000 0.16980  0.57890  0.65470  Biso   1.000  C
  H23      1.0000 0.80740  0.49140  0.36980  Biso   1.000  H
  H24      1.0000 0.19260  0.50860  0.63020  Biso   1.000  H
  H25      1.0000 0.80070  0.38860  0.26570  Biso   1.000  H
  H26      1.0000 0.19930  0.61140  0.73430  Biso   1.000  H
  H27      1.0000 0.92410  0.45120  0.37650  Biso   1.000  H
  H28      1.0000 0.07590  0.54880  0.62350  Biso   1.000  H
  N3       1.0000 0.82420  0.36120  0.50320  Biso   1.000  N
  N4       1.0000 0.17580  0.63880  0.49680  Biso   1.000  N
  O11      1.0000 0.83920  0.46890  0.56390  Biso   1.000  O
  O12      1.0000 0.16080  0.53110  0.43610  Biso   1.000  O
  C33      1.0000 0.84150  0.27040  0.53740  Biso   1.000  C
  C34      1.0000 0.15850  0.72960  0.46260  Biso   1.000  C
  C35      1.0000 0.87530  0.27780  0.64860  Biso   1.000  C
  C36      1.0000 0.12470  0.72220  0.35140  Biso   1.000  C
  C37      1.0000 0.90910  0.38120  0.74250  Biso   1.000  C
  C38      1.0000 0.09090  0.61880  0.25750  Biso   1.000  C
  H29      1.0000 0.91650  0.46240  0.74300  Biso   1.000  H
  H30      1.0000 0.08350  0.53760  0.25700  Biso   1.000  H
  N5       1.0000 0.92950  0.35170  0.83050  Biso   1.000  N
  N6       1.0000 0.07050  0.64830  0.16950  Biso   1.000  N
  N7       1.0000 0.90670  0.22680  0.79220  Biso   1.000  N
  N8       1.0000 0.09330  0.77320  0.20780  Biso   1.000  N
  C39      1.0000 0.91440  0.15780  0.86630  Biso   1.000  C
  C40      1.0000 0.08560  0.84220  0.13370  Biso   1.000  C
  H31      1.0000 0.97140  0.21950  0.94080  Biso   1.000  H
  H32      1.0000 0.02860  0.78050  0.05920  Biso   1.000  H
  H33      1.0000 0.95480  0.10070  0.84470  Biso   1.000  H
  H34      1.0000 0.04520  0.89930  0.15530  Biso   1.000  H
  C41      1.0000 0.78870  0.08200  0.86840  Biso   1.000  C
  C42      1.0000 0.21130  0.91800  0.13160  Biso   1.000  C
  H35      1.0000 0.73500  0.01300  0.79640  Biso   1.000  H
  H36      1.0000 0.26500  0.98700  0.20360  Biso   1.000  H
  H37      1.0000 0.74340  0.13650  0.88200  Biso   1.000  H
  H38      1.0000 0.25660  0.86350  0.11800  Biso   1.000  H
  C43      1.0000 0.80350  0.02370  0.95700  Biso   1.000  C
  C44      1.0000 0.19650  0.97630  0.04300  Biso   1.000  C
  H39      1.0000 0.85570  0.97560  0.94730  Biso   1.000  H
  H40      1.0000 0.14430  0.02440  0.05270  Biso   1.000  H
  H41      1.0000 0.85060  0.09290  0.02940  Biso   1.000  H
  H42      1.0000 0.14940  0.90710  0.97060  Biso   1.000  H
  C45      1.0000 0.67620  0.93740  0.95330  Biso   1.000  C
  C46      1.0000 0.32380  0.06260  0.04670  Biso   1.000  C
  H43      1.0000 0.69030  0.90280  0.01070  Biso   1.000  H
  H44      1.0000 0.30970  0.09720  0.98930  Biso   1.000  H
  H45      1.0000 0.62990  0.86780  0.88220  Biso   1.000  H
  H46      1.0000 0.37010  0.13220  0.11780  Biso   1.000  H
  H47      1.0000 0.62480  0.98500  0.96440  Biso   1.000  H
  H48      1.0000 0.37520  0.01500  0.03560  Biso   1.000  H
  C47      1.0000 0.87430  0.18090  0.68480  Biso   1.000  C
  C48      1.0000 0.12570  0.81910  0.31520  Biso   1.000  C
  H49      1.0000 0.85430  0.09680  0.64130  Biso   1.000  H
  H50      1.0000 0.14570  0.90320  0.35870  Biso   1.000  H
  O13      1.0000 0.50000  0.00000  0.50000  Biso   1.000  O
  C49      1.0000 0.53270  0.11060  0.51040  Biso   1.000  C
  C50      1.0000 0.46730  0.88940  0.48960  Biso   1.000  C
  H51      1.0000 0.46750  0.11500  0.45380  Biso   1.000  H
  H52      1.0000 0.53250  0.88500  0.54620  Biso   1.000  H
  H53      1.0000 0.61230  0.13800  0.49710  Biso   1.000  H
  H54      1.0000 0.38770  0.86200  0.50290  Biso   1.000  H
  C51      1.0000 0.55040  0.20200  0.62720  Biso   1.000  C
  C52      1.0000 0.44960  0.79800  0.37280  Biso   1.000  C
  H55      1.0000 0.57630  0.28710  0.62750  Biso   1.000  H
  H56      1.0000 0.42370  0.71290  0.37250  Biso   1.000  H
  H57      1.0000 0.47060  0.17580  0.64030  Biso   1.000  H
  H58      1.0000 0.52940  0.82420  0.35970  Biso   1.000  H
  H59      1.0000 0.61690  0.19900  0.68410  Biso   1.000  H
  H60      1.0000 0.38310  0.80100  0.31590  Biso   1.000  H
  C53      1.0000 0.47700  0.90350  0.39490  Biso   1.000  C
  C54      1.0000 0.52300  0.09650  0.60510  Biso   1.000  C
  H61      1.0000 0.54670  0.94010  0.37150  Biso   1.000  H
  H62      1.0000 0.45330  0.05990  0.62850  Biso   1.000  H
  H63      1.0000 0.39750  0.89050  0.34130  Biso   1.000  H
  H64      1.0000 0.60250  0.10950  0.65870  Biso   1.000  H
  C55      1.0000 0.47000  0.78120  0.39780  Biso   1.000  C
  C56      1.0000 0.53000  0.21880  0.60220  Biso   1.000  C
  H65      1.0000 0.45640  0.72570  0.32640  Biso   1.000  H
  H66      1.0000 0.54360  0.27430  0.67360  Biso   1.000  H
  H67      1.0000 0.55020  0.79340  0.45020  Biso   1.000  H
  H68      1.0000 0.44980  0.20660  0.54980  Biso   1.000  H
  H69      1.0000 0.39960  0.74340  0.41960  Biso   1.000  H
  H70      1.0000 0.60040  0.25660  0.58040  Biso   1.000  H
