data_image0
_cell_length_a       9.564
_cell_length_b       13.569
_cell_length_c       13.95
_cell_angle_alpha    107.2
_cell_angle_beta     96.28
_cell_angle_gamma    101.5

_symmetry_space_group_name_H-M    "P 1"
_symmetry_int_tables_number       1

loop_
  _symmetry_equiv_pos_as_xyz
  'x, y, z'

loop_
  _atom_site_label
  _atom_site_occupancy
  _atom_site_fract_x
  _atom_site_fract_y
  _atom_site_fract_z
  _atom_site_thermal_displace_type
  _atom_site_B_iso_or_equiv
  _atom_site_type_symbol
  Cu1      1.0000 0.00000  0.50000  0.50000  Biso   1.000  Cu
  O1       1.0000 0.89790  0.60200  0.57480  Biso   1.000  O
  O2       1.0000 0.10210  0.39800  0.42520  Biso   1.000  O
  C1       1.0000 0.71920  0.67360  0.65050  Biso   1.000  C
  C2       1.0000 0.28080  0.32640  0.34950  Biso   1.000  C
  F1       1.0000 0.70900  0.72900  0.57900  Biso   1.000  F
  F2       1.0000 0.29100  0.27100  0.42100  Biso   1.000  F
  F3       1.0000 0.58400  0.64800  0.65700  Biso   1.000  F
  F4       1.0000 0.41600  0.35200  0.34300  Biso   1.000  F
  F5       1.0000 0.79600  0.72900  0.73300  Biso   1.000  F
  F6       1.0000 0.20400  0.27100  0.26700  Biso   1.000  F
  F7       1.0000 0.76700  0.75230  0.63800  Biso   1.000  F
  F8       1.0000 0.23300  0.24770  0.36200  Biso   1.000  F
  F9       1.0000 0.58000  0.64900  0.64000  Biso   1.000  F
  F10      1.0000 0.42000  0.35100  0.36000  Biso   1.000  F
  F11      1.0000 0.74300  0.69500  0.75200  Biso   1.000  F
  F12      1.0000 0.25700  0.30500  0.24800  Biso   1.000  F
  C3       1.0000 0.77940  0.57670  0.60150  Biso   1.000  C
  C4       1.0000 0.22060  0.42330  0.39850  Biso   1.000  C
  C5       1.0000 0.70300  0.47620  0.59360  Biso   1.000  C
  C6       1.0000 0.29700  0.52380  0.40640  Biso   1.000  C
  H1       1.0000 0.61480  0.46900  0.61630  Biso   1.000  H
  H2       1.0000 0.38520  0.53100  0.38370  Biso   1.000  H
  C7       1.0000 0.75130  0.38540  0.55370  Biso   1.000  C
  C8       1.0000 0.24870  0.61460  0.44630  Biso   1.000  C
  C9       1.0000 0.65710  0.27620  0.54870  Biso   1.000  C
  C10      1.0000 0.34290  0.72380  0.45130  Biso   1.000  C
  F13      1.0000 0.60850  0.21780  0.45070  Biso   1.000  F
  F14      1.0000 0.39150  0.78220  0.54930  Biso   1.000  F
  F15      1.0000 0.75000  0.21770  0.58250  Biso   1.000  F
  F16      1.0000 0.25000  0.78230  0.41750  Biso   1.000  F
  F17      1.0000 0.57900  0.28200  0.62100  Biso   1.000  F
  F18      1.0000 0.42100  0.71800  0.37900  Biso   1.000  F
  F19      1.0000 0.71000  0.23400  0.58400  Biso   1.000  F
  F20      1.0000 0.29000  0.76600  0.41600  Biso   1.000  F
  F21      1.0000 0.52400  0.28700  0.56200  Biso   1.000  F
  F22      1.0000 0.47600  0.71300  0.43800  Biso   1.000  F
  O3       1.0000 0.86560  0.38010  0.51970  Biso   1.000  O
  O4       1.0000 0.13440  0.61990  0.48030  Biso   1.000  O
  Cu2      1.0000 0.00000  0.00000  0.00000  Biso   1.000  Cu
  O5       1.0000 0.82280  0.89700  0.99760  Biso   1.000  O
  O6       1.0000 0.17720  0.10300  0.00240  Biso   1.000  O
  C11      1.0000 0.57630  0.81020  0.96490  Biso   1.000  C
  C12      1.0000 0.42370  0.18980  0.03510  Biso   1.000  C
  F23      1.0000 0.56400  0.83700  0.05500  Biso   1.000  F
  F24      1.0000 0.43600  0.16300  0.94500  Biso   1.000  F
  F25      1.0000 0.52700  0.72700  0.89700  Biso   1.000  F
  F26      1.0000 0.47300  0.27300  0.10300  Biso   1.000  F
  F27      1.0000 0.62160  0.71440  0.94700  Biso   1.000  F
  F28      1.0000 0.37840  0.28560  0.05300  Biso   1.000  F
  F29      1.0000 0.46600  0.85730  0.98900  Biso   1.000  F
  F30      1.0000 0.53400  0.14270  0.01100  Biso   1.000  F
  F31      1.0000 0.46800  0.77500  0.89300  Biso   1.000  F
  F32      1.0000 0.53200  0.22500  0.10700  Biso   1.000  F
  F33      1.0000 0.60900  0.78600  0.04700  Biso   1.000  F
  F34      1.0000 0.39100  0.21400  0.95300  Biso   1.000  F
  C13      1.0000 0.70170  0.88630  0.94560  Biso   1.000  C
  C14      1.0000 0.29830  0.11370  0.05440  Biso   1.000  C
  C15      1.0000 0.66920  0.93650  0.87620  Biso   1.000  C
  C16      1.0000 0.33080  0.06350  0.12380  Biso   1.000  C
  H3       1.0000 0.57350  0.92200  0.84400  Biso   1.000  H
  H4       1.0000 0.42650  0.07800  0.15600  Biso   1.000  H
  C17      1.0000 0.77410  0.00740  0.85320  Biso   1.000  C
  C18      1.0000 0.22590  0.99260  0.14680  Biso   1.000  C
  C19      1.0000 0.72840  0.05340  0.76920  Biso   1.000  C
  C20      1.0000 0.27160  0.94660  0.23080  Biso   1.000  C
  F35      1.0000 0.62800  0.99150  0.69680  Biso   1.000  F
  F36      1.0000 0.37200  0.00850  0.30320  Biso   1.000  F
  F37      1.0000 0.83100  0.09240  0.72800  Biso   1.000  F
  F38      1.0000 0.16900  0.90760  0.27200  Biso   1.000  F
  F39      1.0000 0.72610  0.15210  0.81360  Biso   1.000  F
  F40      1.0000 0.27390  0.84790  0.18640  Biso   1.000  F
  F41      1.0000 0.79700  0.02800  0.69980  Biso   1.000  F
  F42      1.0000 0.20300  0.97200  0.30020  Biso   1.000  F
  F43      1.0000 0.58810  0.03900  0.75100  Biso   1.000  F
  F44      1.0000 0.41190  0.96100  0.24900  Biso   1.000  F
  O7       1.0000 0.90620  0.03910  0.89050  Biso   1.000  O
  O8       1.0000 0.09380  0.96090  0.10950  Biso   1.000  O
  O9       1.0000 0.18430  0.53860  0.63980  Biso   1.000  O
  O10      1.0000 0.81570  0.46140  0.36020  Biso   1.000  O
  N1       1.0000 0.17430  0.52420  0.72610  Biso   1.000  N
  N2       1.0000 0.82570  0.47580  0.27390  Biso   1.000  N
  C21      1.0000 0.20760  0.42900  0.75000  Biso   1.000  C
  C22      1.0000 0.79240  0.57100  0.25000  Biso   1.000  C
  C23      1.0000 0.15190  0.33180  0.65620  Biso   1.000  C
  C24      1.0000 0.84810  0.66820  0.34380  Biso   1.000  C
  H5       1.0000 0.04770  0.31310  0.64380  Biso   1.000  H
  H6       1.0000 0.95230  0.68690  0.35620  Biso   1.000  H
  H7       1.0000 0.18710  0.27360  0.66660  Biso   1.000  H
  H8       1.0000 0.81290  0.72640  0.33340  Biso   1.000  H
  H9       1.0000 0.18540  0.34690  0.59840  Biso   1.000  H
  H10      1.0000 0.81460  0.65310  0.40160  Biso   1.000  H
  C25      1.0000 0.37210  0.45030  0.76050  Biso   1.000  C
  C26      1.0000 0.62790  0.54970  0.23950  Biso   1.000  C
  H11      1.0000 0.41640  0.51110  0.81970  Biso   1.000  H
  H12      1.0000 0.58360  0.48890  0.18030  Biso   1.000  H
  H13      1.0000 0.40060  0.46410  0.70090  Biso   1.000  H
  H14      1.0000 0.59940  0.53590  0.29910  Biso   1.000  H
  H15      1.0000 0.40300  0.38940  0.76760  Biso   1.000  H
  H16      1.0000 0.59700  0.61060  0.23240  Biso   1.000  H
  C27      1.0000 0.15580  0.43880  0.84460  Biso   1.000  C
  C28      1.0000 0.84420  0.56120  0.15540  Biso   1.000  C
  C29      1.0000 0.20110  0.40040  0.92430  Biso   1.000  C
  C30      1.0000 0.79890  0.59960  0.07570  Biso   1.000  C
  H17      1.0000 0.30260  0.43140  0.95050  Biso   1.000  H
  H18      1.0000 0.69740  0.56860  0.04950  Biso   1.000  H
  H19      1.0000 0.18440  0.32440  0.89820  Biso   1.000  H
  H20      1.0000 0.81560  0.67560  0.10180  Biso   1.000  H
  H21      1.0000 0.14690  0.41950  0.97810  Biso   1.000  H
  H22      1.0000 0.85310  0.58050  0.02190  Biso   1.000  H
  C31      1.0000 0.98060  0.37450  0.80670  Biso   1.000  C
  C32      1.0000 0.01940  0.62550  0.19330  Biso   1.000  C
  H23      1.0000 0.97240  0.29950  0.77900  Biso   1.000  H
  H24      1.0000 0.02760  0.70050  0.22100  Biso   1.000  H
  H25      1.0000 0.93710  0.39880  0.75550  Biso   1.000  H
  H26      1.0000 0.06290  0.60120  0.24450  Biso   1.000  H
  H27      1.0000 0.93160  0.38840  0.86400  Biso   1.000  H
  H28      1.0000 0.06840  0.61160  0.13600  Biso   1.000  H
  N3       1.0000 0.15420  0.55440  0.88570  Biso   1.000  N
  N4       1.0000 0.84580  0.44560  0.11430  Biso   1.000  N
  O11      1.0000 0.14090  0.60010  0.97550  Biso   1.000  O
  O12      1.0000 0.85910  0.39990  0.02450  Biso   1.000  O
  C33      1.0000 0.15390  0.59590  0.81080  Biso   1.000  C
  C34      1.0000 0.84610  0.40410  0.18920  Biso   1.000  C
  C35      1.0000 0.13360  0.69990  0.81920  Biso   1.000  C
  C36      1.0000 0.86640  0.30010  0.18080  Biso   1.000  C
  C37      1.0000 0.09260  0.77140  0.90150  Biso   1.000  C
  C38      1.0000 0.90740  0.22860  0.09850  Biso   1.000  C
  H29      1.0000 0.07260  0.75720  0.96050  Biso   1.000  H
  H30      1.0000 0.92740  0.24280  0.03950  Biso   1.000  H
  N5       1.0000 0.08640  0.86060  0.88380  Biso   1.000  N
  N6       1.0000 0.91360  0.13940  0.11620  Biso   1.000  N
  N7       1.0000 0.12060  0.84610  0.78970  Biso   1.000  N
  N8       1.0000 0.87940  0.15390  0.21030  Biso   1.000  N
  C39      1.0000 0.12390  0.93110  0.74390  Biso   1.000  C
  C40      1.0000 0.87610  0.06890  0.25610  Biso   1.000  C
  H31      1.0000 0.02750  0.91690  0.70480  Biso   1.000  H
  H32      1.0000 0.97250  0.08310  0.29520  Biso   1.000  H
  H33      1.0000 0.13590  0.99630  0.80020  Biso   1.000  H
  H34      1.0000 0.86410  0.00370  0.19980  Biso   1.000  H
  C41      1.0000 0.20500  0.95130  0.69150  Biso   1.000  C
  C42      1.0000 0.79500  0.04870  0.30850  Biso   1.000  C
  H35      1.0000 0.19250  0.88710  0.63400  Biso   1.000  H
  H36      1.0000 0.80750  0.11290  0.36600  Biso   1.000  H
  H37      1.0000 0.30210  0.96550  0.72970  Biso   1.000  H
  H38      1.0000 0.69790  0.03450  0.27030  Biso   1.000  H
  C43      1.0000 0.20300  0.04280  0.64750  Biso   1.000  C
  C44      1.0000 0.79700  0.95720  0.35250  Biso   1.000  C
  H39      1.0000 0.10210  0.03820  0.62250  Biso   1.000  H
  H40      1.0000 0.89790  0.96180  0.37750  Biso   1.000  H
  H41      1.0000 0.23800  0.10900  0.70360  Biso   1.000  H
  H42      1.0000 0.76200  0.89100  0.29640  Biso   1.000  H
  C45      1.0000 0.27300  0.04960  0.57710  Biso   1.000  C
  C46      1.0000 0.72700  0.95040  0.42290  Biso   1.000  C
  H43      1.0000 0.26340  0.11180  0.56000  Biso   1.000  H
  H44      1.0000 0.73660  0.88820  0.44000  Biso   1.000  H
  H45      1.0000 0.23450  0.98760  0.51820  Biso   1.000  H
  H46      1.0000 0.76550  0.01240  0.48180  Biso   1.000  H
  H47      1.0000 0.37300  0.05480  0.59980  Biso   1.000  H
  H48      1.0000 0.62700  0.94520  0.40020  Biso   1.000  H
  C47      1.0000 0.15180  0.75170  0.75030  Biso   1.000  C
  C48      1.0000 0.84820  0.24830  0.24970  Biso   1.000  C
  H49      1.0000 0.18030  0.72670  0.68770  Biso   1.000  H
  H50      1.0000 0.81970  0.27330  0.31230  Biso   1.000  H
