data_image0
_cell_length_a       21.2235
_cell_length_b       13.1298
_cell_length_c       13.4138
_cell_angle_alpha    98.306
_cell_angle_beta     111.555
_cell_angle_gamma    97.47

_symmetry_space_group_name_H-M    "P 1"
_symmetry_int_tables_number       1

loop_
  _symmetry_equiv_pos_as_xyz
  'x, y, z'

loop_
  _atom_site_label
  _atom_site_occupancy
  _atom_site_fract_x
  _atom_site_fract_y
  _atom_site_fract_z
  _atom_site_thermal_displace_type
  _atom_site_B_iso_or_equiv
  _atom_site_type_symbol
  Cu1      1.0000 0.50000  0.50000  0.00000  Biso   1.000  Cu
  O1       1.0000 0.43181  0.37069  0.96420  Biso   1.000  O
  O2       1.0000 0.56819  0.62931  0.03580  Biso   1.000  O
  C1       1.0000 0.33834  0.25100  0.95710  Biso   1.000  C
  C2       1.0000 0.66166  0.74900  0.04290  Biso   1.000  C
  F1       1.0000 0.37782  0.19117  0.01050  Biso   1.000  F
  F2       1.0000 0.62218  0.80883  0.98950  Biso   1.000  F
  F3       1.0000 0.31599  0.21105  0.85288  Biso   1.000  F
  F4       1.0000 0.68401  0.78895  0.14712  Biso   1.000  F
  F5       1.0000 0.28443  0.24214  0.98399  Biso   1.000  F
  F6       1.0000 0.71557  0.75786  0.01601  Biso   1.000  F
  C3       1.0000 0.37873  0.36360  0.98540  Biso   1.000  C
  C4       1.0000 0.62127  0.63640  0.01460  Biso   1.000  C
  C5       1.0000 0.35457  0.44340  0.03080  Biso   1.000  C
  C6       1.0000 0.64543  0.55660  0.96920  Biso   1.000  C
  H1       1.0000 0.31420  0.42680  0.04230  Biso   1.000  H
  H2       1.0000 0.68580  0.57320  0.95770  Biso   1.000  H
  C7       1.0000 0.38870  0.54690  0.05960  Biso   1.000  C
  C8       1.0000 0.61130  0.45310  0.94040  Biso   1.000  C
  C9       1.0000 0.36030  0.62890  0.11440  Biso   1.000  C
  C10      1.0000 0.63970  0.37110  0.88560  Biso   1.000  C
  F7       1.0000 0.35778  0.71326  0.07102  Biso   1.000  F
  F8       1.0000 0.64222  0.28674  0.92898  Biso   1.000  F
  F9       1.0000 0.29712  0.59522  0.10680  Biso   1.000  F
  F10      1.0000 0.70288  0.40478  0.89320  Biso   1.000  F
  F11      1.0000 0.40094  0.66110  0.21885  Biso   1.000  F
  F12      1.0000 0.59906  0.33890  0.78115  Biso   1.000  F
  O3       1.0000 0.44238  0.58455  0.04804  Biso   1.000  O
  O4       1.0000 0.55762  0.41545  0.95196  Biso   1.000  O
  Cu2      1.0000 0.75494  0.99294  0.52203  Biso   1.000  Cu
  Cu3      1.0000 0.24506  0.00706  0.47797  Biso   1.000  Cu
  O5       1.0000 0.67597  0.05467  0.51770  Biso   1.000  O
  O6       1.0000 0.32403  0.94533  0.48230  Biso   1.000  O
  C11      1.0000 0.59582  0.12630  0.56960  Biso   1.000  C
  C12      1.0000 0.40418  0.87370  0.43040  Biso   1.000  C
  F13      1.0000 0.54632  0.08860  0.47017  Biso   1.000  F
  F14      1.0000 0.45368  0.91140  0.52983  Biso   1.000  F
  F15      1.0000 0.56549  0.12693  0.64052  Biso   1.000  F
  F16      1.0000 0.43451  0.87307  0.35948  Biso   1.000  F
  F17      1.0000 0.62039  0.22510  0.57339  Biso   1.000  F
  F18      1.0000 0.37961  0.77490  0.42661  Biso   1.000  F
  C13      1.0000 0.65292  0.06306  0.59190  Biso   1.000  C
  C14      1.0000 0.34708  0.93694  0.40810  Biso   1.000  C
  C15      1.0000 0.67483  0.02570  0.68770  Biso   1.000  C
  C16      1.0000 0.32517  0.97430  0.31230  Biso   1.000  C
  H3       1.0000 0.65460  0.04040  0.73760  Biso   1.000  H
  H4       1.0000 0.34540  0.95960  0.26240  Biso   1.000  H
  C17      1.0000 0.72646  0.96652  0.71140  Biso   1.000  C
  C18      1.0000 0.27354  0.03348  0.28860  Biso   1.000  C
  C19      1.0000 0.74379  0.92530  0.81750  Biso   1.000  C
  C20      1.0000 0.25621  0.07470  0.18250  Biso   1.000  C
  F19      1.0000 0.73528  0.98798  0.89548  Biso   1.000  F
  F20      1.0000 0.26472  0.01202  0.10452  Biso   1.000  F
  F21      1.0000 0.70311  0.83226  0.79816  Biso   1.000  F
  F22      1.0000 0.29689  0.16774  0.20184  Biso   1.000  F
  F23      1.0000 0.80747  0.90980  0.85599  Biso   1.000  F
  F24      1.0000 0.19253  0.09020  0.14401  Biso   1.000  F
  O7       1.0000 0.75988  0.94004  0.65562  Biso   1.000  O
  O8       1.0000 0.24012  0.05996  0.34438  Biso   1.000  O
  O9       1.0000 0.74709  0.04566  0.38808  Biso   1.000  O
  O10      1.0000 0.25291  0.95434  0.61192  Biso   1.000  O
  C21      1.0000 0.75416  0.05330  0.21920  Biso   1.000  C
  C22      1.0000 0.24584  0.94670  0.78080  Biso   1.000  C
  F25      1.0000 0.68741  0.05346  0.18023  Biso   1.000  F
  F26      1.0000 0.31259  0.94654  0.81977  Biso   1.000  F
  F27      1.0000 0.78675  0.15123  0.23359  Biso   1.000  F
  F28      1.0000 0.21325  0.84877  0.76641  Biso   1.000  F
  F29      1.0000 0.76669  0.99448  0.14259  Biso   1.000  F
  F30      1.0000 0.23331  0.00552  0.85741  Biso   1.000  F
  C23      1.0000 0.77756  0.01635  0.32790  Biso   1.000  C
  C24      1.0000 0.22244  0.98365  0.67210  Biso   1.000  C
  C25      1.0000 0.82939  0.95800  0.35000  Biso   1.000  C
  C26      1.0000 0.17061  0.04200  0.65000  Biso   1.000  C
  H5       1.0000 0.84800  0.94230  0.29810  Biso   1.000  H
  H6       1.0000 0.15200  0.05770  0.70190  Biso   1.000  H
  C27      1.0000 0.85419  0.92228  0.44650  Biso   1.000  C
  C28      1.0000 0.14581  0.07772  0.55350  Biso   1.000  C
  C29      1.0000 0.91314  0.86250  0.46660  Biso   1.000  C
  C30      1.0000 0.08686  0.13750  0.53340  Biso   1.000  C
  F31      1.0000 0.89114  0.76259  0.46074  Biso   1.000  F
  F32      1.0000 0.10886  0.23741  0.53926  Biso   1.000  F
  F33      1.0000 0.94218  0.86658  0.39478  Biso   1.000  F
  F34      1.0000 0.05782  0.13342  0.60522  Biso   1.000  F
  F35      1.0000 0.96224  0.89938  0.56460  Biso   1.000  F
  F36      1.0000 0.03776  0.10062  0.43540  Biso   1.000  F
  O11      1.0000 0.83367  0.93116  0.52396  Biso   1.000  O
  O12      1.0000 0.16633  0.06884  0.47604  Biso   1.000  O
  Cu4      1.0000 0.00000  0.50000  0.00000  Biso   1.000  Cu
  O13      1.0000 0.07339  0.62795  0.02751  Biso   1.000  O
  O14      1.0000 0.92661  0.37205  0.97249  Biso   1.000  O
  C31      1.0000 0.15001  0.75320  0.00090  Biso   1.000  C
  C32      1.0000 0.84999  0.24680  0.99910  Biso   1.000  C
  F37      1.0000 0.19926  0.76659  0.96324  Biso   1.000  F
  F38      1.0000 0.80074  0.23341  0.03676  Biso   1.000  F
  F39      1.0000 0.17841  0.79761  0.10655  Biso   1.000  F
  F40      1.0000 0.82159  0.20239  0.89345  Biso   1.000  F
  F41      1.0000 0.10406  0.80849  0.95490  Biso   1.000  F
  F42      1.0000 0.89594  0.19151  0.04510  Biso   1.000  F
  C33      1.0000 0.11566  0.63930  0.98270  Biso   1.000  C
  C34      1.0000 0.88434  0.36070  0.01730  Biso   1.000  C
  C35      1.0000 0.13266  0.56410  0.91990  Biso   1.000  C
  C36      1.0000 0.86734  0.43590  0.08010  Biso   1.000  C
  H7       1.0000 0.16370  0.58550  0.88940  Biso   1.000  H
  H8       1.0000 0.83630  0.41450  0.11060  Biso   1.000  H
  C37      1.0000 0.10533  0.45690  0.89990  Biso   1.000  C
  C38      1.0000 0.89467  0.54310  0.10010  Biso   1.000  C
  C39      1.0000 0.12595  0.38190  0.82430  Biso   1.000  C
  C40      1.0000 0.87405  0.61810  0.17570  Biso   1.000  C
  F43      1.0000 0.13080  0.29430  0.85660  Biso   1.000  F
  F44      1.0000 0.86920  0.70570  0.14340  Biso   1.000  F
  F45      1.0000 0.18820  0.41570  0.83390  Biso   1.000  F
  F46      1.0000 0.81180  0.58430  0.16610  Biso   1.000  F
  F47      1.0000 0.08340  0.36520  0.72660  Biso   1.000  F
  F48      1.0000 0.91660  0.63480  0.27340  Biso   1.000  F
  F49      1.0000 0.16090  0.42480  0.77290  Biso   1.000  F
  F50      1.0000 0.83910  0.57520  0.22710  Biso   1.000  F
  F51      1.0000 0.15960  0.31510  0.87400  Biso   1.000  F
  F52      1.0000 0.84040  0.68490  0.12600  Biso   1.000  F
  F53      1.0000 0.07230  0.32100  0.74830  Biso   1.000  F
  F54      1.0000 0.92770  0.67900  0.25170  Biso   1.000  F
  O15      1.0000 0.06517  0.41296  0.93562  Biso   1.000  O
  O16      1.0000 0.93483  0.58704  0.06438  Biso   1.000  O
  O17      1.0000 0.53694  0.48098  0.18227  Biso   1.000  O
  O18      1.0000 0.46306  0.51902  0.81773  Biso   1.000  O
  N1       1.0000 0.59796  0.46618  0.23875  Biso   1.000  N
  N2       1.0000 0.40204  0.53382  0.76125  Biso   1.000  N
  C41      1.0000 0.61145  0.35900  0.25510  Biso   1.000  C
  C42      1.0000 0.38855  0.64100  0.74490  Biso   1.000  C
  C43      1.0000 0.58281  0.33310  0.34000  Biso   1.000  C
  C44      1.0000 0.41719  0.66690  0.66000  Biso   1.000  C
  H9       1.0000 0.53320  0.32000  0.30740  Biso   1.000  H
  H10      1.0000 0.46680  0.68000  0.69260  Biso   1.000  H
  H11      1.0000 0.59950  0.39130  0.40140  Biso   1.000  H
  H12      1.0000 0.40050  0.60870  0.59860  Biso   1.000  H
  H13      1.0000 0.59780  0.27180  0.36430  Biso   1.000  H
  H14      1.0000 0.40220  0.72820  0.63570  Biso   1.000  H
  C45      1.0000 0.57527  0.27870  0.14890  Biso   1.000  C
  C46      1.0000 0.42473  0.72130  0.85110  Biso   1.000  C
  H15      1.0000 0.52620  0.26980  0.12750  Biso   1.000  H
  H16      1.0000 0.47380  0.73020  0.87250  Biso   1.000  H
  H17      1.0000 0.58910  0.21280  0.15890  Biso   1.000  H
  H18      1.0000 0.41090  0.78720  0.84110  Biso   1.000  H
  H19      1.0000 0.58760  0.30240  0.09290  Biso   1.000  H
  H20      1.0000 0.41240  0.69760  0.90710  Biso   1.000  H
  C47      1.0000 0.69114  0.38145  0.29980  Biso   1.000  C
  C48      1.0000 0.30886  0.61855  0.70020  Biso   1.000  C
  C49      1.0000 0.72013  0.37200  0.21090  Biso   1.000  C
  C50      1.0000 0.27987  0.62800  0.78910  Biso   1.000  C
  H21      1.0000 0.76970  0.38690  0.24450  Biso   1.000  H
  H22      1.0000 0.23030  0.61310  0.75550  Biso   1.000  H
  H23      1.0000 0.70470  0.42110  0.16520  Biso   1.000  H
  H24      1.0000 0.29530  0.57890  0.83480  Biso   1.000  H
  H25      1.0000 0.70420  0.30190  0.16720  Biso   1.000  H
  H26      1.0000 0.29580  0.69810  0.83280  Biso   1.000  H
  C51      1.0000 0.72585  0.32190  0.38670  Biso   1.000  C
  C52      1.0000 0.27415  0.67810  0.61330  Biso   1.000  C
  H27      1.0000 0.77510  0.34050  0.40960  Biso   1.000  H
  H28      1.0000 0.22490  0.65950  0.59040  Biso   1.000  H
  H29      1.0000 0.71070  0.24780  0.35700  Biso   1.000  H
  H30      1.0000 0.28930  0.75220  0.64300  Biso   1.000  H
  H31      1.0000 0.71380  0.33970  0.44840  Biso   1.000  H
  H32      1.0000 0.28620  0.66030  0.55160  Biso   1.000  H
  N3       1.0000 0.70699  0.49693  0.34917  Biso   1.000  N
  N4       1.0000 0.29301  0.50307  0.65083  Biso   1.000  N
  O19      1.0000 0.76770  0.54580  0.41323  Biso   1.000  O
  O20      1.0000 0.23230  0.45420  0.58677  Biso   1.000  O
  C53      1.0000 0.65196  0.54197  0.30380  Biso   1.000  C
  C54      1.0000 0.34804  0.45803  0.69620  Biso   1.000  C
  C55      1.0000 0.65197  0.65245  0.32440  Biso   1.000  C
  C56      1.0000 0.34803  0.34755  0.67560  Biso   1.000  C
  C57      1.0000 0.59699  0.70185  0.27980  Biso   1.000  C
  C58      1.0000 0.40301  0.29815  0.72020  Biso   1.000  C
  H33      1.0000 0.55280  0.66930  0.22960  Biso   1.000  H
  H34      1.0000 0.44720  0.33070  0.77040  Biso   1.000  H
  N5       1.0000 0.61936  0.80418  0.32228  Biso   1.000  N
  N6       1.0000 0.38064  0.19582  0.67772  Biso   1.000  N
  C59      1.0000 0.58197  0.89060  0.30260  Biso   1.000  C
  C60      1.0000 0.41803  0.10940  0.69740  Biso   1.000  C
  H35      1.0000 0.61520  0.95460  0.31660  Biso   1.000  H
  H36      1.0000 0.38480  0.04540  0.68340  Biso   1.000  H
  H37      1.0000 0.56040  0.90030  0.35480  Biso   1.000  H
  H38      1.0000 0.43960  0.09970  0.64520  Biso   1.000  H
  C61      1.0000 0.52808  0.87550  0.19080  Biso   1.000  C
  C62      1.0000 0.47192  0.12450  0.80920  Biso   1.000  C
  H39      1.0000 0.49260  0.81470  0.17770  Biso   1.000  H
  H40      1.0000 0.50740  0.18530  0.82230  Biso   1.000  H
  H41      1.0000 0.54850  0.86240  0.13740  Biso   1.000  H
  H42      1.0000 0.45150  0.13760  0.86260  Biso   1.000  H
  C63      1.0000 0.49545  0.97220  0.17640  Biso   1.000  C
  C64      1.0000 0.50455  0.02780  0.82360  Biso   1.000  C
  H43      1.0000 0.48070  0.98990  0.23600  Biso   1.000  H
  H44      1.0000 0.51930  0.01010  0.76400  Biso   1.000  H
  H45      1.0000 0.53050  0.03070  0.18230  Biso   1.000  H
  H46      1.0000 0.46950  0.96930  0.81770  Biso   1.000  H
  C65      1.0000 0.43520  0.95960  0.07060  Biso   1.000  C
  C66      1.0000 0.56480  0.04040  0.92940  Biso   1.000  C
  H47      1.0000 0.41800  0.02370  0.06780  Biso   1.000  H
  H48      1.0000 0.58200  0.97630  0.93220  Biso   1.000  H
  H49      1.0000 0.39940  0.90350  0.06490  Biso   1.000  H
  H50      1.0000 0.60060  0.09650  0.93510  Biso   1.000  H
  H51      1.0000 0.44930  0.94350  0.01080  Biso   1.000  H
  H52      1.0000 0.55070  0.05650  0.98920  Biso   1.000  H
  N7       1.0000 0.68669  0.82668  0.39556  Biso   1.000  N
  N8       1.0000 0.31331  0.17332  0.60444  Biso   1.000  N
  C67      1.0000 0.70626  0.73482  0.39570  Biso   1.000  C
  C68      1.0000 0.29374  0.26518  0.60430  Biso   1.000  C
  H53      1.0000 0.75030  0.72600  0.43750  Biso   1.000  H
  H54      1.0000 0.24970  0.27400  0.56250  Biso   1.000  H
  O21      1.0000 0.96094  0.51626  0.84456  Biso   1.000  O
  O22      1.0000 0.03906  0.48374  0.15544  Biso   1.000  O
  N9       1.0000 0.89653  0.52400  0.79321  Biso   1.000  N
  N10      1.0000 0.10347  0.47600  0.20679  Biso   1.000  N
  C69      1.0000 0.87690  0.62744  0.77250  Biso   1.000  C
  C70      1.0000 0.12310  0.37256  0.22750  Biso   1.000  C
  C71      1.0000 0.89872  0.65120  0.68030  Biso   1.000  C
  C72      1.0000 0.10128  0.34880  0.31970  Biso   1.000  C
  H55      1.0000 0.94820  0.66970  0.70790  Biso   1.000  H
  H56      1.0000 0.05180  0.33030  0.29210  Biso   1.000  H
  H57      1.0000 0.87920  0.70870  0.65330  Biso   1.000  H
  H58      1.0000 0.12080  0.29130  0.34670  Biso   1.000  H
  H59      1.0000 0.88240  0.59030  0.62190  Biso   1.000  H
  H60      1.0000 0.11760  0.40970  0.37810  Biso   1.000  H
  C73      1.0000 0.91379  0.71380  0.87490  Biso   1.000  C
  C74      1.0000 0.08621  0.28620  0.12510  Biso   1.000  C
  H61      1.0000 0.96240  0.72780  0.89090  Biso   1.000  H
  H62      1.0000 0.03760  0.27220  0.10910  Biso   1.000  H
  H63      1.0000 0.90640  0.69160  0.93550  Biso   1.000  H
  H64      1.0000 0.09360  0.30840  0.06450  Biso   1.000  H
  H65      1.0000 0.89590  0.77640  0.86290  Biso   1.000  H
  H66      1.0000 0.10410  0.22360  0.13710  Biso   1.000  H
  C75      1.0000 0.79768  0.59627  0.73670  Biso   1.000  C
  C76      1.0000 0.20232  0.40373  0.26330  Biso   1.000  C
  C77      1.0000 0.77393  0.60640  0.83130  Biso   1.000  C
  C78      1.0000 0.22607  0.39360  0.16870  Biso   1.000  C
  H67      1.0000 0.72450  0.58610  0.80300  Biso   1.000  H
  H68      1.0000 0.27550  0.41390  0.19700  Biso   1.000  H
  H69      1.0000 0.78790  0.67800  0.87110  Biso   1.000  H
  H70      1.0000 0.21210  0.32200  0.12890  Biso   1.000  H
  H71      1.0000 0.79440  0.56170  0.87940  Biso   1.000  H
  H72      1.0000 0.20560  0.43830  0.12060  Biso   1.000  H
  C79      1.0000 0.75527  0.64770  0.64690  Biso   1.000  C
  C80      1.0000 0.24473  0.35230  0.35310  Biso   1.000  C
  H73      1.0000 0.70700  0.62450  0.62980  Biso   1.000  H
  H74      1.0000 0.29300  0.37550  0.37020  Biso   1.000  H
  H75      1.0000 0.76450  0.62850  0.58260  Biso   1.000  H
  H76      1.0000 0.23550  0.37150  0.41740  Biso   1.000  H
  H77      1.0000 0.76750  0.72270  0.67170  Biso   1.000  H
  H78      1.0000 0.23250  0.27730  0.32830  Biso   1.000  H
  N11      1.0000 0.78627  0.48049  0.69217  Biso   1.000  N
  N12      1.0000 0.21373  0.51951  0.30783  Biso   1.000  N
  O23      1.0000 0.72683  0.42546  0.63261  Biso   1.000  O
  O24      1.0000 0.27317  0.57454  0.36739  Biso   1.000  O
  C81      1.0000 0.84513  0.44284  0.73350  Biso   1.000  C
  C82      1.0000 0.15487  0.55716  0.26650  Biso   1.000  C
  C83      1.0000 0.85070  0.33469  0.71170  Biso   1.000  C
  C84      1.0000 0.14930  0.66531  0.28830  Biso   1.000  C
  C85      1.0000 0.91033  0.29430  0.74870  Biso   1.000  C
  C86      1.0000 0.08967  0.70570  0.25130  Biso   1.000  C
  H79      1.0000 0.95440  0.33200  0.79420  Biso   1.000  H
  H80      1.0000 0.04560  0.66800  0.20580  Biso   1.000  H
  N13      1.0000 0.89308  0.19204  0.70724  Biso   1.000  N
  N14      1.0000 0.10692  0.80796  0.29276  Biso   1.000  N
  C87      1.0000 0.93943  0.11660  0.72730  Biso   1.000  C
  C88      1.0000 0.06057  0.88340  0.27270  Biso   1.000  C
  H81      1.0000 0.98380  0.14930  0.72980  Biso   1.000  H
  H82      1.0000 0.01620  0.85070  0.27020  Biso   1.000  H
  H83      1.0000 0.92030  0.05650  0.66640  Biso   1.000  H
  H84      1.0000 0.07970  0.94350  0.33360  Biso   1.000  H
  C89      1.0000 0.95010  0.07990  0.82910  Biso   1.000  C
  C90      1.0000 0.04990  0.92010  0.17090  Biso   1.000  C
  H85      1.0000 0.90550  0.04920  0.82770  Biso   1.000  H
  H86      1.0000 0.09450  0.95080  0.17230  Biso   1.000  H
  H87      1.0000 0.97060  0.13970  0.89030  Biso   1.000  H
  H88      1.0000 0.02940  0.86030  0.10970  Biso   1.000  H
  C91      1.0000 0.99690  0.99820  0.84760  Biso   1.000  C
  C92      1.0000 0.00310  0.00180  0.15240  Biso   1.000  C
  H89      1.0000 0.99660  0.96990  0.91040  Biso   1.000  H
  H90      1.0000 0.00340  0.03010  0.08960  Biso   1.000  H
  H91      1.0000 0.97790  0.94060  0.78410  Biso   1.000  H
  H92      1.0000 0.02210  0.05940  0.21590  Biso   1.000  H
  C93      1.0000 0.06870  0.04100  0.86610  Biso   1.000  C
  C94      1.0000 0.93130  0.95900  0.13390  Biso   1.000  C
  H93      1.0000 0.09510  0.98660  0.87730  Biso   1.000  H
  H94      1.0000 0.90490  0.01340  0.12270  Biso   1.000  H
  H95      1.0000 0.08820  0.09710  0.92970  Biso   1.000  H
  H96      1.0000 0.91180  0.90290  0.07030  Biso   1.000  H
  H97      1.0000 0.06960  0.06730  0.80340  Biso   1.000  H
  H98      1.0000 0.93040  0.93270  0.19660  Biso   1.000  H
  N15      1.0000 0.82408  0.16024  0.64343  Biso   1.000  N
  N16      1.0000 0.17592  0.83976  0.35657  Biso   1.000  N
  C95      1.0000 0.79892  0.24735  0.64660  Biso   1.000  C
  C96      1.0000 0.20108  0.75265  0.35340  Biso   1.000  C
  H99      1.0000 0.75270  0.25020  0.61010  Biso   1.000  H
  H100     1.0000 0.24730  0.74980  0.38990  Biso   1.000  H
  C97      1.0000 0.91652  0.27380  0.48080  Biso   1.000  C
  C98      1.0000 0.08348  0.72620  0.51920  Biso   1.000  C
  H101     1.0000 0.88130  0.24670  0.50430  Biso   1.000  H
  H102     1.0000 0.11870  0.75330  0.49570  Biso   1.000  H
  H103     1.0000 0.95700  0.24540  0.51340  Biso   1.000  H
  H104     1.0000 0.04300  0.75460  0.48660  Biso   1.000  H
  H105     1.0000 0.89990  0.25410  0.40240  Biso   1.000  H
  H106     1.0000 0.10010  0.74590  0.59760  Biso   1.000  H
  C99      1.0000 0.93447  0.39180  0.51560  Biso   1.000  C
  C100     1.0000 0.06553  0.60820  0.48440  Biso   1.000  C
  H107     1.0000 0.95030  0.41100  0.59470  Biso   1.000  H
  H108     1.0000 0.04970  0.58900  0.40530  Biso   1.000  H
  H109     1.0000 0.89310  0.41970  0.48380  Biso   1.000  H
  H110     1.0000 0.10690  0.58030  0.51620  Biso   1.000  H
  C101     1.0000 0.98966  0.44140  0.48180  Biso   1.000  C
  C102     1.0000 0.01034  0.55860  0.51820  Biso   1.000  C
  H111     1.0000 0.03030  0.41130  0.51150  Biso   1.000  H
  H112     1.0000 0.96970  0.58870  0.48850  Biso   1.000  H
  H113     1.0000 0.97310  0.42350  0.40250  Biso   1.000  H
  H114     1.0000 0.02690  0.57650  0.59750  Biso   1.000  H
  C103     1.0000 0.57004  0.74040  0.53540  Biso   1.000  C
  C104     1.0000 0.42996  0.25960  0.46460  Biso   1.000  C
  H115     1.0000 0.55840  0.79650  0.49770  Biso   1.000  H
  H116     1.0000 0.44160  0.20350  0.50230  Biso   1.000  H
  H117     1.0000 0.61410  0.72770  0.53800  Biso   1.000  H
  H118     1.0000 0.38590  0.27230  0.46200  Biso   1.000  H
  H119     1.0000 0.57230  0.75950  0.60860  Biso   1.000  H
  H120     1.0000 0.42770  0.24050  0.39140  Biso   1.000  H
  C105     1.0000 0.51579  0.64250  0.47540  Biso   1.000  C
  C106     1.0000 0.48421  0.35750  0.52460  Biso   1.000  C
  H121     1.0000 0.51310  0.62510  0.40100  Biso   1.000  H
  H122     1.0000 0.48690  0.37490  0.59900  Biso   1.000  H
  H123     1.0000 0.47140  0.65690  0.47150  Biso   1.000  H
  H124     1.0000 0.52860  0.34310  0.52850  Biso   1.000  H
  C107     1.0000 0.52871  0.54730  0.52770  Biso   1.000  C
  C108     1.0000 0.47129  0.45270  0.47230  Biso   1.000  C
  H125     1.0000 0.57120  0.52900  0.52600  Biso   1.000  H
  H126     1.0000 0.42880  0.47100  0.47400  Biso   1.000  H
  H127     1.0000 0.53520  0.56630  0.60390  Biso   1.000  H
  H128     1.0000 0.46480  0.43370  0.39610  Biso   1.000  H
