data_image0
_cell_length_a       12.038
_cell_length_b       12.164
_cell_length_c       13.856
_cell_angle_alpha    103.883
_cell_angle_beta     105.177
_cell_angle_gamma    110.799

_symmetry_space_group_name_H-M    "P 1"
_symmetry_int_tables_number       1

loop_
  _symmetry_equiv_pos_as_xyz
  'x, y, z'

loop_
  _atom_site_label
  _atom_site_occupancy
  _atom_site_fract_x
  _atom_site_fract_y
  _atom_site_fract_z
  _atom_site_thermal_displace_type
  _atom_site_B_iso_or_equiv
  _atom_site_type_symbol
  Cu1      1.0000 0.00000  0.50000  0.00000  Biso   1.000  Cu
  O1       1.0000 0.90110  0.37550  0.85639  Biso   1.000  O
  O2       1.0000 0.09890  0.62450  0.14361  Biso   1.000  O
  C1       1.0000 0.73970  0.19600  0.70940  Biso   1.000  C
  C2       1.0000 0.26030  0.80400  0.29060  Biso   1.000  C
  F1       1.0000 0.70000  0.26670  0.66160  Biso   1.000  F
  F2       1.0000 0.30000  0.73330  0.33840  Biso   1.000  F
  F3       1.0000 0.81030  0.16970  0.67280  Biso   1.000  F
  F4       1.0000 0.18970  0.83030  0.32720  Biso   1.000  F
  F5       1.0000 0.62350  0.13100  0.67720  Biso   1.000  F
  F6       1.0000 0.37650  0.86900  0.32280  Biso   1.000  F
  F7       1.0000 0.77460  0.25910  0.65130  Biso   1.000  F
  F8       1.0000 0.22540  0.74090  0.34870  Biso   1.000  F
  F9       1.0000 0.79460  0.11480  0.69750  Biso   1.000  F
  F10      1.0000 0.20540  0.88520  0.30250  Biso   1.000  F
  F11      1.0000 0.63570  0.10020  0.67680  Biso   1.000  F
  F12      1.0000 0.36430  0.89980  0.32320  Biso   1.000  F
  C3       1.0000 0.80220  0.27720  0.83080  Biso   1.000  C
  C4       1.0000 0.19780  0.72280  0.16920  Biso   1.000  C
  C5       1.0000 0.74510  0.23300  0.89670  Biso   1.000  C
  C6       1.0000 0.25490  0.76700  0.10330  Biso   1.000  C
  H1       1.0000 0.67090  0.15510  0.86640  Biso   1.000  H
  H2       1.0000 0.32910  0.84490  0.13360  Biso   1.000  H
  C7       1.0000 0.79370  0.29960  0.00510  Biso   1.000  C
  C8       1.0000 0.20630  0.70040  0.99490  Biso   1.000  C
  C9       1.0000 0.72420  0.24490  0.07170  Biso   1.000  C
  C10      1.0000 0.27580  0.75510  0.92830  Biso   1.000  C
  F13      1.0000 0.65530  0.13080  0.03830  Biso   1.000  F
  F14      1.0000 0.34470  0.86920  0.96170  Biso   1.000  F
  F15      1.0000 0.71100  0.33040  0.13320  Biso   1.000  F
  F16      1.0000 0.28900  0.66960  0.86680  Biso   1.000  F
  F17      1.0000 0.81080  0.26710  0.17030  Biso   1.000  F
  F18      1.0000 0.18920  0.73290  0.82970  Biso   1.000  F
  F19      1.0000 0.59640  0.16170  0.00520  Biso   1.000  F
  F20      1.0000 0.40360  0.83830  0.99480  Biso   1.000  F
  F21      1.0000 0.66900  0.30480  0.10950  Biso   1.000  F
  F22      1.0000 0.33100  0.69520  0.89050  Biso   1.000  F
  F23      1.0000 0.77600  0.18560  0.11210  Biso   1.000  F
  F24      1.0000 0.22400  0.81440  0.88790  Biso   1.000  F
  O3       1.0000 0.89040  0.40300  0.05866  Biso   1.000  O
  O4       1.0000 0.10960  0.59700  0.94134  Biso   1.000  O
  Cu2      1.0000 0.00000  0.00000  0.50000  Biso   1.000  Cu
  O5       1.0000 0.14960  0.11134  0.47587  Biso   1.000  O
  O6       1.0000 0.85040  0.88866  0.52413  Biso   1.000  O
  C11      1.0000 0.36140  0.21530  0.48940  Biso   1.000  C
  C12      1.0000 0.63860  0.78470  0.51060  Biso   1.000  C
  F25      1.0000 0.46000  0.30050  0.57710  Biso   1.000  F
  F26      1.0000 0.54000  0.69950  0.42290  Biso   1.000  F
  F27      1.0000 0.43400  0.17800  0.45800  Biso   1.000  F
  F28      1.0000 0.56600  0.82200  0.54200  Biso   1.000  F
  F29      1.0000 0.31500  0.25100  0.41850  Biso   1.000  F
  F30      1.0000 0.68500  0.74900  0.58150  Biso   1.000  F
  F31      1.0000 0.40700  0.15700  0.43010  Biso   1.000  F
  F32      1.0000 0.59300  0.84300  0.56990  Biso   1.000  F
  F33      1.0000 0.43200  0.31230  0.57440  Biso   1.000  F
  F34      1.0000 0.56800  0.68770  0.42560  Biso   1.000  F
  F35      1.0000 0.31600  0.27900  0.43680  Biso   1.000  F
  F36      1.0000 0.68400  0.72100  0.56320  Biso   1.000  F
  C13      1.0000 0.25850  0.11850  0.51120  Biso   1.000  C
  C14      1.0000 0.74150  0.88150  0.48880  Biso   1.000  C
  C15      1.0000 0.29920  0.05260  0.56880  Biso   1.000  C
  C16      1.0000 0.70080  0.94740  0.43120  Biso   1.000  C
  H3       1.0000 0.38630  0.06940  0.59110  Biso   1.000  H
  H4       1.0000 0.61370  0.93060  0.40890  Biso   1.000  H
  C17      1.0000 0.21890  0.96460  0.59460  Biso   1.000  C
  C18      1.0000 0.78110  0.03540  0.40540  Biso   1.000  C
  C19      1.0000 0.27570  0.89740  0.65880  Biso   1.000  C
  C20      1.0000 0.72430  0.10260  0.34120  Biso   1.000  C
  F37      1.0000 0.36840  0.88180  0.62970  Biso   1.000  F
  F38      1.0000 0.63160  0.11820  0.37030  Biso   1.000  F
  F39      1.0000 0.39040  0.93620  0.69450  Biso   1.000  F
  F40      1.0000 0.60960  0.06380  0.30550  Biso   1.000  F
  F41      1.0000 0.31600  0.95860  0.76140  Biso   1.000  F
  F42      1.0000 0.68400  0.04140  0.23860  Biso   1.000  F
  F43      1.0000 0.21700  0.77660  0.61100  Biso   1.000  F
  F44      1.0000 0.78300  0.22340  0.38900  Biso   1.000  F
  F45      1.0000 0.19380  0.78990  0.64120  Biso   1.000  F
  F46      1.0000 0.80620  0.21010  0.35880  Biso   1.000  F
  F47      1.0000 0.25600  0.91400  0.74380  Biso   1.000  F
  F48      1.0000 0.74400  0.08600  0.25620  Biso   1.000  F
  O7       1.0000 0.10100  0.92900  0.57236  Biso   1.000  O
  O8       1.0000 0.89900  0.07100  0.42764  Biso   1.000  O
  O9       1.0000 0.83580  0.57440  0.95697  Biso   1.000  O
  O10      1.0000 0.16420  0.42560  0.04303  Biso   1.000  O
  N1       1.0000 0.82540  0.67490  0.95300  Biso   1.000  N
  N2       1.0000 0.17460  0.32510  0.04700  Biso   1.000  N
  C21      1.0000 0.79780  0.70120  0.85020  Biso   1.000  C
  C22      1.0000 0.20220  0.29880  0.14980  Biso   1.000  C
  C23      1.0000 0.92190  0.73110  0.82930  Biso   1.000  C
  C24      1.0000 0.07810  0.26890  0.17070  Biso   1.000  C
  H5       1.0000 0.93280  0.65460  0.80910  Biso   1.000  H
  H6       1.0000 0.06720  0.34540  0.19090  Biso   1.000  H
  H7       1.0000 0.99440  0.79430  0.89410  Biso   1.000  H
  H8       1.0000 0.00560  0.20570  0.10590  Biso   1.000  H
  H9       1.0000 0.91710  0.76320  0.77150  Biso   1.000  H
  H10      1.0000 0.08290  0.23680  0.22850  Biso   1.000  H
  C25      1.0000 0.68720  0.58180  0.76020  Biso   1.000  C
  C26      1.0000 0.31280  0.41820  0.23980  Biso   1.000  C
  H11      1.0000 0.71480  0.51580  0.74580  Biso   1.000  H
  H12      1.0000 0.28520  0.48420  0.25420  Biso   1.000  H
  H13      1.0000 0.66170  0.59980  0.69560  Biso   1.000  H
  H14      1.0000 0.33830  0.40020  0.30440  Biso   1.000  H
  H15      1.0000 0.61480  0.55380  0.78180  Biso   1.000  H
  H16      1.0000 0.38520  0.44620  0.21820  Biso   1.000  H
  C27      1.0000 0.76970  0.81510  0.88290  Biso   1.000  C
  C28      1.0000 0.23030  0.18490  0.11710  Biso   1.000  C
  C29      1.0000 0.83730  0.92490  0.85230  Biso   1.000  C
  C30      1.0000 0.16270  0.07510  0.14770  Biso   1.000  C
  H17      1.0000 0.81370  0.99200  0.87620  Biso   1.000  H
  H18      1.0000 0.18630  0.00800  0.12380  Biso   1.000  H
  H19      1.0000 0.81170  0.89630  0.77470  Biso   1.000  H
  H20      1.0000 0.18830  0.10370  0.22530  Biso   1.000  H
  H21      1.0000 0.92960  0.95650  0.88620  Biso   1.000  H
  H22      1.0000 0.07040  0.04350  0.11380  Biso   1.000  H
  C31      1.0000 0.62710  0.78210  0.84920  Biso   1.000  C
  C32      1.0000 0.37290  0.21790  0.15080  Biso   1.000  C
  H23      1.0000 0.61740  0.85880  0.87270  Biso   1.000  H
  H24      1.0000 0.38260  0.14120  0.12730  Biso   1.000  H
  H25      1.0000 0.58810  0.72490  0.88190  Biso   1.000  H
  H26      1.0000 0.41190  0.27510  0.11810  Biso   1.000  H
  H27      1.0000 0.58500  0.74170  0.77150  Biso   1.000  H
  H28      1.0000 0.41500  0.25830  0.22850  Biso   1.000  H
  N3       1.0000 0.82260  0.85740  0.00270  Biso   1.000  N
  N4       1.0000 0.17740  0.14260  0.99730  Biso   1.000  N
  O11      1.0000 0.83400  0.96120  0.06251  Biso   1.000  O
  O12      1.0000 0.16600  0.03880  0.93749  Biso   1.000  O
  C33      1.0000 0.84480  0.77040  0.03690  Biso   1.000  C
  C34      1.0000 0.15520  0.22960  0.96310  Biso   1.000  C
  C35      1.0000 0.87800  0.77520  0.14590  Biso   1.000  C
  C36      1.0000 0.12200  0.22480  0.85410  Biso   1.000  C
  C37      1.0000 0.90790  0.87530  0.23780  Biso   1.000  C
  C38      1.0000 0.09210  0.12470  0.76220  Biso   1.000  C
  H29      1.0000 0.91170  0.95400  0.23840  Biso   1.000  H
  H30      1.0000 0.08830  0.04600  0.76160  Biso   1.000  H
  N5       1.0000 0.93040  0.84520  0.32460  Biso   1.000  N
  N6       1.0000 0.06960  0.15480  0.67540  Biso   1.000  N
  N7       1.0000 0.91280  0.72410  0.28720  Biso   1.000  N
  N8       1.0000 0.08720  0.27590  0.71280  Biso   1.000  N
  C39      1.0000 0.92460  0.65600  0.35900  Biso   1.000  C
  C40      1.0000 0.07540  0.34400  0.64100  Biso   1.000  C
  H31      1.0000 0.98650  0.71660  0.43090  Biso   1.000  H
  H32      1.0000 0.01350  0.28340  0.56910  Biso   1.000  H
  H33      1.0000 0.95900  0.59780  0.33370  Biso   1.000  H
  H34      1.0000 0.04100  0.40220  0.66630  Biso   1.000  H
  C41      1.0000 0.79980  0.58220  0.36680  Biso   1.000  C
  C42      1.0000 0.20020  0.41780  0.63320  Biso   1.000  C
  H35      1.0000 0.73980  0.51670  0.29620  Biso   1.000  H
  H36      1.0000 0.26020  0.48330  0.70380  Biso   1.000  H
  H37      1.0000 0.76190  0.63890  0.38720  Biso   1.000  H
  H38      1.0000 0.23810  0.36110  0.61280  Biso   1.000  H
  C43      1.0000 0.81830  0.52040  0.44900  Biso   1.000  C
  C44      1.0000 0.18170  0.47960  0.55100  Biso   1.000  C
  H39      1.0000 0.86020  0.46720  0.43040  Biso   1.000  H
  H40      1.0000 0.13980  0.53280  0.56960  Biso   1.000  H
  H41      1.0000 0.87530  0.58640  0.52000  Biso   1.000  H
  H42      1.0000 0.12470  0.41360  0.48000  Biso   1.000  H
  C45      1.0000 0.69430  0.44100  0.45470  Biso   1.000  C
  C46      1.0000 0.30570  0.55900  0.54530  Biso   1.000  C
  H43      1.0000 0.71140  0.40360  0.50790  Biso   1.000  H
  H44      1.0000 0.28860  0.59640  0.49210  Biso   1.000  H
  H45      1.0000 0.63790  0.37450  0.38500  Biso   1.000  H
  H46      1.0000 0.36210  0.62550  0.61500  Biso   1.000  H
  H47      1.0000 0.65330  0.49360  0.47500  Biso   1.000  H
  H48      1.0000 0.34670  0.50640  0.52500  Biso   1.000  H
  C47      1.0000 0.88230  0.68190  0.18140  Biso   1.000  C
  C48      1.0000 0.11770  0.31810  0.81860  Biso   1.000  C
  H49      1.0000 0.86640  0.60100  0.13860  Biso   1.000  H
  H50      1.0000 0.13360  0.39900  0.86140  Biso   1.000  H
  C49      1.0000 0.54100  0.67400  0.10850  Biso   1.000  C
  C50      1.0000 0.45900  0.32600  0.89150  Biso   1.000  C
  H51      1.0000 0.56890  0.69830  0.18520  Biso   1.000  H
  H52      1.0000 0.43110  0.30170  0.81480  Biso   1.000  H
  H53      1.0000 0.60620  0.72890  0.09120  Biso   1.000  H
  H54      1.0000 0.39380  0.27110  0.90880  Biso   1.000  H
  H55      1.0000 0.46240  0.67890  0.08020  Biso   1.000  H
  H56      1.0000 0.53760  0.32110  0.91980  Biso   1.000  H
  C51      1.0000 0.53900  0.55500  0.10830  Biso   1.000  C
  C52      1.0000 0.46100  0.44500  0.89170  Biso   1.000  C
  C53      1.0000 0.50000  0.50000  0.00000  Biso   1.000  C
  C54      1.0000 0.49700  0.61360  0.04630  Biso   1.000  C
  C55      1.0000 0.50300  0.38640  0.95370  Biso   1.000  C
  C56      1.0000 0.53820  0.68080  0.16180  Biso   1.000  C
  C57      1.0000 0.46180  0.31920  0.83820  Biso   1.000  C
  H57      1.0000 0.53050  0.75840  0.17830  Biso   1.000  H
  H58      1.0000 0.46950  0.24160  0.82170  Biso   1.000  H
  H59      1.0000 0.37460  0.30220  0.80110  Biso   1.000  H
  H60      1.0000 0.62540  0.69780  0.19890  Biso   1.000  H
  H61      1.0000 0.48210  0.62340  0.18430  Biso   1.000  H
  H62      1.0000 0.51790  0.37660  0.81570  Biso   1.000  H
