data_image0
_cell_length_a       10.7447
_cell_length_b       13.228
_cell_length_c       13.522
_cell_angle_alpha    76.269
_cell_angle_beta     64.781
_cell_angle_gamma    83.539

_symmetry_space_group_name_H-M    "P 1"
_symmetry_int_tables_number       1

loop_
  _symmetry_equiv_pos_as_xyz
  'x, y, z'

loop_
  _atom_site_label
  _atom_site_occupancy
  _atom_site_fract_x
  _atom_site_fract_y
  _atom_site_fract_z
  _atom_site_thermal_displace_type
  _atom_site_B_iso_or_equiv
  _atom_site_type_symbol
  Cu1      1.0000 0.00000  0.00000  0.00000  Biso   1.000  Cu
  O1       1.0000 0.10330  0.87445  0.02854  Biso   1.000  O
  O2       1.0000 0.89670  0.12555  0.97146  Biso   1.000  O
  C1       1.0000 0.28010  0.75660  0.02040  Biso   1.000  C
  C2       1.0000 0.71990  0.24340  0.97960  Biso   1.000  C
  F1       1.0000 0.24050  0.71980  0.11900  Biso   1.000  F
  F2       1.0000 0.75950  0.28020  0.88100  Biso   1.000  F
  F3       1.0000 0.25180  0.70090  0.97910  Biso   1.000  F
  F4       1.0000 0.74820  0.29910  0.02090  Biso   1.000  F
  F5       1.0000 0.41410  0.74658  0.98190  Biso   1.000  F
  F6       1.0000 0.58590  0.25342  0.01810  Biso   1.000  F
  F7       1.0000 0.21880  0.71320  0.13320  Biso   1.000  F
  F8       1.0000 0.78120  0.28680  0.86680  Biso   1.000  F
  F9       1.0000 0.23360  0.69440  0.96840  Biso   1.000  F
  F10      1.0000 0.76640  0.30560  0.03160  Biso   1.000  F
  C3       1.0000 0.23050  0.86710  0.99550  Biso   1.000  C
  C4       1.0000 0.76950  0.13290  0.00450  Biso   1.000  C
  C5       1.0000 0.32530  0.94370  0.94160  Biso   1.000  C
  C6       1.0000 0.67470  0.05630  0.05840  Biso   1.000  C
  H1       1.0000 0.42000  0.92590  0.92010  Biso   1.000  H
  H2       1.0000 0.58000  0.07410  0.07990  Biso   1.000  H
  C7       1.0000 0.28770  0.04670  0.91720  Biso   1.000  C
  C8       1.0000 0.71230  0.95330  0.08280  Biso   1.000  C
  C9       1.0000 0.39950  0.12630  0.85310  Biso   1.000  C
  C10      1.0000 0.60050  0.87370  0.14690  Biso   1.000  C
  F11      1.0000 0.38780  0.17590  0.75600  Biso   1.000  F
  F12      1.0000 0.61220  0.82410  0.24400  Biso   1.000  F
  F13      1.0000 0.52280  0.09040  0.82570  Biso   1.000  F
  F14      1.0000 0.47720  0.90960  0.17430  Biso   1.000  F
  F15      1.0000 0.38650  0.19940  0.88500  Biso   1.000  F
  F16      1.0000 0.61350  0.80060  0.11500  Biso   1.000  F
  F17      1.0000 0.44030  0.13710  0.75220  Biso   1.000  F
  F18      1.0000 0.55970  0.86290  0.24780  Biso   1.000  F
  F19      1.0000 0.50720  0.09980  0.87600  Biso   1.000  F
  F20      1.0000 0.49280  0.90020  0.12400  Biso   1.000  F
  F21      1.0000 0.36280  0.21590  0.90270  Biso   1.000  F
  F22      1.0000 0.63720  0.78410  0.09730  Biso   1.000  F
  O3       1.0000 0.17030  0.08444  0.94020  Biso   1.000  O
  O4       1.0000 0.82970  0.91556  0.05980  Biso   1.000  O
  Cu2      1.0000 0.00000  0.50000  0.50000  Biso   1.000  Cu
  O5       1.0000 0.15460  0.56082  0.49870  Biso   1.000  O
  O6       1.0000 0.84540  0.43918  0.50130  Biso   1.000  O
  C11      1.0000 0.36740  0.63070  0.43940  Biso   1.000  C
  C12      1.0000 0.63260  0.36930  0.56060  Biso   1.000  C
  F23      1.0000 0.49440  0.63040  0.37560  Biso   1.000  F
  F24      1.0000 0.50560  0.36960  0.62440  Biso   1.000  F
  F25      1.0000 0.36200  0.59760  0.54210  Biso   1.000  F
  F26      1.0000 0.63800  0.40240  0.45790  Biso   1.000  F
  F27      1.0000 0.32620  0.72560  0.44590  Biso   1.000  F
  F28      1.0000 0.67380  0.27440  0.55410  Biso   1.000  F
  F29      1.0000 0.38910  0.57380  0.52260  Biso   1.000  F
  F30      1.0000 0.61090  0.42620  0.47740  Biso   1.000  F
  F31      1.0000 0.49130  0.63810  0.34680  Biso   1.000  F
  F32      1.0000 0.50870  0.36190  0.65320  Biso   1.000  F
  C13      1.0000 0.26980  0.57310  0.41830  Biso   1.000  C
  C14      1.0000 0.73020  0.42690  0.58170  Biso   1.000  C
  C15      1.0000 0.31350  0.54250  0.31920  Biso   1.000  C
  C16      1.0000 0.68650  0.45750  0.68080  Biso   1.000  C
  H3       1.0000 0.40320  0.56070  0.26340  Biso   1.000  H
  H4       1.0000 0.59680  0.43930  0.73660  Biso   1.000  H
  C17      1.0000 0.23140  0.48580  0.29740  Biso   1.000  C
  C18      1.0000 0.76860  0.51420  0.70260  Biso   1.000  C
  C19      1.0000 0.28930  0.45280  0.18640  Biso   1.000  C
  C20      1.0000 0.71070  0.54720  0.81360  Biso   1.000  C
  F33      1.0000 0.35130  0.35580  0.20570  Biso   1.000  F
  F34      1.0000 0.64870  0.64420  0.79430  Biso   1.000  F
  F35      1.0000 0.39410  0.50550  0.11070  Biso   1.000  F
  F36      1.0000 0.60590  0.49450  0.88930  Biso   1.000  F
  F37      1.0000 0.20010  0.43820  0.15550  Biso   1.000  F
  F38      1.0000 0.79990  0.56180  0.84450  Biso   1.000  F
  F39      1.0000 0.20030  0.48370  0.13560  Biso   1.000  F
  F40      1.0000 0.79970  0.51630  0.86440  Biso   1.000  F
  F41      1.0000 0.30120  0.35630  0.19070  Biso   1.000  F
  F42      1.0000 0.69880  0.64370  0.80930  Biso   1.000  F
  O7       1.0000 0.11230  0.45487  0.36010  Biso   1.000  O
  O8       1.0000 0.88770  0.54513  0.63990  Biso   1.000  O
  O9       1.0000 0.91190  0.01869  0.17800  Biso   1.000  O
  O10      1.0000 0.08810  0.98131  0.82200  Biso   1.000  O
  N1       1.0000 0.98530  0.02690  0.23030  Biso   1.000  N
  N2       1.0000 0.01470  0.97310  0.76970  Biso   1.000  N
  C21      1.0000 0.00780  0.12990  0.24680  Biso   1.000  C
  C22      1.0000 0.99220  0.87010  0.75320  Biso   1.000  C
  C23      1.0000 0.04070  0.21140  0.14120  Biso   1.000  C
  C24      1.0000 0.95930  0.78860  0.85880  Biso   1.000  C
  H5       1.0000 0.96040  0.22370  0.12320  Biso   1.000  H
  H6       1.0000 0.03960  0.77630  0.87680  Biso   1.000  H
  H7       1.0000 0.11850  0.18760  0.07980  Biso   1.000  H
  H8       1.0000 0.88150  0.81240  0.92020  Biso   1.000  H
  H9       1.0000 0.06480  0.27630  0.15150  Biso   1.000  H
  H10      1.0000 0.93520  0.72370  0.84850  Biso   1.000  H
  C25      1.0000 0.87410  0.15710  0.33900  Biso   1.000  C
  C26      1.0000 0.12590  0.84290  0.66100  Biso   1.000  C
  H11      1.0000 0.80290  0.17460  0.31030  Biso   1.000  H
  H12      1.0000 0.19710  0.82540  0.68970  Biso   1.000  H
  H13      1.0000 0.88860  0.21690  0.36380  Biso   1.000  H
  H14      1.0000 0.11140  0.78310  0.63620  Biso   1.000  H
  H15      1.0000 0.84470  0.09740  0.40220  Biso   1.000  H
  H16      1.0000 0.15530  0.90260  0.59780  Biso   1.000  H
  C27      1.0000 0.12540  0.10010  0.28500  Biso   1.000  C
  C28      1.0000 0.87460  0.89990  0.71500  Biso   1.000  C
  C29      1.0000 0.26810  0.10790  0.18920  Biso   1.000  C
  C30      1.0000 0.73190  0.89210  0.81080  Biso   1.000  C
  H17      1.0000 0.33770  0.08910  0.21960  Biso   1.000  H
  H18      1.0000 0.66230  0.91090  0.78040  Biso   1.000  H
  H19      1.0000 0.28310  0.17940  0.14520  Biso   1.000  H
  H20      1.0000 0.71690  0.82060  0.85480  Biso   1.000  H
  H21      1.0000 0.27550  0.06040  0.14140  Biso   1.000  H
  H22      1.0000 0.72450  0.93960  0.85860  Biso   1.000  H
  C31      1.0000 0.12020  0.15270  0.37340  Biso   1.000  C
  C32      1.0000 0.87980  0.84730  0.62660  Biso   1.000  C
  H23      1.0000 0.19860  0.12930  0.39240  Biso   1.000  H
  H24      1.0000 0.80140  0.87070  0.60760  Biso   1.000  H
  H25      1.0000 0.03430  0.13490  0.44020  Biso   1.000  H
  H26      1.0000 0.96570  0.86510  0.55980  Biso   1.000  H
  H27      1.0000 0.12410  0.22820  0.34540  Biso   1.000  H
  H28      1.0000 0.87590  0.77180  0.65460  Biso   1.000  H
  N3       1.0000 0.10110  0.98680  0.33150  Biso   1.000  N
  N4       1.0000 0.89890  0.01320  0.66850  Biso   1.000  N
  O11      1.0000 0.15880  0.93363  0.39130  Biso   1.000  O
  O12      1.0000 0.84120  0.06637  0.60870  Biso   1.000  O
  C33      1.0000 0.02630  0.94840  0.29100  Biso   1.000  C
  C34      1.0000 0.97370  0.05160  0.70900  Biso   1.000  C
  C35      1.0000 0.99480  0.84180  0.31280  Biso   1.000  C
  C36      1.0000 0.00520  0.15820  0.68720  Biso   1.000  C
  C37      1.0000 0.03120  0.75650  0.37830  Biso   1.000  C
  C38      1.0000 0.96880  0.24350  0.62170  Biso   1.000  C
  H29      1.0000 0.08630  0.76050  0.41650  Biso   1.000  H
  H30      1.0000 0.91370  0.23950  0.58350  Biso   1.000  H
  N5       1.0000 0.98000  0.66960  0.38090  Biso   1.000  N
  N6       1.0000 0.02000  0.33040  0.61910  Biso   1.000  N
  N7       1.0000 0.91190  0.69830  0.31430  Biso   1.000  N
  N8       1.0000 0.08810  0.30170  0.68570  Biso   1.000  N
  C39      1.0000 0.84520  0.62140  0.29340  Biso   1.000  C
  C40      1.0000 0.15480  0.37860  0.70660  Biso   1.000  C
  H31      1.0000 0.86250  0.55170  0.33270  Biso   1.000  H
  H32      1.0000 0.13750  0.44830  0.66730  Biso   1.000  H
  H33      1.0000 0.74460  0.63460  0.32610  Biso   1.000  H
  H34      1.0000 0.25540  0.36540  0.67390  Biso   1.000  H
  C41      1.0000 0.88870  0.61990  0.17860  Biso   1.000  C
  C42      1.0000 0.11130  0.38010  0.82140  Biso   1.000  C
  H35      1.0000 0.98960  0.62870  0.13840  Biso   1.000  H
  H36      1.0000 0.01040  0.37130  0.86160  Biso   1.000  H
  H37      1.0000 0.84350  0.67710  0.14340  Biso   1.000  H
  H38      1.0000 0.15650  0.32290  0.85660  Biso   1.000  H
  C43      1.0000 0.84140  0.49690  0.17300  Biso   1.000  C
  C44      1.0000 0.15860  0.50310  0.82700  Biso   1.000  C
  H39      1.0000 0.91800  0.45750  0.12490  Biso   1.000  H
  H40      1.0000 0.08200  0.54250  0.87510  Biso   1.000  H
  H41      1.0000 0.78810  0.45260  0.24700  Biso   1.000  H
  H42      1.0000 0.21190  0.54740  0.75300  Biso   1.000  H
  C45      1.0000 0.77250  0.54730  0.12810  Biso   1.000  C
  C46      1.0000 0.22750  0.45270  0.87190  Biso   1.000  C
  H43      1.0000 0.72420  0.50050  0.11030  Biso   1.000  H
  H44      1.0000 0.27580  0.49950  0.88970  Biso   1.000  H
  H45      1.0000 0.83190  0.59330  0.05910  Biso   1.000  H
  H46      1.0000 0.16810  0.40670  0.94090  Biso   1.000  H
  H47      1.0000 0.70520  0.58910  0.17830  Biso   1.000  H
  H48      1.0000 0.29480  0.41090  0.82170  Biso   1.000  H
  C47      1.0000 0.91770  0.79920  0.27360  Biso   1.000  C
  C48      1.0000 0.08230  0.20080  0.72640  Biso   1.000  C
  H49      1.0000 0.87620  0.83620  0.22570  Biso   1.000  H
  H50      1.0000 0.12380  0.16380  0.77430  Biso   1.000  H
  C49      1.0000 0.47480  0.22640  0.34900  Biso   1.000  C
  C50      1.0000 0.52520  0.77360  0.65100  Biso   1.000  C
  C51      1.0000 0.39040  0.26240  0.44550  Biso   1.000  C
  C52      1.0000 0.60960  0.73760  0.55450  Biso   1.000  C
  C53      1.0000 0.49080  0.10660  0.38410  Biso   1.000  C
  C54      1.0000 0.50920  0.89340  0.61590  Biso   1.000  C
  C55      1.0000 0.46800  0.05870  0.50400  Biso   1.000  C
  C56      1.0000 0.53200  0.94130  0.49600  Biso   1.000  C
  C57      1.0000 0.51400  0.05630  0.49800  Biso   1.000  C
  C58      1.0000 0.48600  0.94370  0.50200  Biso   1.000  C
  C59      1.0000 0.37440  0.10250  0.51600  Biso   1.000  C
  C60      1.0000 0.62560  0.89750  0.48400  Biso   1.000  C
  C61      1.0000 0.41400  0.21810  0.47000  Biso   1.000  C
  C62      1.0000 0.58600  0.78190  0.53000  Biso   1.000  C
  C63      1.0000 0.51350  0.27110  0.34650  Biso   1.000  C
  C64      1.0000 0.48650  0.72890  0.65350  Biso   1.000  C
