data_image0
_cell_length_a       10.8056
_cell_length_b       13.315
_cell_length_c       13.614
_cell_angle_alpha    98.749
_cell_angle_beta     112.126
_cell_angle_gamma    96.373

_symmetry_space_group_name_H-M    "P 1"
_symmetry_int_tables_number       1

loop_
  _symmetry_equiv_pos_as_xyz
  'x, y, z'

loop_
  _atom_site_label
  _atom_site_occupancy
  _atom_site_fract_x
  _atom_site_fract_y
  _atom_site_fract_z
  _atom_site_thermal_displace_type
  _atom_site_B_iso_or_equiv
  _atom_site_type_symbol
  Cu1      1.0000 0.00000  0.00000  0.00000  Biso   1.000  Cu
  O1       1.0000 0.12700  0.12783  0.02598  Biso   1.000  O
  O2       1.0000 0.87300  0.87217  0.97402  Biso   1.000  O
  C1       1.0000 0.29530  0.24560  0.01670  Biso   1.000  C
  C2       1.0000 0.70470  0.75440  0.98330  Biso   1.000  C
  F1       1.0000 0.35290  0.29090  0.13270  Biso   1.000  F
  F2       1.0000 0.64710  0.70910  0.86730  Biso   1.000  F
  F3       1.0000 0.21800  0.29660  0.95400  Biso   1.000  F
  F4       1.0000 0.78200  0.70340  0.04600  Biso   1.000  F
  F5       1.0000 0.40300  0.25180  0.00010  Biso   1.000  F
  F6       1.0000 0.59700  0.74820  0.99990  Biso   1.000  F
  F7       1.0000 0.34600  0.27690  0.09800  Biso   1.000  F
  F8       1.0000 0.65400  0.72310  0.90200  Biso   1.000  F
  F9       1.0000 0.21460  0.30870  0.99720  Biso   1.000  F
  F10      1.0000 0.78540  0.69130  0.00280  Biso   1.000  F
  F11      1.0000 0.36700  0.26250  0.96400  Biso   1.000  F
  F12      1.0000 0.63300  0.73750  0.03600  Biso   1.000  F
  C3       1.0000 0.22060  0.13560  0.99430  Biso   1.000  C
  C4       1.0000 0.77940  0.86440  0.00570  Biso   1.000  C
  C5       1.0000 0.26260  0.05800  0.94310  Biso   1.000  C
  C6       1.0000 0.73740  0.94200  0.05690  Biso   1.000  C
  H1       1.0000 0.33390  0.07540  0.92270  Biso   1.000  H
  H2       1.0000 0.66610  0.92460  0.07730  Biso   1.000  H
  C7       1.0000 0.20420  0.95630  0.92090  Biso   1.000  C
  C8       1.0000 0.79580  0.04370  0.07910  Biso   1.000  C
  C9       1.0000 0.25650  0.87630  0.86230  Biso   1.000  C
  C10      1.0000 0.74350  0.12370  0.13770  Biso   1.000  C
  F13      1.0000 0.24200  0.78970  0.87920  Biso   1.000  F
  F14      1.0000 0.75800  0.21030  0.12080  Biso   1.000  F
  F15      1.0000 0.39080  0.90310  0.89580  Biso   1.000  F
  F16      1.0000 0.60920  0.09690  0.10420  Biso   1.000  F
  F17      1.0000 0.21100  0.87670  0.76390  Biso   1.000  F
  F18      1.0000 0.78900  0.12330  0.23610  Biso   1.000  F
  F19      1.0000 0.29580  0.80800  0.92010  Biso   1.000  F
  F20      1.0000 0.70420  0.19200  0.07990  Biso   1.000  F
  F21      1.0000 0.34100  0.90950  0.82570  Biso   1.000  F
  F22      1.0000 0.65900  0.09050  0.17430  Biso   1.000  F
  F23      1.0000 0.15140  0.82050  0.77280  Biso   1.000  F
  F24      1.0000 0.84860  0.17950  0.22720  Biso   1.000  F
  O3       1.0000 0.10970  0.91868  0.94325  Biso   1.000  O
  O4       1.0000 0.89030  0.08132  0.05675  Biso   1.000  O
  Cu2      1.0000 0.50000  0.50000  0.50000  Biso   1.000  Cu
  O5       1.0000 0.48250  0.54745  0.36628  Biso   1.000  O
  O6       1.0000 0.51750  0.45255  0.63372  Biso   1.000  O
  C11      1.0000 0.50350  0.55830  0.20440  Biso   1.000  C
  C12      1.0000 0.49650  0.44170  0.79560  Biso   1.000  C
  F25      1.0000 0.36920  0.53800  0.15480  Biso   1.000  F
  F26      1.0000 0.63080  0.46200  0.84520  Biso   1.000  F
  F27      1.0000 0.54020  0.64990  0.21400  Biso   1.000  F
  F28      1.0000 0.45980  0.35010  0.78600  Biso   1.000  F
  F29      1.0000 0.52800  0.51580  0.14130  Biso   1.000  F
  F30      1.0000 0.47200  0.48420  0.85870  Biso   1.000  F
  F31      1.0000 0.60190  0.63940  0.21950  Biso   1.000  F
  F32      1.0000 0.39810  0.36060  0.78050  Biso   1.000  F
  F33      1.0000 0.39500  0.59690  0.17770  Biso   1.000  F
  F34      1.0000 0.60500  0.40310  0.82230  Biso   1.000  F
  F35      1.0000 0.52100  0.48770  0.11990  Biso   1.000  F
  F36      1.0000 0.47900  0.51230  0.88010  Biso   1.000  F
  C13      1.0000 0.54530  0.52000  0.31010  Biso   1.000  C
  C14      1.0000 0.45470  0.48000  0.68990  Biso   1.000  C
  C15      1.0000 0.64650  0.46190  0.33290  Biso   1.000  C
  C16      1.0000 0.35350  0.53810  0.66710  Biso   1.000  C
  H3       1.0000 0.68420  0.44620  0.28250  Biso   1.000  H
  H4       1.0000 0.31580  0.55380  0.71750  Biso   1.000  H
  C17      1.0000 0.69360  0.42660  0.42680  Biso   1.000  C
  C18      1.0000 0.30640  0.57340  0.57320  Biso   1.000  C
  C19      1.0000 0.80870  0.36520  0.44810  Biso   1.000  C
  C20      1.0000 0.19130  0.63480  0.55190  Biso   1.000  C
  F37      1.0000 0.84660  0.34400  0.37000  Biso   1.000  F
  F38      1.0000 0.15340  0.65600  0.63000  Biso   1.000  F
  F39      1.0000 0.77940  0.28110  0.47110  Biso   1.000  F
  F40      1.0000 0.22060  0.71890  0.52890  Biso   1.000  F
  F41      1.0000 0.91750  0.41840  0.52650  Biso   1.000  F
  F42      1.0000 0.08250  0.58160  0.47350  Biso   1.000  F
  F43      1.0000 0.89010  0.38290  0.54810  Biso   1.000  F
  F44      1.0000 0.10990  0.61710  0.45190  Biso   1.000  F
  F45      1.0000 0.76200  0.26790  0.42400  Biso   1.000  F
  F46      1.0000 0.23800  0.73210  0.57600  Biso   1.000  F
  F47      1.0000 0.87640  0.38140  0.38960  Biso   1.000  F
  F48      1.0000 0.12360  0.61860  0.61040  Biso   1.000  F
  O7       1.0000 0.65280  0.43642  0.50197  Biso   1.000  O
  O8       1.0000 0.34720  0.56358  0.49803  Biso   1.000  O
  O9       1.0000 0.09510  0.98334  0.17917  Biso   1.000  O
  O10      1.0000 0.90490  0.01666  0.82083  Biso   1.000  O
  N1       1.0000 0.22010  0.97520  0.23134  Biso   1.000  N
  N2       1.0000 0.77990  0.02480  0.76866  Biso   1.000  N
  C21      1.0000 0.25990  0.87320  0.24780  Biso   1.000  C
  C22      1.0000 0.74010  0.12680  0.75220  Biso   1.000  C
  C23      1.0000 0.21350  0.84440  0.33390  Biso   1.000  C
  C24      1.0000 0.78650  0.15560  0.66610  Biso   1.000  C
  H5       1.0000 0.11610  0.82770  0.30420  Biso   1.000  H
  H6       1.0000 0.88390  0.17230  0.69580  Biso   1.000  H
  H7       1.0000 0.24470  0.90170  0.39480  Biso   1.000  H
  H8       1.0000 0.75530  0.09830  0.60520  Biso   1.000  H
  H9       1.0000 0.25050  0.78570  0.35720  Biso   1.000  H
  H10      1.0000 0.74950  0.21430  0.64280  Biso   1.000  H
  C25      1.0000 0.18920  0.79210  0.14360  Biso   1.000  C
  C26      1.0000 0.81080  0.20790  0.85640  Biso   1.000  C
  H11      1.0000 0.09320  0.77920  0.12550  Biso   1.000  H
  H12      1.0000 0.90680  0.22080  0.87450  Biso   1.000  H
  H13      1.0000 0.22370  0.72930  0.15320  Biso   1.000  H
  H14      1.0000 0.77630  0.27070  0.84680  Biso   1.000  H
  H15      1.0000 0.20600  0.81640  0.08600  Biso   1.000  H
  H16      1.0000 0.79400  0.18360  0.91400  Biso   1.000  H
  C27      1.0000 0.41470  0.90310  0.28780  Biso   1.000  C
  C28      1.0000 0.58530  0.09690  0.71220  Biso   1.000  C
  C29      1.0000 0.49720  0.85180  0.37650  Biso   1.000  C
  C30      1.0000 0.50280  0.14820  0.62350  Biso   1.000  C
  H17      1.0000 0.59230  0.87420  0.39510  Biso   1.000  H
  H18      1.0000 0.40770  0.12580  0.60490  Biso   1.000  H
  H19      1.0000 0.47390  0.77810  0.35130  Biso   1.000  H
  H20      1.0000 0.52610  0.22190  0.64870  Biso   1.000  H
  H21      1.0000 0.47760  0.87060  0.43930  Biso   1.000  H
  H22      1.0000 0.52240  0.12940  0.56070  Biso   1.000  H
  C31      1.0000 0.46630  0.89560  0.19790  Biso   1.000  C
  C32      1.0000 0.53370  0.10440  0.80210  Biso   1.000  C
  H23      1.0000 0.56360  0.91460  0.22900  Biso   1.000  H
  H24      1.0000 0.43640  0.08540  0.77100  Biso   1.000  H
  H25      1.0000 0.42800  0.94160  0.15140  Biso   1.000  H
  H26      1.0000 0.57200  0.05840  0.84860  Biso   1.000  H
  H27      1.0000 0.43980  0.82600  0.15630  Biso   1.000  H
  H28      1.0000 0.56020  0.17400  0.84370  Biso   1.000  H
  N3       1.0000 0.43530  0.01602  0.33330  Biso   1.000  N
  N4       1.0000 0.56470  0.98398  0.66670  Biso   1.000  N
  O11      1.0000 0.55160  0.06998  0.39280  Biso   1.000  O
  O12      1.0000 0.44840  0.93002  0.60720  Biso   1.000  O
  C33      1.0000 0.32020  0.05370  0.29190  Biso   1.000  C
  C34      1.0000 0.67980  0.94630  0.70810  Biso   1.000  C
  C35      1.0000 0.30790  0.15980  0.31220  Biso   1.000  C
  C36      1.0000 0.69210  0.84020  0.68780  Biso   1.000  C
  C37      1.0000 0.40820  0.24460  0.37940  Biso   1.000  C
  C38      1.0000 0.59180  0.75540  0.62060  Biso   1.000  C
  H29      1.0000 0.49860  0.24080  0.41790  Biso   1.000  H
  H30      1.0000 0.50140  0.75920  0.58210  Biso   1.000  H
  N5       1.0000 0.35870  0.33075  0.38140  Biso   1.000  N
  N6       1.0000 0.64130  0.66925  0.61860  Biso   1.000  N
  N7       1.0000 0.22510  0.30187  0.31420  Biso   1.000  N
  N8       1.0000 0.77490  0.69813  0.68580  Biso   1.000  N
  C39      1.0000 0.13700  0.37840  0.29490  Biso   1.000  C
  C40      1.0000 0.86300  0.62160  0.70510  Biso   1.000  C
  H31      1.0000 0.06500  0.36000  0.31870  Biso   1.000  H
  H32      1.0000 0.93500  0.64000  0.68130  Biso   1.000  H
  H33      1.0000 0.18950  0.44490  0.33960  Biso   1.000  H
  H34      1.0000 0.81050  0.55510  0.66040  Biso   1.000  H
  C41      1.0000 0.07740  0.38940  0.18700  Biso   1.000  C
  C42      1.0000 0.92260  0.61060  0.81300  Biso   1.000  C
  H35      1.0000 0.01460  0.32630  0.14270  Biso   1.000  H
  H36      1.0000 0.98540  0.67370  0.85730  Biso   1.000  H
  H37      1.0000 0.14750  0.40080  0.15950  Biso   1.000  H
  H38      1.0000 0.85250  0.59920  0.84050  Biso   1.000  H
  C43      1.0000 0.99750  0.48500  0.17810  Biso   1.000  C
  C44      1.0000 0.00250  0.51500  0.82190  Biso   1.000  C
  H39      1.0000 0.99870  0.51330  0.24860  Biso   1.000  H
  H40      1.0000 0.00130  0.48670  0.75140  Biso   1.000  H
  H41      1.0000 0.04330  0.53900  0.15660  Biso   1.000  H
  H42      1.0000 0.95670  0.46100  0.84340  Biso   1.000  H
  C45      1.0000 0.88820  0.45990  0.11670  Biso   1.000  C
  C46      1.0000 0.11180  0.54010  0.88330  Biso   1.000  C
  H43      1.0000 0.84410  0.51870  0.11060  Biso   1.000  H
  H44      1.0000 0.15590  0.48130  0.88940  Biso   1.000  H
  H45      1.0000 0.84120  0.40950  0.14020  Biso   1.000  H
  H46      1.0000 0.15880  0.59050  0.85980  Biso   1.000  H
  H47      1.0000 0.88680  0.43010  0.04740  Biso   1.000  H
  H48      1.0000 0.11320  0.56990  0.95260  Biso   1.000  H
  C47      1.0000 0.19220  0.20170  0.27270  Biso   1.000  C
  C48      1.0000 0.80780  0.79830  0.72730  Biso   1.000  C
  H49      1.0000 0.10630  0.16560  0.22520  Biso   1.000  H
  H50      1.0000 0.89370  0.83440  0.77480  Biso   1.000  H
  Cl1      1.0000 0.85000  0.76470  0.46910  Biso   1.000  Cl
  Cl2      1.0000 0.15000  0.23530  0.53090  Biso   1.000  Cl
  C49      1.0000 0.92800  0.89200  0.52700  Biso   1.000  C
  C50      1.0000 0.07200  0.10800  0.47300  Biso   1.000  C
  H51      1.0000 0.00340  0.89960  0.59550  Biso   1.000  H
  H52      1.0000 0.99660  0.10040  0.40450  Biso   1.000  H
  H53      1.0000 0.85770  0.92470  0.53930  Biso   1.000  H
  H54      1.0000 0.14230  0.07530  0.46070  Biso   1.000  H
  C51      1.0000 0.90600  0.93900  0.42800  Biso   1.000  C
  C52      1.0000 0.09400  0.06100  0.57200  Biso   1.000  C
  H55      1.0000 0.82860  0.94940  0.36810  Biso   1.000  H
  H56      1.0000 0.17140  0.05060  0.63190  Biso   1.000  H
  H57      1.0000 0.95740  0.89690  0.39990  Biso   1.000  H
  H58      1.0000 0.04260  0.10310  0.60010  Biso   1.000  H
  C53      1.0000 0.97900  0.96800  0.50600  Biso   1.000  C
  C54      1.0000 0.02100  0.03200  0.49400  Biso   1.000  C
  H59      1.0000 0.11650  0.02590  0.51360  Biso   1.000  H
  H60      1.0000 0.88350  0.97410  0.48640  Biso   1.000  H
  H61      1.0000 0.00680  0.04770  0.56050  Biso   1.000  H
  H62      1.0000 0.99320  0.95230  0.43950  Biso   1.000  H
  C55      1.0000 0.94800  0.85300  0.46500  Biso   1.000  C
  C56      1.0000 0.05200  0.14700  0.53500  Biso   1.000  C
  H63      1.0000 0.04250  0.84480  0.48930  Biso   1.000  H
  H64      1.0000 0.95750  0.15520  0.51070  Biso   1.000  H
  H65      1.0000 0.08390  0.14350  0.47720  Biso   1.000  H
  H66      1.0000 0.91610  0.85650  0.52280  Biso   1.000  H
  C57      1.0000 0.85300  0.80400  0.35000  Biso   1.000  C
  C58      1.0000 0.14700  0.19600  0.65000  Biso   1.000  C
  H67      1.0000 0.14960  0.26460  0.63470  Biso   1.000  H
  H68      1.0000 0.85040  0.73540  0.36530  Biso   1.000  H
  H69      1.0000 0.88670  0.80710  0.29350  Biso   1.000  H
  H70      1.0000 0.11330  0.19290  0.70650  Biso   1.000  H
  H71      1.0000 0.76120  0.81870  0.32670  Biso   1.000  H
  H72      1.0000 0.23880  0.18130  0.67330  Biso   1.000  H
