data_image0
_cell_length_a       10.7451
_cell_length_b       13.202
_cell_length_c       13.504
_cell_angle_alpha    76.349
_cell_angle_beta     65.266
_cell_angle_gamma    83.541

_symmetry_space_group_name_H-M    "P 1"
_symmetry_int_tables_number       1

loop_
  _symmetry_equiv_pos_as_xyz
  'x, y, z'

loop_
  _atom_site_label
  _atom_site_occupancy
  _atom_site_fract_x
  _atom_site_fract_y
  _atom_site_fract_z
  _atom_site_thermal_displace_type
  _atom_site_B_iso_or_equiv
  _atom_site_type_symbol
  Cu1      1.0000 0.00000  0.00000  0.00000  Biso   1.000  Cu
  O1       1.0000 0.10670  0.87614  0.02994  Biso   1.000  O
  O2       1.0000 0.89330  0.12386  0.97006  Biso   1.000  O
  C1       1.0000 0.28330  0.75690  0.02040  Biso   1.000  C
  C2       1.0000 0.71670  0.24310  0.97960  Biso   1.000  C
  F1       1.0000 0.24710  0.72180  0.11830  Biso   1.000  F
  F2       1.0000 0.75290  0.27820  0.88170  Biso   1.000  F
  F3       1.0000 0.25160  0.70010  0.98180  Biso   1.000  F
  F4       1.0000 0.74840  0.29990  0.01820  Biso   1.000  F
  F5       1.0000 0.41700  0.74595  0.98170  Biso   1.000  F
  F6       1.0000 0.58300  0.25405  0.01830  Biso   1.000  F
  F7       1.0000 0.22180  0.71380  0.13450  Biso   1.000  F
  F8       1.0000 0.77820  0.28620  0.86550  Biso   1.000  F
  F9       1.0000 0.23270  0.69540  0.96860  Biso   1.000  F
  F10      1.0000 0.76730  0.30460  0.03140  Biso   1.000  F
  C3       1.0000 0.23390  0.86830  0.99520  Biso   1.000  C
  C4       1.0000 0.76610  0.13170  0.00480  Biso   1.000  C
  C5       1.0000 0.32900  0.94450  0.94090  Biso   1.000  C
  C6       1.0000 0.67100  0.05550  0.05910  Biso   1.000  C
  H1       1.0000 0.42320  0.92580  0.91990  Biso   1.000  H
  H2       1.0000 0.57680  0.07420  0.08010  Biso   1.000  H
  C7       1.0000 0.29350  0.04850  0.91530  Biso   1.000  C
  C8       1.0000 0.70650  0.95150  0.08470  Biso   1.000  C
  C9       1.0000 0.40630  0.12690  0.85100  Biso   1.000  C
  C10      1.0000 0.59370  0.87310  0.14900  Biso   1.000  C
  F11      1.0000 0.39000  0.18030  0.75850  Biso   1.000  F
  F12      1.0000 0.61000  0.81970  0.24150  Biso   1.000  F
  F13      1.0000 0.53150  0.09030  0.82240  Biso   1.000  F
  F14      1.0000 0.46850  0.90970  0.17760  Biso   1.000  F
  F15      1.0000 0.40310  0.20080  0.88110  Biso   1.000  F
  F16      1.0000 0.59690  0.79920  0.11890  Biso   1.000  F
  F17      1.0000 0.44360  0.13790  0.74870  Biso   1.000  F
  F18      1.0000 0.55640  0.86210  0.25130  Biso   1.000  F
  F19      1.0000 0.51150  0.09990  0.87230  Biso   1.000  F
  F20      1.0000 0.48850  0.90010  0.12770  Biso   1.000  F
  F21      1.0000 0.36750  0.21510  0.90170  Biso   1.000  F
  F22      1.0000 0.63250  0.78490  0.09830  Biso   1.000  F
  O3       1.0000 0.17660  0.08764  0.93940  Biso   1.000  O
  O4       1.0000 0.82340  0.91236  0.06060  Biso   1.000  O
  Cu2      1.0000 0.00000  0.50000  0.50000  Biso   1.000  Cu
  O5       1.0000 0.15410  0.56110  0.50040  Biso   1.000  O
  O6       1.0000 0.84590  0.43890  0.49960  Biso   1.000  O
  C11      1.0000 0.36630  0.63040  0.44320  Biso   1.000  C
  C12      1.0000 0.63370  0.36960  0.55680  Biso   1.000  C
  F23      1.0000 0.49350  0.62790  0.38240  Biso   1.000  F
  F24      1.0000 0.50650  0.37210  0.61760  Biso   1.000  F
  F25      1.0000 0.35550  0.60080  0.55080  Biso   1.000  F
  F26      1.0000 0.64450  0.39920  0.44920  Biso   1.000  F
  F27      1.0000 0.32660  0.72694  0.44700  Biso   1.000  F
  F28      1.0000 0.67340  0.27306  0.55300  Biso   1.000  F
  F29      1.0000 0.38710  0.57430  0.52680  Biso   1.000  F
  F30      1.0000 0.61290  0.42570  0.47320  Biso   1.000  F
  F31      1.0000 0.49240  0.63580  0.35350  Biso   1.000  F
  F32      1.0000 0.50760  0.36420  0.64650  Biso   1.000  F
  C13      1.0000 0.26950  0.57290  0.42120  Biso   1.000  C
  C14      1.0000 0.73050  0.42710  0.57880  Biso   1.000  C
  C15      1.0000 0.31410  0.54170  0.32200  Biso   1.000  C
  C16      1.0000 0.68590  0.45830  0.67800  Biso   1.000  C
  H3       1.0000 0.40360  0.55970  0.26710  Biso   1.000  H
  H4       1.0000 0.59640  0.44030  0.73290  Biso   1.000  H
  C17      1.0000 0.23230  0.48490  0.29940  Biso   1.000  C
  C18      1.0000 0.76770  0.51510  0.70060  Biso   1.000  C
  C19      1.0000 0.29030  0.45210  0.18840  Biso   1.000  C
  C20      1.0000 0.70970  0.54790  0.81160  Biso   1.000  C
  F33      1.0000 0.35490  0.35390  0.21250  Biso   1.000  F
  F34      1.0000 0.64510  0.64610  0.78750  Biso   1.000  F
  F35      1.0000 0.39500  0.50570  0.11290  Biso   1.000  F
  F36      1.0000 0.60500  0.49430  0.88710  Biso   1.000  F
  F37      1.0000 0.20690  0.43350  0.16080  Biso   1.000  F
  F38      1.0000 0.79310  0.56650  0.83920  Biso   1.000  F
  F39      1.0000 0.19470  0.48480  0.13320  Biso   1.000  F
  F40      1.0000 0.80530  0.51520  0.86680  Biso   1.000  F
  F41      1.0000 0.30180  0.35560  0.18700  Biso   1.000  F
  F42      1.0000 0.69820  0.64440  0.81300  Biso   1.000  F
  O7       1.0000 0.11280  0.45437  0.36110  Biso   1.000  O
  O8       1.0000 0.88720  0.54563  0.63890  Biso   1.000  O
  O9       1.0000 0.91320  0.01800  0.17190  Biso   1.000  O
  O10      1.0000 0.08680  0.98200  0.82810  Biso   1.000  O
  N1       1.0000 0.98570  0.02740  0.22550  Biso   1.000  N
  N2       1.0000 0.01430  0.97260  0.77450  Biso   1.000  N
  C21      1.0000 0.00530  0.13080  0.24290  Biso   1.000  C
  C22      1.0000 0.99470  0.86920  0.75710  Biso   1.000  C
  C23      1.0000 0.03830  0.21370  0.13750  Biso   1.000  C
  C24      1.0000 0.96170  0.78630  0.86250  Biso   1.000  C
  H5       1.0000 0.95830  0.22650  0.11880  Biso   1.000  H
  H6       1.0000 0.04170  0.77350  0.88120  Biso   1.000  H
  H7       1.0000 0.11590  0.19020  0.07640  Biso   1.000  H
  H8       1.0000 0.88410  0.80980  0.92360  Biso   1.000  H
  H9       1.0000 0.06210  0.27830  0.14900  Biso   1.000  H
  H10      1.0000 0.93790  0.72170  0.85100  Biso   1.000  H
  C25      1.0000 0.87050  0.15720  0.33440  Biso   1.000  C
  C26      1.0000 0.12950  0.84280  0.66560  Biso   1.000  C
  H11      1.0000 0.80000  0.17450  0.30450  Biso   1.000  H
  H12      1.0000 0.20000  0.82550  0.69550  Biso   1.000  H
  H13      1.0000 0.88350  0.21700  0.36020  Biso   1.000  H
  H14      1.0000 0.11650  0.78300  0.63980  Biso   1.000  H
  H15      1.0000 0.84140  0.09700  0.39690  Biso   1.000  H
  H16      1.0000 0.15860  0.90300  0.60310  Biso   1.000  H
  C27      1.0000 0.12240  0.10260  0.28250  Biso   1.000  C
  C28      1.0000 0.87760  0.89740  0.71750  Biso   1.000  C
  C29      1.0000 0.26460  0.11060  0.18860  Biso   1.000  C
  C30      1.0000 0.73540  0.88940  0.81140  Biso   1.000  C
  H17      1.0000 0.33340  0.09160  0.22000  Biso   1.000  H
  H18      1.0000 0.66660  0.90840  0.78000  Biso   1.000  H
  H19      1.0000 0.27950  0.18230  0.14500  Biso   1.000  H
  H20      1.0000 0.72050  0.81770  0.85500  Biso   1.000  H
  H21      1.0000 0.27270  0.06320  0.14020  Biso   1.000  H
  H22      1.0000 0.72730  0.93680  0.85980  Biso   1.000  H
  C31      1.0000 0.11540  0.15610  0.37150  Biso   1.000  C
  C32      1.0000 0.88460  0.84390  0.62850  Biso   1.000  C
  H23      1.0000 0.19350  0.13340  0.39140  Biso   1.000  H
  H24      1.0000 0.80650  0.86660  0.60860  Biso   1.000  H
  H25      1.0000 0.02980  0.13800  0.43760  Biso   1.000  H
  H26      1.0000 0.97020  0.86200  0.56240  Biso   1.000  H
  H27      1.0000 0.11830  0.23180  0.34360  Biso   1.000  H
  H28      1.0000 0.88170  0.76820  0.65640  Biso   1.000  H
  N3       1.0000 0.09880  0.98870  0.32970  Biso   1.000  N
  N4       1.0000 0.90120  0.01130  0.67030  Biso   1.000  N
  O11      1.0000 0.15490  0.93597  0.39190  Biso   1.000  O
  O12      1.0000 0.84510  0.06403  0.60810  Biso   1.000  O
  C33      1.0000 0.02580  0.94900  0.28790  Biso   1.000  C
  C34      1.0000 0.97420  0.05100  0.71210  Biso   1.000  C
  C35      1.0000 0.99510  0.84180  0.31020  Biso   1.000  C
  C36      1.0000 0.00490  0.15820  0.68980  Biso   1.000  C
  C37      1.0000 0.03080  0.75650  0.37730  Biso   1.000  C
  C38      1.0000 0.96920  0.24350  0.62270  Biso   1.000  C
  H29      1.0000 0.08480  0.76120  0.41660  Biso   1.000  H
  H30      1.0000 0.91520  0.23880  0.58340  Biso   1.000  H
  N5       1.0000 0.98130  0.66920  0.37970  Biso   1.000  N
  N6       1.0000 0.01870  0.33080  0.62030  Biso   1.000  N
  N7       1.0000 0.91390  0.69700  0.31110  Biso   1.000  N
  N8       1.0000 0.08610  0.30300  0.68890  Biso   1.000  N
  C39      1.0000 0.84810  0.61870  0.29020  Biso   1.000  C
  C40      1.0000 0.15190  0.38130  0.70980  Biso   1.000  C
  H31      1.0000 0.86910  0.54900  0.32740  Biso   1.000  H
  H32      1.0000 0.13090  0.45100  0.67260  Biso   1.000  H
  H33      1.0000 0.74760  0.62980  0.32470  Biso   1.000  H
  H34      1.0000 0.25240  0.37020  0.67530  Biso   1.000  H
  C41      1.0000 0.88860  0.61930  0.17500  Biso   1.000  C
  C42      1.0000 0.11140  0.38070  0.82500  Biso   1.000  C
  H35      1.0000 0.98910  0.62690  0.13460  Biso   1.000  H
  H36      1.0000 0.01090  0.37310  0.86540  Biso   1.000  H
  H37      1.0000 0.84400  0.67860  0.14120  Biso   1.000  H
  H38      1.0000 0.15600  0.32140  0.85880  Biso   1.000  H
  C43      1.0000 0.84060  0.50530  0.16580  Biso   1.000  C
  C44      1.0000 0.15940  0.49470  0.83420  Biso   1.000  C
  H39      1.0000 0.91760  0.46870  0.11510  Biso   1.000  H
  H40      1.0000 0.08240  0.53130  0.88490  Biso   1.000  H
  H41      1.0000 0.79740  0.45830  0.23960  Biso   1.000  H
  H42      1.0000 0.20260  0.54170  0.76040  Biso   1.000  H
  C45      1.0000 0.75910  0.54170  0.12680  Biso   1.000  C
  C46      1.0000 0.24090  0.45830  0.87320  Biso   1.000  C
  H43      1.0000 0.71810  0.48550  0.11480  Biso   1.000  H
  H44      1.0000 0.28190  0.51450  0.88520  Biso   1.000  H
  H45      1.0000 0.80570  0.58970  0.05540  Biso   1.000  H
  H46      1.0000 0.19430  0.41030  0.94460  Biso   1.000  H
  H47      1.0000 0.68700  0.57960  0.17830  Biso   1.000  H
  H48      1.0000 0.31300  0.42040  0.82170  Biso   1.000  H
  C47      1.0000 0.91920  0.79810  0.26960  Biso   1.000  C
  C48      1.0000 0.08080  0.20190  0.73040  Biso   1.000  C
  H49      1.0000 0.87850  0.83460  0.22080  Biso   1.000  H
  H50      1.0000 0.12150  0.16540  0.77920  Biso   1.000  H
  C49      1.0000 0.46800  0.22410  0.34540  Biso   1.000  C
  C50      1.0000 0.53200  0.77590  0.65460  Biso   1.000  C
  C51      1.0000 0.38610  0.25840  0.46360  Biso   1.000  C
  C52      1.0000 0.61390  0.74160  0.53640  Biso   1.000  C
  C53      1.0000 0.48500  0.10850  0.39700  Biso   1.000  C
  C54      1.0000 0.51500  0.89150  0.60300  Biso   1.000  C
  C55      1.0000 0.46000  0.05800  0.51800  Biso   1.000  C
  C56      1.0000 0.54000  0.94200  0.48200  Biso   1.000  C
  C57      1.0000 0.51440  0.05650  0.49760  Biso   1.000  C
  C58      1.0000 0.48560  0.94350  0.50240  Biso   1.000  C
  C59      1.0000 0.37100  0.08670  0.51280  Biso   1.000  C
  C60      1.0000 0.62900  0.91330  0.48720  Biso   1.000  C
  C61      1.0000 0.60200  0.79320  0.53700  Biso   1.000  C
  C62      1.0000 0.39800  0.20680  0.46300  Biso   1.000  C
  C63      1.0000 0.49450  0.73060  0.65570  Biso   1.000  C
  C64      1.0000 0.50550  0.26940  0.34430  Biso   1.000  C
