data_image0
_cell_length_a       10.588
_cell_length_b       13.254
_cell_length_c       13.525
_cell_angle_alpha    98.771
_cell_angle_beta     111.422
_cell_angle_gamma    97.103

_symmetry_space_group_name_H-M    "P 1"
_symmetry_int_tables_number       1

loop_
  _symmetry_equiv_pos_as_xyz
  'x, y, z'

loop_
  _atom_site_label
  _atom_site_occupancy
  _atom_site_fract_x
  _atom_site_fract_y
  _atom_site_fract_z
  _atom_site_thermal_displace_type
  _atom_site_B_iso_or_equiv
  _atom_site_type_symbol
  Cu1      1.0000 0.00000  0.00000  0.00000  Biso   1.000  Cu
  O1       1.0000 0.13354  0.12832  0.02831  Biso   1.000  O
  O2       1.0000 0.86646  0.87168  0.97169  Biso   1.000  O
  C1       1.0000 0.30850  0.24870  0.02030  Biso   1.000  C
  C2       1.0000 0.69150  0.75130  0.97970  Biso   1.000  C
  F1       1.0000 0.36520  0.29100  0.13340  Biso   1.000  F
  F2       1.0000 0.63480  0.70900  0.86660  Biso   1.000  F
  F3       1.0000 0.22160  0.30770  0.96430  Biso   1.000  F
  F4       1.0000 0.77840  0.69230  0.03570  Biso   1.000  F
  F5       1.0000 0.41390  0.25370  0.99250  Biso   1.000  F
  F6       1.0000 0.58610  0.74630  0.00750  Biso   1.000  F
  F7       1.0000 0.35950  0.28650  0.11340  Biso   1.000  F
  F8       1.0000 0.64050  0.71350  0.88660  Biso   1.000  F
  F9       1.0000 0.22610  0.30700  0.98470  Biso   1.000  F
  F10      1.0000 0.77390  0.69300  0.01530  Biso   1.000  F
  F11      1.0000 0.40190  0.26180  0.97620  Biso   1.000  F
  F12      1.0000 0.59810  0.73820  0.02380  Biso   1.000  F
  C3       1.0000 0.23110  0.13600  0.99670  Biso   1.000  C
  C4       1.0000 0.76890  0.86400  0.00330  Biso   1.000  C
  C5       1.0000 0.27490  0.05790  0.94520  Biso   1.000  C
  C6       1.0000 0.72510  0.94210  0.05480  Biso   1.000  C
  H1       1.0000 0.35010  0.07540  0.92440  Biso   1.000  H
  H2       1.0000 0.64990  0.92460  0.07560  Biso   1.000  H
  C7       1.0000 0.21150  0.95480  0.92330  Biso   1.000  C
  C8       1.0000 0.78850  0.04520  0.07670  Biso   1.000  C
  C9       1.0000 0.26390  0.87270  0.86340  Biso   1.000  C
  C10      1.0000 0.73610  0.12730  0.13660  Biso   1.000  C
  F13      1.0000 0.26430  0.78710  0.89430  Biso   1.000  F
  F14      1.0000 0.73570  0.21290  0.10570  Biso   1.000  F
  F15      1.0000 0.39560  0.90600  0.88180  Biso   1.000  F
  F16      1.0000 0.60440  0.09400  0.11820  Biso   1.000  F
  F17      1.0000 0.19730  0.85230  0.76570  Biso   1.000  F
  F18      1.0000 0.80270  0.14770  0.23430  Biso   1.000  F
  F19      1.0000 0.29970  0.80160  0.92260  Biso   1.000  F
  F20      1.0000 0.70030  0.19840  0.07740  Biso   1.000  F
  F21      1.0000 0.36130  0.90660  0.83320  Biso   1.000  F
  F22      1.0000 0.63870  0.09340  0.16680  Biso   1.000  F
  F23      1.0000 0.15960  0.82210  0.77020  Biso   1.000  F
  F24      1.0000 0.84040  0.17790  0.22980  Biso   1.000  F
  O3       1.0000 0.11332  0.91638  0.94517  Biso   1.000  O
  O4       1.0000 0.88668  0.08362  0.05483  Biso   1.000  O
  Cu2      1.0000 0.50000  0.50000  0.50000  Biso   1.000  Cu
  O5       1.0000 0.48740  0.55124  0.36682  Biso   1.000  O
  O6       1.0000 0.51260  0.44876  0.63318  Biso   1.000  O
  C11      1.0000 0.51630  0.56370  0.20520  Biso   1.000  C
  C12      1.0000 0.48370  0.43630  0.79480  Biso   1.000  C
  F25      1.0000 0.37700  0.55020  0.16140  Biso   1.000  F
  F26      1.0000 0.62300  0.44980  0.83860  Biso   1.000  F
  F27      1.0000 0.56450  0.65450  0.21630  Biso   1.000  F
  F28      1.0000 0.43550  0.34550  0.78370  Biso   1.000  F
  F29      1.0000 0.53850  0.51300  0.13340  Biso   1.000  F
  F30      1.0000 0.46150  0.48700  0.86660  Biso   1.000  F
  F31      1.0000 0.60730  0.65450  0.22300  Biso   1.000  F
  F32      1.0000 0.39270  0.34550  0.77700  Biso   1.000  F
  F33      1.0000 0.39510  0.59170  0.17040  Biso   1.000  F
  F34      1.0000 0.60490  0.40830  0.82960  Biso   1.000  F
  F35      1.0000 0.53070  0.49340  0.12320  Biso   1.000  F
  F36      1.0000 0.46930  0.50660  0.87680  Biso   1.000  F
  C13      1.0000 0.55410  0.52440  0.31080  Biso   1.000  C
  C14      1.0000 0.44590  0.47560  0.68920  Biso   1.000  C
  C15      1.0000 0.65810  0.46660  0.33390  Biso   1.000  C
  C16      1.0000 0.34190  0.53340  0.66610  Biso   1.000  C
  H3       1.0000 0.69930  0.45150  0.28310  Biso   1.000  H
  H4       1.0000 0.30070  0.54850  0.71690  Biso   1.000  H
  C17      1.0000 0.70330  0.43048  0.42980  Biso   1.000  C
  C18      1.0000 0.29670  0.56952  0.57020  Biso   1.000  C
  C19      1.0000 0.82060  0.36940  0.45130  Biso   1.000  C
  C20      1.0000 0.17940  0.63060  0.54870  Biso   1.000  C
  F37      1.0000 0.87200  0.36430  0.37300  Biso   1.000  F
  F38      1.0000 0.12800  0.63570  0.62700  Biso   1.000  F
  F39      1.0000 0.78200  0.27450  0.46000  Biso   1.000  F
  F40      1.0000 0.21800  0.72550  0.54000  Biso   1.000  F
  F41      1.0000 0.92700  0.41490  0.54540  Biso   1.000  F
  F42      1.0000 0.07300  0.58510  0.45460  Biso   1.000  F
  F43      1.0000 0.91010  0.39970  0.55040  Biso   1.000  F
  F44      1.0000 0.08990  0.60030  0.44960  Biso   1.000  F
  F45      1.0000 0.76800  0.26970  0.43600  Biso   1.000  F
  F46      1.0000 0.23200  0.73030  0.56400  Biso   1.000  F
  F47      1.0000 0.88800  0.37650  0.39000  Biso   1.000  F
  F48      1.0000 0.11200  0.62350  0.61000  Biso   1.000  F
  O7       1.0000 0.65863  0.43899  0.50400  Biso   1.000  O
  O8       1.0000 0.34137  0.56101  0.49600  Biso   1.000  O
  O9       1.0000 0.08597  0.98139  0.17837  Biso   1.000  O
  O10      1.0000 0.91403  0.01861  0.82163  Biso   1.000  O
  N1       1.0000 0.21290  0.97209  0.23103  Biso   1.000  N
  N2       1.0000 0.78710  0.02791  0.76897  Biso   1.000  N
  C21      1.0000 0.24990  0.86896  0.24810  Biso   1.000  C
  C22      1.0000 0.75010  0.13104  0.75190  Biso   1.000  C
  C23      1.0000 0.20150  0.84160  0.33620  Biso   1.000  C
  C24      1.0000 0.79850  0.15840  0.66380  Biso   1.000  C
  H5       1.0000 0.10020  0.82400  0.30620  Biso   1.000  H
  H6       1.0000 0.89980  0.17600  0.69380  Biso   1.000  H
  H7       1.0000 0.23400  0.90140  0.39760  Biso   1.000  H
  H8       1.0000 0.76600  0.09860  0.60240  Biso   1.000  H
  H9       1.0000 0.23930  0.78190  0.36100  Biso   1.000  H
  H10      1.0000 0.76070  0.21810  0.63900  Biso   1.000  H
  C25      1.0000 0.17770  0.78620  0.14380  Biso   1.000  C
  C26      1.0000 0.82230  0.21380  0.85620  Biso   1.000  C
  H11      1.0000 0.07780  0.77320  0.12540  Biso   1.000  H
  H12      1.0000 0.92220  0.22680  0.87460  Biso   1.000  H
  H13      1.0000 0.21230  0.72170  0.15410  Biso   1.000  H
  H14      1.0000 0.78770  0.27830  0.84590  Biso   1.000  H
  H15      1.0000 0.19650  0.81040  0.08460  Biso   1.000  H
  H16      1.0000 0.80350  0.18960  0.91540  Biso   1.000  H
  C27      1.0000 0.40950  0.89780  0.28760  Biso   1.000  C
  C28      1.0000 0.59050  0.10220  0.71240  Biso   1.000  C
  C29      1.0000 0.49060  0.84510  0.37570  Biso   1.000  C
  C30      1.0000 0.50940  0.15490  0.62430  Biso   1.000  C
  H17      1.0000 0.58990  0.86820  0.39530  Biso   1.000  H
  H18      1.0000 0.41010  0.13180  0.60470  Biso   1.000  H
  H19      1.0000 0.46550  0.76940  0.34880  Biso   1.000  H
  H20      1.0000 0.53450  0.23060  0.65120  Biso   1.000  H
  H21      1.0000 0.46890  0.86350  0.43980  Biso   1.000  H
  H22      1.0000 0.53110  0.13650  0.56020  Biso   1.000  H
  C31      1.0000 0.46120  0.88870  0.19610  Biso   1.000  C
  C32      1.0000 0.53880  0.11130  0.80390  Biso   1.000  C
  H23      1.0000 0.56230  0.90810  0.22680  Biso   1.000  H
  H24      1.0000 0.43770  0.09190  0.77320  Biso   1.000  H
  H25      1.0000 0.42200  0.93530  0.14830  Biso   1.000  H
  H26      1.0000 0.57800  0.06470  0.85170  Biso   1.000  H
  H27      1.0000 0.43240  0.81670  0.15410  Biso   1.000  H
  H28      1.0000 0.56760  0.18330  0.84590  Biso   1.000  H
  N3       1.0000 0.43380  0.01218  0.33366  Biso   1.000  N
  N4       1.0000 0.56620  0.98782  0.66634  Biso   1.000  N
  O11      1.0000 0.55340  0.06585  0.39273  Biso   1.000  O
  O12      1.0000 0.44660  0.93415  0.60727  Biso   1.000  O
  C33      1.0000 0.31720  0.05180  0.29130  Biso   1.000  C
  C34      1.0000 0.68280  0.94820  0.70870  Biso   1.000  C
  C35      1.0000 0.30850  0.15913  0.31070  Biso   1.000  C
  C36      1.0000 0.69150  0.84087  0.68930  Biso   1.000  C
  C37      1.0000 0.41250  0.24487  0.37770  Biso   1.000  C
  C38      1.0000 0.58750  0.75513  0.62230  Biso   1.000  C
  H29      1.0000 0.50570  0.24070  0.41790  Biso   1.000  H
  H30      1.0000 0.49430  0.75930  0.58210  Biso   1.000  H
  N5       1.0000 0.36380  0.33267  0.37747  Biso   1.000  N
  N6       1.0000 0.63620  0.66733  0.62253  Biso   1.000  N
  N7       1.0000 0.22780  0.30384  0.30912  Biso   1.000  N
  N8       1.0000 0.77220  0.69616  0.69088  Biso   1.000  N
  C39      1.0000 0.13980  0.38130  0.28710  Biso   1.000  C
  C40      1.0000 0.86020  0.61870  0.71290  Biso   1.000  C
  H31      1.0000 0.06300  0.36350  0.31050  Biso   1.000  H
  H32      1.0000 0.93700  0.63650  0.68950  Biso   1.000  H
  H33      1.0000 0.19480  0.44990  0.33240  Biso   1.000  H
  H34      1.0000 0.80520  0.55010  0.66760  Biso   1.000  H
  C41      1.0000 0.08280  0.39090  0.17770  Biso   1.000  C
  C42      1.0000 0.91720  0.60910  0.82230  Biso   1.000  C
  H35      1.0000 0.01470  0.32680  0.13310  Biso   1.000  H
  H36      1.0000 0.98530  0.67320  0.86690  Biso   1.000  H
  H37      1.0000 0.15710  0.39900  0.14990  Biso   1.000  H
  H38      1.0000 0.84290  0.60100  0.85010  Biso   1.000  H
  C43      1.0000 0.00920  0.48810  0.16680  Biso   1.000  C
  C44      1.0000 0.99080  0.51190  0.83320  Biso   1.000  C
  H39      1.0000 0.02930  0.52940  0.24020  Biso   1.000  H
  H40      1.0000 0.97070  0.47060  0.75980  Biso   1.000  H
  H41      1.0000 0.04630  0.53310  0.12770  Biso   1.000  H
  H42      1.0000 0.95370  0.46690  0.87230  Biso   1.000  H
  C45      1.0000 0.88100  0.45930  0.11630  Biso   1.000  C
  C46      1.0000 0.11900  0.54070  0.88370  Biso   1.000  C
  H43      1.0000 0.83750  0.52050  0.11050  Biso   1.000  H
  H44      1.0000 0.16250  0.47950  0.88950  Biso   1.000  H
  H45      1.0000 0.84410  0.41560  0.15560  Biso   1.000  H
  H46      1.0000 0.15590  0.58440  0.84440  Biso   1.000  H
  H47      1.0000 0.86100  0.41940  0.04330  Biso   1.000  H
  H48      1.0000 0.13900  0.58060  0.95670  Biso   1.000  H
  C47      1.0000 0.19150  0.20170  0.26870  Biso   1.000  C
  C48      1.0000 0.80850  0.79830  0.73130  Biso   1.000  C
  H49      1.0000 0.10210  0.16470  0.22000  Biso   1.000  H
  H50      1.0000 0.89790  0.83530  0.78000  Biso   1.000  H
  Cl1      1.0000 0.84600  0.75600  0.47570  Biso   1.000  Cl
  Cl2      1.0000 0.15400  0.24400  0.52430  Biso   1.000  Cl
  C49      1.0000 0.91000  0.88910  0.52600  Biso   1.000  C
  C50      1.0000 0.09000  0.11090  0.47400  Biso   1.000  C
  H51      1.0000 0.98540  0.89690  0.59470  Biso   1.000  H
  H52      1.0000 0.01460  0.10310  0.40530  Biso   1.000  H
  H53      1.0000 0.83970  0.92190  0.53860  Biso   1.000  H
  H54      1.0000 0.16030  0.07810  0.46140  Biso   1.000  H
  C51      1.0000 0.96500  0.94400  0.45600  Biso   1.000  C
  C52      1.0000 0.03500  0.05600  0.54400  Biso   1.000  C
  H55      1.0000 0.88820  0.95380  0.39550  Biso   1.000  H
  H56      1.0000 0.11180  0.04620  0.60450  Biso   1.000  H
  H57      1.0000 0.01700  0.90130  0.42730  Biso   1.000  H
  H58      1.0000 0.98300  0.09870  0.57270  Biso   1.000  H
  C53      1.0000 0.94560  0.95200  0.47420  Biso   1.000  C
  C54      1.0000 0.05440  0.04800  0.52580  Biso   1.000  C
  H59      1.0000 0.85060  0.95800  0.45500  Biso   1.000  H
  H60      1.0000 0.14940  0.04200  0.54500  Biso   1.000  H
  H61      1.0000 0.03970  0.06370  0.59200  Biso   1.000  H
  H62      1.0000 0.96030  0.93630  0.40800  Biso   1.000  H
  C55      1.0000 0.96810  0.86440  0.53050  Biso   1.000  C
  C56      1.0000 0.03190  0.13560  0.46950  Biso   1.000  C
  H63      1.0000 0.06260  0.85580  0.55530  Biso   1.000  H
  H64      1.0000 0.93740  0.14420  0.44470  Biso   1.000  H
  H65      1.0000 0.06370  0.13250  0.41130  Biso   1.000  H
  H66      1.0000 0.93630  0.86750  0.58870  Biso   1.000  H
  C57      1.0000 0.87100  0.78200  0.42500  Biso   1.000  C
  C58      1.0000 0.12900  0.21800  0.57500  Biso   1.000  C
  H67      1.0000 0.13120  0.28610  0.55990  Biso   1.000  H
  H68      1.0000 0.86880  0.71390  0.44010  Biso   1.000  H
  H69      1.0000 0.90510  0.78560  0.36830  Biso   1.000  H
  H70      1.0000 0.09490  0.21440  0.63170  Biso   1.000  H
  H71      1.0000 0.22040  0.20280  0.59850  Biso   1.000  H
  H72      1.0000 0.77960  0.79720  0.40150  Biso   1.000  H
