data_image0
_cell_length_a       11.0316
_cell_length_b       13.4209
_cell_length_c       13.5146
_cell_angle_alpha    98.304
_cell_angle_beta     111.825
_cell_angle_gamma    96.834

_symmetry_space_group_name_H-M    "P 1"
_symmetry_int_tables_number       1

loop_
  _symmetry_equiv_pos_as_xyz
  'x, y, z'

loop_
  _atom_site_label
  _atom_site_occupancy
  _atom_site_fract_x
  _atom_site_fract_y
  _atom_site_fract_z
  _atom_site_thermal_displace_type
  _atom_site_B_iso_or_equiv
  _atom_site_type_symbol
  Cu1      1.0000 0.00000  0.00000  0.00000  Biso   1.000  Cu
  O1       1.0000 0.10520  0.91908  0.94100  Biso   1.000  O
  O2       1.0000 0.89480  0.08092  0.05900  Biso   1.000  O
  C1       1.0000 0.25000  0.87900  0.85730  Biso   1.000  C
  C2       1.0000 0.75000  0.12100  0.14270  Biso   1.000  C
  F1       1.0000 0.14180  0.82180  0.76890  Biso   1.000  F
  F2       1.0000 0.85820  0.17820  0.23110  Biso   1.000  F
  F3       1.0000 0.33300  0.91110  0.82140  Biso   1.000  F
  F4       1.0000 0.66700  0.08890  0.17860  Biso   1.000  F
  F5       1.0000 0.26090  0.78730  0.90750  Biso   1.000  F
  F6       1.0000 0.73910  0.21270  0.09250  Biso   1.000  F
  F7       1.0000 0.26200  0.81290  0.88400  Biso   1.000  F
  F8       1.0000 0.73800  0.18710  0.11600  Biso   1.000  F
  F9       1.0000 0.20700  0.87840  0.75890  Biso   1.000  F
  F10      1.0000 0.79300  0.12160  0.24110  Biso   1.000  F
  F11      1.0000 0.38360  0.90170  0.89840  Biso   1.000  F
  F12      1.0000 0.61640  0.09830  0.10160  Biso   1.000  F
  C3       1.0000 0.19840  0.95760  0.91880  Biso   1.000  C
  C4       1.0000 0.80160  0.04240  0.08120  Biso   1.000  C
  C5       1.0000 0.25810  0.05860  0.94120  Biso   1.000  C
  C6       1.0000 0.74190  0.94140  0.05880  Biso   1.000  C
  H1       1.0000 0.32850  0.07560  0.92090  Biso   1.000  H
  H2       1.0000 0.67150  0.92440  0.07910  Biso   1.000  H
  C7       1.0000 0.21730  0.13570  0.99270  Biso   1.000  C
  C8       1.0000 0.78270  0.86430  0.00730  Biso   1.000  C
  C9       1.0000 0.29310  0.24570  0.01830  Biso   1.000  C
  C10      1.0000 0.70690  0.75430  0.98170  Biso   1.000  C
  F13      1.0000 0.20920  0.30910  0.98760  Biso   1.000  F
  F14      1.0000 0.79080  0.69090  0.01240  Biso   1.000  F
  F15      1.0000 0.36800  0.27490  0.11980  Biso   1.000  F
  F16      1.0000 0.63200  0.72510  0.88020  Biso   1.000  F
  F17      1.0000 0.37100  0.25000  0.99300  Biso   1.000  F
  F18      1.0000 0.62900  0.75000  0.00700  Biso   1.000  F
  F19      1.0000 0.21900  0.29120  0.94300  Biso   1.000  F
  F20      1.0000 0.78100  0.70880  0.05700  Biso   1.000  F
  F21      1.0000 0.30800  0.29730  0.10460  Biso   1.000  F
  F22      1.0000 0.69200  0.70270  0.89540  Biso   1.000  F
  F23      1.0000 0.39240  0.26080  0.97430  Biso   1.000  F
  F24      1.0000 0.60760  0.73920  0.02570  Biso   1.000  F
  O3       1.0000 0.12460  0.12703  0.02510  Biso   1.000  O
  O4       1.0000 0.87540  0.87297  0.97490  Biso   1.000  O
  Cu2      1.0000 0.50000  0.50000  0.50000  Biso   1.000  Cu
  O5       1.0000 0.64780  0.43698  0.49670  Biso   1.000  O
  O6       1.0000 0.35220  0.56302  0.50330  Biso   1.000  O
  C11      1.0000 0.79850  0.36820  0.43790  Biso   1.000  C
  C12      1.0000 0.20150  0.63180  0.56210  Biso   1.000  C
  F25      1.0000 0.84400  0.36230  0.36410  Biso   1.000  F
  F26      1.0000 0.15600  0.63770  0.63590  Biso   1.000  F
  F27      1.0000 0.87920  0.38280  0.53920  Biso   1.000  F
  F28      1.0000 0.12080  0.61720  0.46080  Biso   1.000  F
  F29      1.0000 0.76310  0.27610  0.44280  Biso   1.000  F
  F30      1.0000 0.23690  0.72390  0.55720  Biso   1.000  F
  F31      1.0000 0.90540  0.42520  0.50130  Biso   1.000  F
  F32      1.0000 0.09460  0.57480  0.49870  Biso   1.000  F
  C13      1.0000 0.68320  0.42690  0.41840  Biso   1.000  C
  C14      1.0000 0.31680  0.57310  0.58160  Biso   1.000  C
  C15      1.0000 0.63280  0.46190  0.32300  Biso   1.000  C
  C16      1.0000 0.36720  0.53810  0.67700  Biso   1.000  C
  H3       1.0000 0.66690  0.44650  0.27040  Biso   1.000  H
  H4       1.0000 0.33310  0.55350  0.72960  Biso   1.000  H
  C17      1.0000 0.53280  0.51940  0.30270  Biso   1.000  C
  C18      1.0000 0.46720  0.48060  0.69730  Biso   1.000  C
  C19      1.0000 0.48500  0.55530  0.19430  Biso   1.000  C
  C20      1.0000 0.51500  0.44470  0.80570  Biso   1.000  C
  F33      1.0000 0.48150  0.49310  0.11400  Biso   1.000  F
  F34      1.0000 0.51850  0.50690  0.88600  Biso   1.000  F
  F35      1.0000 0.55600  0.63710  0.20200  Biso   1.000  F
  F36      1.0000 0.44400  0.36290  0.79800  Biso   1.000  F
  F37      1.0000 0.37100  0.58300  0.16440  Biso   1.000  F
  F38      1.0000 0.62900  0.41700  0.83560  Biso   1.000  F
  F39      1.0000 0.54500  0.52020  0.13220  Biso   1.000  F
  F40      1.0000 0.45500  0.47980  0.86780  Biso   1.000  F
  F41      1.0000 0.52400  0.65560  0.21000  Biso   1.000  F
  F42      1.0000 0.47600  0.34440  0.79000  Biso   1.000  F
  F43      1.0000 0.35460  0.52880  0.14860  Biso   1.000  F
  F44      1.0000 0.64540  0.47120  0.85140  Biso   1.000  F
  O7       1.0000 0.47610  0.54690  0.36350  Biso   1.000  O
  O8       1.0000 0.52390  0.45310  0.63650  Biso   1.000  O
  O9       1.0000 0.09590  0.98350  0.18200  Biso   1.000  O
  O10      1.0000 0.90410  0.01650  0.81800  Biso   1.000  O
  N1       1.0000 0.21940  0.97550  0.23300  Biso   1.000  N
  N2       1.0000 0.78060  0.02450  0.76700  Biso   1.000  N
  C21      1.0000 0.26020  0.87460  0.24930  Biso   1.000  C
  C22      1.0000 0.73980  0.12540  0.75070  Biso   1.000  C
  C23      1.0000 0.21750  0.84510  0.33830  Biso   1.000  C
  C24      1.0000 0.78250  0.15490  0.66170  Biso   1.000  C
  H5       1.0000 0.12220  0.83050  0.31110  Biso   1.000  H
  H6       1.0000 0.87780  0.16950  0.68890  Biso   1.000  H
  H7       1.0000 0.25180  0.90090  0.40030  Biso   1.000  H
  H8       1.0000 0.74820  0.09910  0.59970  Biso   1.000  H
  H9       1.0000 0.25180  0.78550  0.35930  Biso   1.000  H
  H10      1.0000 0.74820  0.21450  0.64070  Biso   1.000  H
  C25      1.0000 0.18810  0.79390  0.14450  Biso   1.000  C
  C26      1.0000 0.81190  0.20610  0.85550  Biso   1.000  C
  H11      1.0000 0.09450  0.78140  0.12820  Biso   1.000  H
  H12      1.0000 0.90550  0.21860  0.87180  Biso   1.000  H
  H13      1.0000 0.22130  0.73140  0.15350  Biso   1.000  H
  H14      1.0000 0.77870  0.26860  0.84650  Biso   1.000  H
  H15      1.0000 0.20300  0.81800  0.08570  Biso   1.000  H
  H16      1.0000 0.79700  0.18200  0.91430  Biso   1.000  H
  C27      1.0000 0.41140  0.90500  0.28650  Biso   1.000  C
  C28      1.0000 0.58860  0.09500  0.71350  Biso   1.000  C
  C29      1.0000 0.46000  0.89880  0.19380  Biso   1.000  C
  C30      1.0000 0.54000  0.10120  0.80620  Biso   1.000  C
  H17      1.0000 0.55530  0.91620  0.22370  Biso   1.000  H
  H18      1.0000 0.44470  0.08380  0.77630  Biso   1.000  H
  H19      1.0000 0.42350  0.94580  0.14870  Biso   1.000  H
  H20      1.0000 0.57650  0.05420  0.85130  Biso   1.000  H
  H21      1.0000 0.43160  0.83030  0.15080  Biso   1.000  H
  H22      1.0000 0.56840  0.16970  0.84920  Biso   1.000  H
  C31      1.0000 0.49520  0.85480  0.37510  Biso   1.000  C
  C32      1.0000 0.50480  0.14520  0.62490  Biso   1.000  C
  H23      1.0000 0.58740  0.87540  0.38920  Biso   1.000  H
  H24      1.0000 0.41260  0.12460  0.61080  Biso   1.000  H
  H25      1.0000 0.47010  0.78160  0.35180  Biso   1.000  H
  H26      1.0000 0.52990  0.21840  0.64820  Biso   1.000  H
  H27      1.0000 0.48110  0.87560  0.44040  Biso   1.000  H
  H28      1.0000 0.51890  0.12440  0.55960  Biso   1.000  H
  N3       1.0000 0.43240  0.01770  0.33210  Biso   1.000  N
  N4       1.0000 0.56760  0.98230  0.66790  Biso   1.000  N
  O11      1.0000 0.54660  0.07210  0.38940  Biso   1.000  O
  O12      1.0000 0.45340  0.92790  0.61060  Biso   1.000  O
  C33      1.0000 0.31860  0.05500  0.29310  Biso   1.000  C
  C34      1.0000 0.68140  0.94500  0.70690  Biso   1.000  C
  C35      1.0000 0.30640  0.16040  0.31330  Biso   1.000  C
  C36      1.0000 0.69360  0.83960  0.68670  Biso   1.000  C
  C37      1.0000 0.40600  0.24500  0.38020  Biso   1.000  C
  C38      1.0000 0.59400  0.75500  0.61980  Biso   1.000  C
  H29      1.0000 0.49470  0.24130  0.41730  Biso   1.000  H
  H30      1.0000 0.50530  0.75870  0.58270  Biso   1.000  H
  N5       1.0000 0.35800  0.33030  0.38380  Biso   1.000  N
  N6       1.0000 0.64200  0.66970  0.61620  Biso   1.000  N
  N7       1.0000 0.22610  0.30110  0.31760  Biso   1.000  N
  N8       1.0000 0.77390  0.69890  0.68240  Biso   1.000  N
  C39      1.0000 0.13900  0.37740  0.30040  Biso   1.000  C
  C40      1.0000 0.86100  0.62260  0.69960  Biso   1.000  C
  H31      1.0000 0.06850  0.35760  0.32420  Biso   1.000  H
  H32      1.0000 0.93150  0.64240  0.67580  Biso   1.000  H
  H33      1.0000 0.19030  0.44310  0.34600  Biso   1.000  H
  H34      1.0000 0.80970  0.55690  0.65400  Biso   1.000  H
  C41      1.0000 0.08090  0.38980  0.19150  Biso   1.000  C
  C42      1.0000 0.91910  0.61020  0.80850  Biso   1.000  C
  H35      1.0000 0.01590  0.32890  0.14740  Biso   1.000  H
  H36      1.0000 0.98410  0.67110  0.85260  Biso   1.000  H
  H37      1.0000 0.14900  0.39870  0.16260  Biso   1.000  H
  H38      1.0000 0.85100  0.60130  0.83740  Biso   1.000  H
  C43      1.0000 0.00670  0.49240  0.18520  Biso   1.000  C
  C44      1.0000 0.99330  0.50760  0.81480  Biso   1.000  C
  H39      1.0000 0.01080  0.52380  0.25600  Biso   1.000  H
  H40      1.0000 0.98920  0.47620  0.74400  Biso   1.000  H
  H41      1.0000 0.04510  0.54320  0.15570  Biso   1.000  H
  H42      1.0000 0.95490  0.45680  0.84430  Biso   1.000  H
  C45      1.0000 0.91100  0.45840  0.13290  Biso   1.000  C
  C46      1.0000 0.08900  0.54160  0.86710  Biso   1.000  C
  H43      1.0000 0.85710  0.50980  0.11890  Biso   1.000  H
  H44      1.0000 0.14290  0.49020  0.88110  Biso   1.000  H
  H45      1.0000 0.87580  0.40960  0.16520  Biso   1.000  H
  H46      1.0000 0.12420  0.59040  0.83480  Biso   1.000  H
  H47      1.0000 0.91170  0.42390  0.06570  Biso   1.000  H
  H48      1.0000 0.08830  0.57610  0.93430  Biso   1.000  H
  C47      1.0000 0.19350  0.20160  0.27600  Biso   1.000  C
  C48      1.0000 0.80650  0.79840  0.72400  Biso   1.000  C
  H49      1.0000 0.10900  0.16570  0.22960  Biso   1.000  H
  H50      1.0000 0.89100  0.83430  0.77040  Biso   1.000  H
  I1       1.0000 0.14552  0.23583  0.57220  Biso   1.000  I
  I2       1.0000 0.85448  0.76417  0.42780  Biso   1.000  I
  C49      1.0000 0.08400  0.11300  0.47700  Biso   1.000  C
  C50      1.0000 0.91600  0.88700  0.52300  Biso   1.000  C
  H51      1.0000 0.15860  0.08770  0.46950  Biso   1.000  H
  H52      1.0000 0.84140  0.91230  0.53050  Biso   1.000  H
  H53      1.0000 0.02240  0.11720  0.40570  Biso   1.000  H
  H54      1.0000 0.97760  0.88280  0.59430  Biso   1.000  H
  C51      1.0000 0.02500  0.03570  0.52760  Biso   1.000  C
  C52      1.0000 0.97500  0.96430  0.47240  Biso   1.000  C
  H55      1.0000 0.99020  0.07390  0.57310  Biso   1.000  H
  H56      1.0000 0.00980  0.92610  0.42690  Biso   1.000  H
  H57      1.0000 0.08550  0.99700  0.56970  Biso   1.000  H
  H58      1.0000 0.91450  0.00300  0.43030  Biso   1.000  H
  C53      1.0000 0.91200  0.96650  0.42800  Biso   1.000  C
  C54      1.0000 0.08800  0.03350  0.57200  Biso   1.000  C
  H59      1.0000 0.92570  0.97290  0.36240  Biso   1.000  H
  H60      1.0000 0.07430  0.02710  0.63760  Biso   1.000  H
  H61      1.0000 0.82690  0.98200  0.42010  Biso   1.000  H
  H62      1.0000 0.17310  0.01800  0.57990  Biso   1.000  H
  C55      1.0000 0.07200  0.14070  0.54800  Biso   1.000  C
  C56      1.0000 0.92800  0.85930  0.45200  Biso   1.000  C
  H63      1.0000 0.88740  0.84490  0.50150  Biso   1.000  H
  H64      1.0000 0.11260  0.15510  0.49850  Biso   1.000  H
  H65      1.0000 0.01890  0.85140  0.48160  Biso   1.000  H
  H66      1.0000 0.98110  0.14860  0.51840  Biso   1.000  H
  C57      1.0000 0.15510  0.21080  0.66060  Biso   1.000  C
  C58      1.0000 0.84490  0.78920  0.33940  Biso   1.000  C
  H67      1.0000 0.84560  0.71860  0.34450  Biso   1.000  H
  H68      1.0000 0.15440  0.28140  0.65550  Biso   1.000  H
  H69      1.0000 0.75470  0.79970  0.31130  Biso   1.000  H
  H70      1.0000 0.24530  0.20030  0.68870  Biso   1.000  H
  H71      1.0000 0.11360  0.19380  0.70860  Biso   1.000  H
  H72      1.0000 0.88640  0.80620  0.29140  Biso   1.000  H
