data_image0
_cell_length_a       13.062
_cell_length_b       13.345
_cell_length_c       20.294
_cell_angle_alpha    74.11
_cell_angle_beta     76.969
_cell_angle_gamma    81.565

_symmetry_space_group_name_H-M    "P 1"
_symmetry_int_tables_number       1

loop_
  _symmetry_equiv_pos_as_xyz
  'x, y, z'

loop_
  _atom_site_label
  _atom_site_occupancy
  _atom_site_fract_x
  _atom_site_fract_y
  _atom_site_fract_z
  _atom_site_thermal_displace_type
  _atom_site_B_iso_or_equiv
  _atom_site_type_symbol
  Cu1      1.0000 0.00000  0.00000  0.50000  Biso   1.000  Cu
  O1       1.0000 0.12860  0.03300  0.43231  Biso   1.000  O
  O2       1.0000 0.87140  0.96700  0.56769  Biso   1.000  O
  C1       1.0000 0.24750  0.12130  0.33940  Biso   1.000  C
  C2       1.0000 0.75250  0.87870  0.66060  Biso   1.000  C
  F1       1.0000 0.28630  0.04100  0.31470  Biso   1.000  F
  F2       1.0000 0.71370  0.95900  0.68530  Biso   1.000  F
  F3       1.0000 0.30800  0.13130  0.37930  Biso   1.000  F
  F4       1.0000 0.69200  0.86870  0.62070  Biso   1.000  F
  F5       1.0000 0.25620  0.20380  0.28622  Biso   1.000  F
  F6       1.0000 0.74380  0.79620  0.71378  Biso   1.000  F
  C3       1.0000 0.13570  0.10850  0.37970  Biso   1.000  C
  C4       1.0000 0.86430  0.89150  0.62030  Biso   1.000  C
  C5       1.0000 0.05540  0.17880  0.35530  Biso   1.000  C
  C6       1.0000 0.94460  0.82120  0.64470  Biso   1.000  C
  H1       1.0000 0.07200  0.23270  0.31400  Biso   1.000  H
  H2       1.0000 0.92800  0.76730  0.68600  Biso   1.000  H
  C7       1.0000 0.95270  0.17220  0.38960  Biso   1.000  C
  C8       1.0000 0.04730  0.82780  0.61040  Biso   1.000  C
  C9       1.0000 0.86970  0.25740  0.36170  Biso   1.000  C
  C10      1.0000 0.13030  0.74260  0.63830  Biso   1.000  C
  F7       1.0000 0.90430  0.31450  0.29880  Biso   1.000  F
  F8       1.0000 0.09570  0.68550  0.70120  Biso   1.000  F
  F9       1.0000 0.78730  0.21690  0.35676  Biso   1.000  F
  F10      1.0000 0.21270  0.78310  0.64324  Biso   1.000  F
  F11      1.0000 0.83540  0.31690  0.40380  Biso   1.000  F
  F12      1.0000 0.16460  0.68310  0.59620  Biso   1.000  F
  O3       1.0000 0.91490  0.10600  0.44247  Biso   1.000  O
  O4       1.0000 0.08510  0.89400  0.55753  Biso   1.000  O
  Cu2      1.0000 0.50603  0.26497  0.75591  Biso   1.000  Cu
  Cu3      1.0000 0.49397  0.73503  0.24409  Biso   1.000  Cu
  O5       1.0000 0.55860  0.39330  0.76084  Biso   1.000  O
  O6       1.0000 0.44140  0.60670  0.23916  Biso   1.000  O
  C11      1.0000 0.57150  0.57140  0.74400  Biso   1.000  C
  C12      1.0000 0.42850  0.42860  0.25600  Biso   1.000  C
  F13      1.0000 0.59010  0.54660  0.80720  Biso   1.000  F
  F14      1.0000 0.40990  0.45340  0.19280  Biso   1.000  F
  F15      1.0000 0.66460  0.59400  0.70260  Biso   1.000  F
  F16      1.0000 0.33540  0.40600  0.29740  Biso   1.000  F
  F17      1.0000 0.50950  0.65730  0.73610  Biso   1.000  F
  F18      1.0000 0.49050  0.34270  0.26390  Biso   1.000  F
  C13      1.0000 0.53220  0.48230  0.72640  Biso   1.000  C
  C14      1.0000 0.46780  0.51770  0.27360  Biso   1.000  C
  C15      1.0000 0.47390  0.51070  0.67370  Biso   1.000  C
  C16      1.0000 0.52610  0.48930  0.32630  Biso   1.000  C
  H3       1.0000 0.46000  0.58260  0.65190  Biso   1.000  H
  H4       1.0000 0.54000  0.41740  0.34810  Biso   1.000  H
  C17      1.0000 0.43600  0.43630  0.65260  Biso   1.000  C
  C18      1.0000 0.56400  0.56370  0.34740  Biso   1.000  C
  C19      1.0000 0.37420  0.47130  0.59390  Biso   1.000  C
  C20      1.0000 0.62580  0.52870  0.40610  Biso   1.000  C
  F19      1.0000 0.41180  0.42030  0.54511  Biso   1.000  F
  F20      1.0000 0.58820  0.57970  0.45489  Biso   1.000  F
  F21      1.0000 0.27520  0.45030  0.61832  Biso   1.000  F
  F22      1.0000 0.72480  0.54970  0.38168  Biso   1.000  F
  F23      1.0000 0.37360  0.57160  0.56361  Biso   1.000  F
  F24      1.0000 0.62640  0.42840  0.43639  Biso   1.000  F
  O7       1.0000 0.44450  0.33840  0.67646  Biso   1.000  O
  O8       1.0000 0.55550  0.66160  0.32354  Biso   1.000  O
  O9       1.0000 0.56750  0.18940  0.83520  Biso   1.000  O
  O10      1.0000 0.43250  0.81060  0.16480  Biso   1.000  O
  C21      1.0000 0.63690  0.05160  0.91600  Biso   1.000  C
  C22      1.0000 0.36310  0.94840  0.08400  Biso   1.000  C
  F25      1.0000 0.73600  0.07000  0.89383  Biso   1.000  F
  F26      1.0000 0.26400  0.93000  0.10617  Biso   1.000  F
  F27      1.0000 0.63480  0.95140  0.94419  Biso   1.000  F
  F28      1.0000 0.36520  0.04860  0.05581  Biso   1.000  F
  F29      1.0000 0.59910  0.10090  0.96528  Biso   1.000  F
  F30      1.0000 0.40090  0.89910  0.03472  Biso   1.000  F
  C23      1.0000 0.57660  0.09090  0.85610  Biso   1.000  C
  C24      1.0000 0.42340  0.90910  0.14390  Biso   1.000  C
  C25      1.0000 0.54140  0.01830  0.83190  Biso   1.000  C
  C26      1.0000 0.45860  0.98170  0.16810  Biso   1.000  C
  H5       1.0000 0.55760  0.94590  0.85150  Biso   1.000  H
  H6       1.0000 0.44240  0.05410  0.14850  Biso   1.000  H
  C27      1.0000 0.48220  0.04860  0.77930  Biso   1.000  C
  C28      1.0000 0.51780  0.95140  0.22070  Biso   1.000  C
  C29      1.0000 0.44550  0.96220  0.75610  Biso   1.000  C
  C30      1.0000 0.55450  0.03780  0.24390  Biso   1.000  C
  F31      1.0000 0.50690  0.87530  0.76755  Biso   1.000  F
  F32      1.0000 0.49310  0.12470  0.23245  Biso   1.000  F
  F33      1.0000 0.34990  0.94170  0.79130  Biso   1.000  F
  F34      1.0000 0.65010  0.05830  0.20870  Biso   1.000  F
  F35      1.0000 0.44140  0.99070  0.69011  Biso   1.000  F
  F36      1.0000 0.55860  0.00930  0.30989  Biso   1.000  F
  O11      1.0000 0.45420  0.13860  0.74846  Biso   1.000  O
  O12      1.0000 0.54580  0.86140  0.25154  Biso   1.000  O
  Cu4      1.0000 0.00000  0.50000  0.00000  Biso   1.000  Cu
  O13      1.0000 0.87290  0.45560  0.07258  Biso   1.000  O
  O14      1.0000 0.12710  0.54440  0.92742  Biso   1.000  O
  C31      1.0000 0.75000  0.35370  0.15070  Biso   1.000  C
  C32      1.0000 0.25000  0.64630  0.84930  Biso   1.000  C
  F37      1.0000 0.70560  0.43020  0.17950  Biso   1.000  F
  F38      1.0000 0.29440  0.56980  0.82050  Biso   1.000  F
  F39      1.0000 0.69250  0.35410  0.10460  Biso   1.000  F
  F40      1.0000 0.30750  0.64590  0.89540  Biso   1.000  F
  F41      1.0000 0.73550  0.26560  0.19956  Biso   1.000  F
  F42      1.0000 0.26450  0.73440  0.80044  Biso   1.000  F
  C33      1.0000 0.86230  0.36800  0.11560  Biso   1.000  C
  C34      1.0000 0.13770  0.63200  0.88440  Biso   1.000  C
  C35      1.0000 0.93690  0.28890  0.13440  Biso   1.000  C
  C36      1.0000 0.06310  0.71110  0.86560  Biso   1.000  C
  H7       1.0000 0.91490  0.22670  0.16760  Biso   1.000  H
  H8       1.0000 0.08510  0.77330  0.83240  Biso   1.000  H
  C37      1.0000 0.04460  0.29570  0.10670  Biso   1.000  C
  C38      1.0000 0.95540  0.70430  0.89330  Biso   1.000  C
  C39      1.0000 0.11860  0.20020  0.12800  Biso   1.000  C
  C40      1.0000 0.88140  0.79980  0.87200  Biso   1.000  C
  F43      1.0000 0.21680  0.21470  0.12700  Biso   1.000  F
  F44      1.0000 0.78320  0.78530  0.87300  Biso   1.000  F
  F45      1.0000 0.09750  0.14630  0.19180  Biso   1.000  F
  F46      1.0000 0.90250  0.85370  0.80820  Biso   1.000  F
  F47      1.0000 0.12300  0.13150  0.09310  Biso   1.000  F
  F48      1.0000 0.87700  0.86850  0.90690  Biso   1.000  F
  F49      1.0000 0.18970  0.23100  0.15110  Biso   1.000  F
  F50      1.0000 0.81030  0.76900  0.84890  Biso   1.000  F
  F51      1.0000 0.07470  0.13080  0.17650  Biso   1.000  F
  F52      1.0000 0.92530  0.86920  0.82350  Biso   1.000  F
  F53      1.0000 0.16760  0.17520  0.07350  Biso   1.000  F
  F54      1.0000 0.83240  0.82480  0.92650  Biso   1.000  F
  O15      1.0000 0.08760  0.37120  0.06504  Biso   1.000  O
  O16      1.0000 0.91240  0.62880  0.93496  Biso   1.000  O
  O17      1.0000 0.01760  0.14580  0.53860  Biso   1.000  O
  O18      1.0000 0.98240  0.85420  0.46140  Biso   1.000  O
  N1       1.0000 0.03310  0.13900  0.60040  Biso   1.000  N
  N2       1.0000 0.96690  0.86100  0.39960  Biso   1.000  N
  C41      1.0000 0.14000  0.14050  0.61410  Biso   1.000  C
  C42      1.0000 0.86000  0.85950  0.38590  Biso   1.000  C
  C43      1.0000 0.16530  0.25510  0.58650  Biso   1.000  C
  C44      1.0000 0.83470  0.74490  0.41350  Biso   1.000  C
  H9       1.0000 0.17860  0.27390  0.53530  Biso   1.000  H
  H10      1.0000 0.82140  0.72610  0.46470  Biso   1.000  H
  H11      1.0000 0.22810  0.26420  0.60240  Biso   1.000  H
  H12      1.0000 0.77190  0.73580  0.39760  Biso   1.000  H
  H13      1.0000 0.10530  0.30040  0.60410  Biso   1.000  H
  H14      1.0000 0.89470  0.69960  0.39590  Biso   1.000  H
  C45      1.0000 0.22040  0.07220  0.57730  Biso   1.000  C
  C46      1.0000 0.77960  0.92780  0.42270  Biso   1.000  C
  H15      1.0000 0.22890  0.10140  0.52670  Biso   1.000  H
  H16      1.0000 0.77110  0.89860  0.47330  Biso   1.000  H
  H17      1.0000 0.19710  0.00180  0.58950  Biso   1.000  H
  H18      1.0000 0.80290  0.99820  0.41050  Biso   1.000  H
  H19      1.0000 0.28810  0.06860  0.59150  Biso   1.000  H
  H20      1.0000 0.71190  0.93140  0.40850  Biso   1.000  H
  C47      1.0000 0.11770  0.10470  0.69420  Biso   1.000  C
  C48      1.0000 0.88230  0.89530  0.30580  Biso   1.000  C
  C49      1.0000 0.17740  0.15610  0.73000  Biso   1.000  C
  C50      1.0000 0.82260  0.84390  0.27000  Biso   1.000  C
  H21      1.0000 0.15850  0.12850  0.78070  Biso   1.000  H
  H22      1.0000 0.84150  0.87150  0.21930  Biso   1.000  H
  H23      1.0000 0.15910  0.23190  0.71800  Biso   1.000  H
  H24      1.0000 0.84090  0.76810  0.28200  Biso   1.000  H
  H25      1.0000 0.25350  0.14120  0.71440  Biso   1.000  H
  H26      1.0000 0.74650  0.85880  0.28560  Biso   1.000  H
  C51      1.0000 0.12800  0.98690  0.72240  Biso   1.000  C
  C52      1.0000 0.87200  0.01310  0.27760  Biso   1.000  C
  H27      1.0000 0.11300  0.96950  0.77360  Biso   1.000  H
  H28      1.0000 0.88700  0.03050  0.22640  Biso   1.000  H
  H29      1.0000 0.19990  0.95890  0.70570  Biso   1.000  H
  H30      1.0000 0.80010  0.04110  0.29430  Biso   1.000  H
  H31      1.0000 0.07770  0.95610  0.70610  Biso   1.000  H
  H32      1.0000 0.92230  0.04390  0.29390  Biso   1.000  H
  N3       1.0000 0.00170  0.13860  0.70990  Biso   1.000  N
  N4       1.0000 0.99830  0.86140  0.29010  Biso   1.000  N
  O19      1.0000 0.95340  0.14070  0.77108  Biso   1.000  O
  O20      1.0000 0.04660  0.85930  0.22892  Biso   1.000  O
  C53      1.0000 0.95750  0.14870  0.65440  Biso   1.000  C
  C54      1.0000 0.04250  0.85130  0.34560  Biso   1.000  C
  C55      1.0000 0.84690  0.16990  0.65450  Biso   1.000  C
  C56      1.0000 0.15310  0.83010  0.34550  Biso   1.000  C
  C57      1.0000 0.76480  0.18560  0.70820  Biso   1.000  C
  C58      1.0000 0.23520  0.81440  0.29180  Biso   1.000  C
  H33      1.0000 0.77340  0.18260  0.75400  Biso   1.000  H
  H34      1.0000 0.22660  0.81740  0.24600  Biso   1.000  H
  N5       1.0000 0.67280  0.20520  0.68790  Biso   1.000  N
  N6       1.0000 0.32720  0.79480  0.31210  Biso   1.000  N
  N7       1.0000 0.69510  0.20030  0.62070  Biso   1.000  N
  N8       1.0000 0.30490  0.79970  0.37930  Biso   1.000  N
  C59      1.0000 0.60990  0.21920  0.58190  Biso   1.000  C
  C60      1.0000 0.39010  0.78080  0.41810  Biso   1.000  C
  H35      1.0000 0.60240  0.29470  0.55850  Biso   1.000  H
  H36      1.0000 0.39760  0.70530  0.44150  Biso   1.000  H
  H37      1.0000 0.54330  0.20240  0.61560  Biso   1.000  H
  H38      1.0000 0.45670  0.79760  0.38440  Biso   1.000  H
  C61      1.0000 0.62380  0.15940  0.52890  Biso   1.000  C
  C62      1.0000 0.37620  0.84060  0.47110  Biso   1.000  C
  H39      1.0000 0.63420  0.08370  0.55120  Biso   1.000  H
  H40      1.0000 0.36580  0.91630  0.44880  Biso   1.000  H
  H41      1.0000 0.68750  0.17920  0.49290  Biso   1.000  H
  H42      1.0000 0.31250  0.82080  0.50710  Biso   1.000  H
  C63      1.0000 0.52850  0.18070  0.49490  Biso   1.000  C
  C64      1.0000 0.47150  0.81930  0.50510  Biso   1.000  C
  H43      1.0000 0.46720  0.15240  0.53030  Biso   1.000  H
  H44      1.0000 0.53280  0.84760  0.46970  Biso   1.000  H
  H45      1.0000 0.51240  0.25740  0.47940  Biso   1.000  H
  H46      1.0000 0.48760  0.74260  0.52060  Biso   1.000  H
  C65      1.0000 0.54070  0.13540  0.43410  Biso   1.000  C
  C66      1.0000 0.45930  0.86460  0.56590  Biso   1.000  C
  H47      1.0000 0.47580  0.15270  0.41520  Biso   1.000  H
  H48      1.0000 0.52420  0.84730  0.58480  Biso   1.000  H
  H49      1.0000 0.55470  0.05920  0.44890  Biso   1.000  H
  H50      1.0000 0.44530  0.94080  0.55110  Biso   1.000  H
  H51      1.0000 0.59980  0.16440  0.39790  Biso   1.000  H
  H52      1.0000 0.40020  0.83560  0.60210  Biso   1.000  H
  C67      1.0000 0.79810  0.18040  0.59850  Biso   1.000  C
  C68      1.0000 0.20190  0.81960  0.40150  Biso   1.000  C
  H53      1.0000 0.83190  0.17450  0.55290  Biso   1.000  H
  H54      1.0000 0.16810  0.82550  0.44710  Biso   1.000  H
  O21      1.0000 0.98330  0.38250  0.96064  Biso   1.000  O
  O22      1.0000 0.01670  0.61750  0.03936  Biso   1.000  O
  N9       1.0000 0.97550  0.39630  0.89550  Biso   1.000  N
  N10      1.0000 0.02450  0.60370  0.10450  Biso   1.000  N
  C69      1.0000 0.87180  0.39510  0.87630  Biso   1.000  C
  C70      1.0000 0.12820  0.60490  0.12370  Biso   1.000  C
  C71      1.0000 0.78680  0.46080  0.91270  Biso   1.000  C
  C72      1.0000 0.21320  0.53920  0.08730  Biso   1.000  C
  H55      1.0000 0.77320  0.42830  0.96300  Biso   1.000  H
  H56      1.0000 0.22680  0.57170  0.03700  Biso   1.000  H
  H57      1.0000 0.72210  0.46630  0.89460  Biso   1.000  H
  H58      1.0000 0.27790  0.53370  0.10540  Biso   1.000  H
  H59      1.0000 0.80950  0.53080  0.90420  Biso   1.000  H
  H60      1.0000 0.19050  0.46920  0.09580  Biso   1.000  H
  C73      1.0000 0.84800  0.28060  0.89910  Biso   1.000  C
  C74      1.0000 0.15200  0.71940  0.10090  Biso   1.000  C
  H61      1.0000 0.82940  0.25880  0.95020  Biso   1.000  H
  H62      1.0000 0.17060  0.74120  0.04980  Biso   1.000  H
  H63      1.0000 0.91050  0.23700  0.88260  Biso   1.000  H
  H64      1.0000 0.08950  0.76300  0.11740  Biso   1.000  H
  H65      1.0000 0.78890  0.27250  0.87920  Biso   1.000  H
  H66      1.0000 0.21110  0.72750  0.12080  Biso   1.000  H
  C75      1.0000 0.90260  0.43680  0.79530  Biso   1.000  C
  C76      1.0000 0.09740  0.56320  0.20470  Biso   1.000  C
  C77      1.0000 0.85010  0.39010  0.75420  Biso   1.000  C
  C78      1.0000 0.14990  0.60990  0.24580  Biso   1.000  C
  H67      1.0000 0.87390  0.42080  0.70420  Biso   1.000  H
  H68      1.0000 0.12610  0.57920  0.29580  Biso   1.000  H
  H69      1.0000 0.77340  0.40450  0.76680  Biso   1.000  H
  H70      1.0000 0.22660  0.59550  0.23320  Biso   1.000  H
  H71      1.0000 0.86860  0.31430  0.76450  Biso   1.000  H
  H72      1.0000 0.13140  0.68570  0.23550  Biso   1.000  H
  C79      1.0000 0.89180  0.55540  0.77240  Biso   1.000  C
  C80      1.0000 0.10820  0.44460  0.22760  Biso   1.000  C
  H73      1.0000 0.91180  0.57800  0.72140  Biso   1.000  H
  H74      1.0000 0.08820  0.42200  0.27860  Biso   1.000  H
  H75      1.0000 0.93810  0.58310  0.79360  Biso   1.000  H
  H76      1.0000 0.06190  0.41690  0.20640  Biso   1.000  H
  H77      1.0000 0.81850  0.58160  0.78730  Biso   1.000  H
  H78      1.0000 0.18150  0.41840  0.21270  Biso   1.000  H
  O23      1.0000 0.07270  0.40280  0.72600  Biso   1.000  O
  O24      1.0000 0.92730  0.59720  0.27400  Biso   1.000  O
  N11      1.0000 0.01800  0.40410  0.78510  Biso   1.000  N
  N12      1.0000 0.98200  0.59590  0.21490  Biso   1.000  N
  C81      1.0000 0.05690  0.38690  0.84450  Biso   1.000  C
  C82      1.0000 0.94310  0.61310  0.15550  Biso   1.000  C
  C83      1.0000 0.16380  0.35950  0.85040  Biso   1.000  C
  C84      1.0000 0.83620  0.64050  0.14960  Biso   1.000  C
  C85      1.0000 0.25160  0.34600  0.79820  Biso   1.000  C
  C86      1.0000 0.74840  0.65400  0.20180  Biso   1.000  C
  H79      1.0000 0.24900  0.35570  0.75040  Biso   1.000  H
  H80      1.0000 0.75100  0.64430  0.24960  Biso   1.000  H
  N13      1.0000 0.33820  0.31800  0.82420  Biso   1.000  N
  N14      1.0000 0.66180  0.68200  0.17580  Biso   1.000  N
  N15      1.0000 0.30660  0.31320  0.89340  Biso   1.000  N
  N16      1.0000 0.69340  0.68680  0.10660  Biso   1.000  N
  C87      1.0000 0.38220  0.28650  0.94030  Biso   1.000  C
  C88      1.0000 0.61780  0.71350  0.05970  Biso   1.000  C
  H81      1.0000 0.44320  0.24240  0.92120  Biso   1.000  H
  H82      1.0000 0.55680  0.75760  0.07880  Biso   1.000  H
  H83      1.0000 0.34830  0.24490  0.98640  Biso   1.000  H
  H84      1.0000 0.65170  0.75510  0.01360  Biso   1.000  H
  C89      1.0000 0.42020  0.37900  0.94960  Biso   1.000  C
  C90      1.0000 0.57980  0.62100  0.05040  Biso   1.000  C
  H85      1.0000 0.35980  0.42070  0.97160  Biso   1.000  H
  H86      1.0000 0.64020  0.57930  0.02840  Biso   1.000  H
  H87      1.0000 0.44980  0.42300  0.90320  Biso   1.000  H
  H88      1.0000 0.55020  0.57700  0.09680  Biso   1.000  H
  C91      1.0000 0.50490  0.35070  0.99490  Biso   1.000  C
  C92      1.0000 0.49510  0.64930  0.00510  Biso   1.000  C
  H89      1.0000 0.56230  0.30330  0.97570  Biso   1.000  H
  H90      1.0000 0.43770  0.69670  0.02430  Biso   1.000  H
  H91      1.0000 0.53540  0.41500  0.99360  Biso   1.000  H
  H92      1.0000 0.46460  0.58500  0.00640  Biso   1.000  H
  C93      1.0000 0.46100  0.30040  0.06640  Biso   1.000  C
  C94      1.0000 0.53900  0.69960  0.93360  Biso   1.000  C
  H93      1.0000 0.51670  0.28270  0.09400  Biso   1.000  H
  H94      1.0000 0.48330  0.71730  0.90600  Biso   1.000  H
  H95      1.0000 0.43130  0.23640  0.06770  Biso   1.000  H
  H96      1.0000 0.56870  0.76360  0.93230  Biso   1.000  H
  H97      1.0000 0.40530  0.34800  0.08580  Biso   1.000  H
  H98      1.0000 0.59470  0.65200  0.91420  Biso   1.000  H
  C95      1.0000 0.20420  0.33700  0.91060  Biso   1.000  C
  C96      1.0000 0.79580  0.66300  0.08940  Biso   1.000  C
  H99      1.0000 0.16540  0.33840  0.95600  Biso   1.000  H
  H100     1.0000 0.83460  0.66160  0.04400  Biso   1.000  H
  Cl1      1.0000 0.75750  0.93030  0.08520  Biso   1.000  Cl
  Cl2      1.0000 0.24250  0.06970  0.91480  Biso   1.000  Cl
  C97      1.0000 0.89740  0.91390  0.06360  Biso   1.000  C
  C98      1.0000 0.10260  0.08610  0.93640  Biso   1.000  C
  H101     1.0000 0.91700  0.86250  0.03690  Biso   1.000  H
  H102     1.0000 0.08300  0.13750  0.96310  Biso   1.000  H
  H103     1.0000 0.92580  0.88770  0.10550  Biso   1.000  H
  H104     1.0000 0.07420  0.11230  0.89450  Biso   1.000  H
  C99      1.0000 0.90000  0.03400  0.03200  Biso   1.000  C
  C100     1.0000 0.10000  0.96600  0.96800  Biso   1.000  C
  H105     1.0000 0.89450  0.08120  0.06050  Biso   1.000  H
  H106     1.0000 0.10550  0.91880  0.93950  Biso   1.000  H
  H107     1.0000 0.86530  0.06740  0.99320  Biso   1.000  H
  H108     1.0000 0.13470  0.93260  0.00680  Biso   1.000  H
  C101     1.0000 0.94130  0.00970  0.01010  Biso   1.000  C
  C102     1.0000 0.05870  0.99030  0.98990  Biso   1.000  C
  H109     1.0000 0.93440  0.06830  0.03020  Biso   1.000  H
  H110     1.0000 0.06560  0.93170  0.96980  Biso   1.000  H
  H111     1.0000 0.90110  0.02640  0.97380  Biso   1.000  H
  H112     1.0000 0.09890  0.97360  0.02620  Biso   1.000  H
  C103     1.0000 0.08000  0.05000  0.95800  Biso   1.000  C
  C104     1.0000 0.92000  0.95000  0.04200  Biso   1.000  C
  H113     1.0000 0.07390  0.11140  0.97550  Biso   1.000  H
  H114     1.0000 0.92610  0.88860  0.02450  Biso   1.000  H
  H115     1.0000 0.05030  0.06430  0.91690  Biso   1.000  H
  H116     1.0000 0.94970  0.93570  0.08310  Biso   1.000  H
  C105     1.0000 0.20900  0.05300  0.92720  Biso   1.000  C
  C106     1.0000 0.79100  0.94700  0.07280  Biso   1.000  C
  H117     1.0000 0.26050  0.09470  0.89290  Biso   1.000  H
  H118     1.0000 0.73950  0.90530  0.10710  Biso   1.000  H
  H119     1.0000 0.22940  0.03650  0.97200  Biso   1.000  H
  H120     1.0000 0.77060  0.96350  0.02800  Biso   1.000  H
  H121     1.0000 0.20620  0.99010  0.91430  Biso   1.000  H
  H122     1.0000 0.79380  0.00990  0.08570  Biso   1.000  H
  Cl3      1.0000 0.24710  0.53810  0.42650  Biso   1.000  Cl
  Cl4      1.0000 0.75290  0.46190  0.57350  Biso   1.000  Cl
  C107     1.0000 0.14500  0.54300  0.48200  Biso   1.000  C
  C108     1.0000 0.85500  0.45700  0.51800  Biso   1.000  C
  H123     1.0000 0.12590  0.61300  0.48770  Biso   1.000  H
  H124     1.0000 0.87410  0.38700  0.51230  Biso   1.000  H
  H125     1.0000 0.15930  0.49890  0.52600  Biso   1.000  H
  H126     1.0000 0.84070  0.50110  0.47400  Biso   1.000  H
  C109     1.0000 0.04600  0.50300  0.47130  Biso   1.000  C
  C110     1.0000 0.95400  0.49700  0.52870  Biso   1.000  C
  H127     1.0000 0.06530  0.43390  0.46430  Biso   1.000  H
  H128     1.0000 0.93470  0.56610  0.53570  Biso   1.000  H
  H129     1.0000 0.02840  0.54890  0.42910  Biso   1.000  H
  H130     1.0000 0.97160  0.45110  0.57090  Biso   1.000  H
  C111     1.0000 0.04800  0.50080  0.47180  Biso   1.000  C
  C112     1.0000 0.95200  0.49920  0.52820  Biso   1.000  C
  H131     1.0000 0.07320  0.43030  0.46950  Biso   1.000  H
  H132     1.0000 0.92680  0.56970  0.53050  Biso   1.000  H
  H133     1.0000 0.02580  0.53700  0.42880  Biso   1.000  H
  H134     1.0000 0.97420  0.46300  0.57120  Biso   1.000  H
  C113     1.0000 0.13500  0.54600  0.48550  Biso   1.000  C
  C114     1.0000 0.86500  0.45400  0.51450  Biso   1.000  C
  H135     1.0000 0.11100  0.61780  0.48360  Biso   1.000  H
  H136     1.0000 0.88900  0.38220  0.51640  Biso   1.000  H
  H137     1.0000 0.84860  0.48630  0.46920  Biso   1.000  H
  H138     1.0000 0.15140  0.51370  0.53080  Biso   1.000  H
  C115     1.0000 0.75100  0.45100  0.58100  Biso   1.000  C
  C116     1.0000 0.24900  0.54900  0.41900  Biso   1.000  C
  H139     1.0000 0.69740  0.41650  0.57290  Biso   1.000  H
  H140     1.0000 0.30260  0.58350  0.42710  Biso   1.000  H
  H141     1.0000 0.76700  0.41830  0.62610  Biso   1.000  H
  H142     1.0000 0.23300  0.58170  0.37390  Biso   1.000  H
  H143     1.0000 0.72620  0.52340  0.57840  Biso   1.000  H
  H144     1.0000 0.27380  0.47660  0.42160  Biso   1.000  H
