data_image0
_cell_length_a       11.954
_cell_length_b       11.999
_cell_length_c       13.431
_cell_angle_alpha    106.047
_cell_angle_beta     104.044
_cell_angle_gamma    107.304

_symmetry_space_group_name_H-M    "P 1"
_symmetry_int_tables_number       1

loop_
  _symmetry_equiv_pos_as_xyz
  'x, y, z'

loop_
  _atom_site_label
  _atom_site_occupancy
  _atom_site_fract_x
  _atom_site_fract_y
  _atom_site_fract_z
  _atom_site_thermal_displace_type
  _atom_site_B_iso_or_equiv
  _atom_site_type_symbol
  Cu1      1.0000 0.50000  0.00000  0.50000  Biso   1.000  Cu
  O1       1.0000 0.12370  0.09840  0.14850  Biso   1.000  O
  O2       1.0000 0.87630  0.90160  0.85150  Biso   1.000  O
  C1       1.0000 0.30080  0.25060  0.29600  Biso   1.000  C
  C2       1.0000 0.69920  0.74940  0.70400  Biso   1.000  C
  F1       1.0000 0.23670  0.24310  0.35910  Biso   1.000  F
  F2       1.0000 0.76330  0.75690  0.64090  Biso   1.000  F
  F3       1.0000 0.37730  0.36920  0.33070  Biso   1.000  F
  F4       1.0000 0.62270  0.63080  0.66930  Biso   1.000  F
  F5       1.0000 0.37420  0.18950  0.31470  Biso   1.000  F
  F6       1.0000 0.62580  0.81050  0.68530  Biso   1.000  F
  C3       1.0000 0.22090  0.19490  0.17250  Biso   1.000  C
  C4       1.0000 0.77910  0.80510  0.82750  Biso   1.000  C
  C5       1.0000 0.26120  0.24740  0.10270  Biso   1.000  C
  C6       1.0000 0.73880  0.75260  0.89730  Biso   1.000  C
  H1       1.0000 0.33720  0.31980  0.13250  Biso   1.000  H
  H2       1.0000 0.66280  0.68020  0.86750  Biso   1.000  H
  C7       1.0000 0.19470  0.19800  0.98990  Biso   1.000  C
  C8       1.0000 0.80530  0.80200  0.01010  Biso   1.000  C
  C9       1.0000 0.24520  0.26130  0.91840  Biso   1.000  C
  C10      1.0000 0.75480  0.73870  0.08160  Biso   1.000  C
  F7       1.0000 0.35720  0.35130  0.96950  Biso   1.000  F
  F8       1.0000 0.64280  0.64870  0.03050  Biso   1.000  F
  F9       1.0000 0.24790  0.17820  0.83070  Biso   1.000  F
  F10      1.0000 0.75210  0.82180  0.16930  Biso   1.000  F
  F11      1.0000 0.16910  0.31060  0.87790  Biso   1.000  F
  F12      1.0000 0.83090  0.68940  0.12210  Biso   1.000  F
  O3       1.0000 0.09290  0.10180  0.93600  Biso   1.000  O
  O4       1.0000 0.90710  0.89820  0.06400  Biso   1.000  O
  Cu2      1.0000 0.00000  0.00000  0.00000  Biso   1.000  Cu
  O5       1.0000 0.43170  0.11560  0.56800  Biso   1.000  O
  O6       1.0000 0.56830  0.88440  0.43200  Biso   1.000  O
  C11      1.0000 0.40470  0.29210  0.66500  Biso   1.000  C
  C12      1.0000 0.59530  0.70790  0.33500  Biso   1.000  C
  F13      1.0000 0.28220  0.22340  0.62730  Biso   1.000  F
  F14      1.0000 0.71780  0.77660  0.37270  Biso   1.000  F
  F15      1.0000 0.44870  0.29900  0.76790  Biso   1.000  F
  F16      1.0000 0.55130  0.70100  0.23210  Biso   1.000  F
  F17      1.0000 0.41760  0.40750  0.67350  Biso   1.000  F
  F18      1.0000 0.58240  0.59250  0.32650  Biso   1.000  F
  C13      1.0000 0.46890  0.23360  0.59500  Biso   1.000  C
  C14      1.0000 0.53110  0.76640  0.40500  Biso   1.000  C
  C15      1.0000 0.55760  0.31210  0.57080  Biso   1.000  C
  C16      1.0000 0.44240  0.68790  0.42920  Biso   1.000  C
  H3       1.0000 0.57370  0.39940  0.59780  Biso   1.000  H
  H4       1.0000 0.42630  0.60060  0.40220  Biso   1.000  H
  C17      1.0000 0.62700  0.27100  0.50790  Biso   1.000  C
  C18      1.0000 0.37300  0.72900  0.49210  Biso   1.000  C
  C19      1.0000 0.72170  0.37700  0.49030  Biso   1.000  C
  C20      1.0000 0.27830  0.62300  0.50970  Biso   1.000  C
  F19      1.0000 0.78490  0.33490  0.43270  Biso   1.000  F
  F20      1.0000 0.21510  0.66510  0.56730  Biso   1.000  F
  F21      1.0000 0.80470  0.46640  0.58820  Biso   1.000  F
  F22      1.0000 0.19530  0.53360  0.41180  Biso   1.000  F
  F23      1.0000 0.66400  0.43430  0.43740  Biso   1.000  F
  F24      1.0000 0.33600  0.56570  0.56260  Biso   1.000  F
  O7       1.0000 0.62210  0.16320  0.46460  Biso   1.000  O
  O8       1.0000 0.37790  0.83680  0.53540  Biso   1.000  O
  O9       1.0000 0.08030  0.83550  0.96710  Biso   1.000  O
  O10      1.0000 0.91970  0.16450  0.03290  Biso   1.000  O
  N1       1.0000 0.18260  0.82420  0.96010  Biso   1.000  N
  N2       1.0000 0.81740  0.17580  0.03990  Biso   1.000  N
  C21      1.0000 0.20330  0.79200  0.85030  Biso   1.000  C
  C22      1.0000 0.79670  0.20800  0.14970  Biso   1.000  C
  C23      1.0000 0.08800  0.67510  0.76740  Biso   1.000  C
  C24      1.0000 0.91200  0.32490  0.23260  Biso   1.000  C
  H5       1.0000 0.01540  0.69800  0.75050  Biso   1.000  H
  H6       1.0000 0.98460  0.30200  0.24950  Biso   1.000  H
  H7       1.0000 0.07120  0.61060  0.79950  Biso   1.000  H
  H8       1.0000 0.92880  0.38940  0.20050  Biso   1.000  H
  H9       1.0000 0.10380  0.64210  0.69910  Biso   1.000  H
  H10      1.0000 0.89620  0.35790  0.30090  Biso   1.000  H
  C25      1.0000 0.21660  0.90390  0.81810  Biso   1.000  C
  C26      1.0000 0.78340  0.09610  0.18190  Biso   1.000  C
  H11      1.0000 0.13560  0.91170  0.79820  Biso   1.000  H
  H12      1.0000 0.86440  0.08830  0.20180  Biso   1.000  H
  H13      1.0000 0.24450  0.89290  0.75450  Biso   1.000  H
  H14      1.0000 0.75550  0.10710  0.24550  Biso   1.000  H
  H15      1.0000 0.27850  0.98020  0.88060  Biso   1.000  H
  H16      1.0000 0.72150  0.01980  0.11940  Biso   1.000  H
  C27      1.0000 0.32570  0.76790  0.88420  Biso   1.000  C
  C28      1.0000 0.67430  0.23210  0.11580  Biso   1.000  C
  C29      1.0000 0.30670  0.62880  0.85720  Biso   1.000  C
  C30      1.0000 0.69330  0.37120  0.14280  Biso   1.000  C
  H17      1.0000 0.38830  0.62310  0.88140  Biso   1.000  H
  H18      1.0000 0.61170  0.37690  0.11860  Biso   1.000  H
  H19      1.0000 0.26490  0.58180  0.77720  Biso   1.000  H
  H20      1.0000 0.73510  0.41820  0.22280  Biso   1.000  H
  H21      1.0000 0.25490  0.59310  0.89600  Biso   1.000  H
  H22      1.0000 0.74510  0.40690  0.10400  Biso   1.000  H
  C31      1.0000 0.42790  0.83340  0.84440  Biso   1.000  C
  C32      1.0000 0.57210  0.16660  0.15560  Biso   1.000  C
  H23      1.0000 0.50140  0.81380  0.86900  Biso   1.000  H
  H24      1.0000 0.49860  0.18620  0.13100  Biso   1.000  H
  H25      1.0000 0.45170  0.92480  0.87570  Biso   1.000  H
  H26      1.0000 0.54830  0.07520  0.12430  Biso   1.000  H
  H27      1.0000 0.39560  0.80330  0.76340  Biso   1.000  H
  H28      1.0000 0.60440  0.19670  0.23660  Biso   1.000  H
  N3       1.0000 0.37210  0.83020  0.00760  Biso   1.000  N
  N4       1.0000 0.62790  0.16980  0.99240  Biso   1.000  N
  O11      1.0000 0.48150  0.84540  0.06870  Biso   1.000  O
  O12      1.0000 0.51850  0.15460  0.93130  Biso   1.000  O
  C33      1.0000 0.28360  0.85010  0.04600  Biso   1.000  C
  C34      1.0000 0.71640  0.14990  0.95400  Biso   1.000  C
  C35      1.0000 0.29230  0.88720  0.15970  Biso   1.000  C
  C36      1.0000 0.70770  0.11280  0.84030  Biso   1.000  C
  C37      1.0000 0.39740  0.91780  0.25330  Biso   1.000  C
  C38      1.0000 0.60260  0.08220  0.74670  Biso   1.000  C
  H29      1.0000 0.47780  0.92320  0.25180  Biso   1.000  H
  H30      1.0000 0.52220  0.07680  0.74820  Biso   1.000  H
  N5       1.0000 0.36690  0.93830  0.34480  Biso   1.000  N
  N6       1.0000 0.63310  0.06170  0.65520  Biso   1.000  N
  N7       1.0000 0.24280  0.92110  0.30980  Biso   1.000  N
  N8       1.0000 0.75720  0.07890  0.69020  Biso   1.000  N
  C39      1.0000 0.17330  0.92650  0.38510  Biso   1.000  C
  C40      1.0000 0.82670  0.07350  0.61490  Biso   1.000  C
  H31      1.0000 0.12250  0.97640  0.37190  Biso   1.000  H
  H32      1.0000 0.87750  0.02360  0.62810  Biso   1.000  H
  H33      1.0000 0.23330  0.97030  0.46240  Biso   1.000  H
  H34      1.0000 0.76670  0.02970  0.53760  Biso   1.000  H
  C41      1.0000 0.08780  0.79720  0.37120  Biso   1.000  C
  C42      1.0000 0.91220  0.20280  0.62880  Biso   1.000  C
  H35      1.0000 0.13760  0.74540  0.37950  Biso   1.000  H
  H36      1.0000 0.86240  0.25460  0.62050  Biso   1.000  H
  H37      1.0000 0.02410  0.75560  0.29550  Biso   1.000  H
  H38      1.0000 0.97590  0.24440  0.70450  Biso   1.000  H
  C43      1.0000 0.02210  0.80330  0.45520  Biso   1.000  C
  C44      1.0000 0.97790  0.19670  0.54480  Biso   1.000  C
  H39      1.0000 0.08610  0.84310  0.53070  Biso   1.000  H
  H40      1.0000 0.91390  0.15690  0.46930  Biso   1.000  H
  H41      1.0000 0.97470  0.85750  0.44820  Biso   1.000  H
  H42      1.0000 0.02530  0.14250  0.55180  Biso   1.000  H
  C45      1.0000 0.93360  0.67590  0.44100  Biso   1.000  C
  C46      1.0000 0.06640  0.32410  0.55900  Biso   1.000  C
  H43      1.0000 0.89430  0.68580  0.49720  Biso   1.000  H
  H44      1.0000 0.10570  0.31420  0.50280  Biso   1.000  H
  H45      1.0000 0.98020  0.62220  0.44950  Biso   1.000  H
  H46      1.0000 0.01980  0.37780  0.55050  Biso   1.000  H
  H47      1.0000 0.86870  0.63670  0.36700  Biso   1.000  H
  H48      1.0000 0.13130  0.36330  0.63300  Biso   1.000  H
  C47      1.0000 0.19750  0.89040  0.20150  Biso   1.000  C
  C48      1.0000 0.80250  0.10960  0.79850  Biso   1.000  C
  H49      1.0000 0.11390  0.87350  0.15930  Biso   1.000  H
  H50      1.0000 0.88610  0.12650  0.84070  Biso   1.000  H
  C49      1.0000 0.06140  0.53240  0.01690  Biso   1.000  C
  C50      1.0000 0.93860  0.46760  0.98310  Biso   1.000  C
  H51      1.0000 0.07730  0.62280  0.03490  Biso   1.000  H
  H52      1.0000 0.92270  0.37720  0.96510  Biso   1.000  H
  H53      1.0000 0.09060  0.50500  0.95500  Biso   1.000  H
  H54      1.0000 0.90940  0.49500  0.04500  Biso   1.000  H
  C51      1.0000 0.13850  0.51820  0.11750  Biso   1.000  C
  C52      1.0000 0.86150  0.48180  0.88250  Biso   1.000  C
  H55      1.0000 0.11820  0.55770  0.18210  Biso   1.000  H
  H56      1.0000 0.88180  0.44230  0.81790  Biso   1.000  H
  H57      1.0000 0.11220  0.42730  0.10380  Biso   1.000  H
  H58      1.0000 0.88780  0.57270  0.89620  Biso   1.000  H
  C53      1.0000 0.24000  0.55880  0.13910  Biso   1.000  C
  C54      1.0000 0.76000  0.44120  0.86090  Biso   1.000  C
  H59      1.0000 0.28070  0.54790  0.20630  Biso   1.000  H
  H60      1.0000 0.71930  0.45210  0.79370  Biso   1.000  H
  H61      1.0000 0.26740  0.64880  0.15220  Biso   1.000  H
  H62      1.0000 0.73260  0.35120  0.84780  Biso   1.000  H
  H63      1.0000 0.26210  0.51620  0.07810  Biso   1.000  H
  H64      1.0000 0.73790  0.48380  0.92190  Biso   1.000  H
