data_image0
_cell_length_a       10.575
_cell_length_b       13.172
_cell_length_c       13.561
_cell_angle_alpha    98.844
_cell_angle_beta     112.139
_cell_angle_gamma    96.75

_symmetry_space_group_name_H-M    "P 1"
_symmetry_int_tables_number       1

loop_
  _symmetry_equiv_pos_as_xyz
  'x, y, z'

loop_
  _atom_site_label
  _atom_site_occupancy
  _atom_site_fract_x
  _atom_site_fract_y
  _atom_site_fract_z
  _atom_site_thermal_displace_type
  _atom_site_B_iso_or_equiv
  _atom_site_type_symbol
  Cu1      1.0000 0.50000  0.50000  0.00000  Biso   1.000  Cu
  O1       1.0000 0.38630  0.58233  0.05470  Biso   1.000  O
  O2       1.0000 0.61370  0.41767  0.94530  Biso   1.000  O
  C1       1.0000 0.23870  0.62360  0.13680  Biso   1.000  C
  C2       1.0000 0.76130  0.37640  0.86320  Biso   1.000  C
  F1       1.0000 0.32660  0.66420  0.22940  Biso   1.000  F
  F2       1.0000 0.67340  0.33580  0.77060  Biso   1.000  F
  F3       1.0000 0.21710  0.70280  0.09130  Biso   1.000  F
  F4       1.0000 0.78290  0.29720  0.90870  Biso   1.000  F
  F5       1.0000 0.12700  0.59200  0.14440  Biso   1.000  F
  F6       1.0000 0.87300  0.40800  0.85560  Biso   1.000  F
  C3       1.0000 0.29050  0.54410  0.07760  Biso   1.000  C
  C4       1.0000 0.70950  0.45590  0.92240  Biso   1.000  C
  C5       1.0000 0.22880  0.44070  0.05540  Biso   1.000  C
  C6       1.0000 0.77120  0.55930  0.94460  Biso   1.000  C
  H1       1.0000 0.15580  0.42270  0.07680  Biso   1.000  H
  H2       1.0000 0.84420  0.57730  0.92320  Biso   1.000  H
  C7       1.0000 0.27130  0.36340  0.00290  Biso   1.000  C
  C8       1.0000 0.72870  0.63660  0.99710  Biso   1.000  C
  C9       1.0000 0.19440  0.25190  0.97890  Biso   1.000  C
  C10      1.0000 0.80560  0.74810  0.02110  Biso   1.000  C
  F7       1.0000 0.27870  0.19100  0.01750  Biso   1.000  F
  F8       1.0000 0.72130  0.80900  0.98250  Biso   1.000  F
  F9       1.0000 0.13760  0.21240  0.87670  Biso   1.000  F
  F10      1.0000 0.86240  0.78760  0.12330  Biso   1.000  F
  F11      1.0000 0.10000  0.24110  0.01710  Biso   1.000  F
  F12      1.0000 0.90000  0.75890  0.98290  Biso   1.000  F
  O3       1.0000 0.36590  0.37121  0.97080  Biso   1.000  O
  O4       1.0000 0.63410  0.62879  0.02920  Biso   1.000  O
  Cu2      1.0000 0.00000  0.00000  0.50000  Biso   1.000  Cu
  O5       1.0000 0.98820  0.04949  0.36860  Biso   1.000  O
  O6       1.0000 0.01180  0.95051  0.63140  Biso   1.000  O
  C11      1.0000 0.01940  0.06230  0.21030  Biso   1.000  C
  C12      1.0000 0.98060  0.93770  0.78970  Biso   1.000  C
  F13      1.0000 0.09370  0.15480  0.22940  Biso   1.000  F
  F14      1.0000 0.90630  0.84520  0.77060  Biso   1.000  F
  F15      1.0000 0.89500  0.07700  0.17120  Biso   1.000  F
  F16      1.0000 0.10500  0.92300  0.82880  Biso   1.000  F
  F17      1.0000 0.04050  0.00300  0.13490  Biso   1.000  F
  F18      1.0000 0.95950  0.99700  0.86510  Biso   1.000  F
  C13      1.0000 0.05600  0.02290  0.31450  Biso   1.000  C
  C14      1.0000 0.94400  0.97710  0.68550  Biso   1.000  C
  C15      1.0000 0.15840  0.96380  0.33870  Biso   1.000  C
  C16      1.0000 0.84160  0.03620  0.66130  Biso   1.000  C
  H3       1.0000 0.19960  0.94830  0.28920  Biso   1.000  H
  H4       1.0000 0.80040  0.05170  0.71080  Biso   1.000  H
  C17      1.0000 0.20180  0.92730  0.43250  Biso   1.000  C
  C18      1.0000 0.79820  0.07270  0.56750  Biso   1.000  C
  C19      1.0000 0.31700  0.86490  0.45460  Biso   1.000  C
  C20      1.0000 0.68300  0.13510  0.54540  Biso   1.000  C
  F19      1.0000 0.41370  0.90000  0.54950  Biso   1.000  F
  F20      1.0000 0.58630  0.10000  0.45050  Biso   1.000  F
  F21      1.0000 0.27330  0.76930  0.45100  Biso   1.000  F
  F22      1.0000 0.72670  0.23070  0.54900  Biso   1.000  F
  F23      1.0000 0.37650  0.86410  0.38640  Biso   1.000  F
  F24      1.0000 0.62350  0.13590  0.61360  Biso   1.000  F
  O7       1.0000 0.15620  0.93617  0.50540  Biso   1.000  O
  O8       1.0000 0.84380  0.06383  0.49460  Biso   1.000  O
  O9       1.0000 0.58790  0.48115  0.17400  Biso   1.000  O
  O10      1.0000 0.41210  0.51885  0.82600  Biso   1.000  O
  N1       1.0000 0.71470  0.47280  0.22790  Biso   1.000  N
  N2       1.0000 0.28530  0.52720  0.77210  Biso   1.000  N
  C21      1.0000 0.75290  0.36940  0.24490  Biso   1.000  C
  C22      1.0000 0.24710  0.63060  0.75510  Biso   1.000  C
  C23      1.0000 0.68230  0.28730  0.14030  Biso   1.000  C
  C24      1.0000 0.31770  0.71270  0.85970  Biso   1.000  C
  H5       1.0000 0.58220  0.27910  0.11640  Biso   1.000  H
  H6       1.0000 0.41780  0.72090  0.88360  Biso   1.000  H
  H7       1.0000 0.71010  0.22110  0.15270  Biso   1.000  H
  H8       1.0000 0.28990  0.77890  0.84730  Biso   1.000  H
  H9       1.0000 0.70930  0.30880  0.08470  Biso   1.000  H
  H10      1.0000 0.29070  0.69120  0.91530  Biso   1.000  H
  C25      1.0000 0.70260  0.34170  0.33050  Biso   1.000  C
  C26      1.0000 0.29740  0.65830  0.66950  Biso   1.000  C
  H11      1.0000 0.60170  0.32820  0.30020  Biso   1.000  H
  H12      1.0000 0.39830  0.67180  0.69980  Biso   1.000  H
  H13      1.0000 0.73840  0.39960  0.39340  Biso   1.000  H
  H14      1.0000 0.26160  0.60040  0.60660  Biso   1.000  H
  H15      1.0000 0.73560  0.27970  0.35240  Biso   1.000  H
  H16      1.0000 0.26440  0.72030  0.64760  Biso   1.000  H
  C27      1.0000 0.91100  0.39900  0.28720  Biso   1.000  C
  C28      1.0000 0.08900  0.60100  0.71280  Biso   1.000  C
  C29      1.0000 0.99290  0.34750  0.37620  Biso   1.000  C
  C30      1.0000 0.00710  0.65250  0.62380  Biso   1.000  C
  H17      1.0000 0.09150  0.36970  0.39550  Biso   1.000  H
  H18      1.0000 0.90850  0.63030  0.60450  Biso   1.000  H
  H19      1.0000 0.96730  0.27210  0.35080  Biso   1.000  H
  H20      1.0000 0.03270  0.72790  0.64920  Biso   1.000  H
  H21      1.0000 0.97260  0.36770  0.43970  Biso   1.000  H
  H22      1.0000 0.02740  0.63230  0.56030  Biso   1.000  H
  C31      1.0000 0.96550  0.39120  0.19860  Biso   1.000  C
  C32      1.0000 0.03450  0.60880  0.80140  Biso   1.000  C
  H23      1.0000 0.06630  0.40510  0.23140  Biso   1.000  H
  H24      1.0000 0.93370  0.59490  0.76860  Biso   1.000  H
  H25      1.0000 0.93340  0.44210  0.15480  Biso   1.000  H
  H26      1.0000 0.06660  0.55790  0.84520  Biso   1.000  H
  H27      1.0000 0.93160  0.32130  0.15260  Biso   1.000  H
  H28      1.0000 0.06840  0.67870  0.84740  Biso   1.000  H
  N3       1.0000 0.93370  0.51380  0.33400  Biso   1.000  N
  N4       1.0000 0.06630  0.48620  0.66600  Biso   1.000  N
  O11      1.0000 0.05140  0.56750  0.39430  Biso   1.000  O
  O12      1.0000 0.94860  0.43250  0.60570  Biso   1.000  O
  C33      1.0000 0.81670  0.55200  0.29000  Biso   1.000  C
  C34      1.0000 0.18330  0.44800  0.71000  Biso   1.000  C
  C35      1.0000 0.80550  0.65840  0.31030  Biso   1.000  C
  C36      1.0000 0.19450  0.34160  0.68970  Biso   1.000  C
  C37      1.0000 0.90820  0.74440  0.37860  Biso   1.000  C
  C38      1.0000 0.09180  0.25560  0.62140  Biso   1.000  C
  H29      1.0000 0.00130  0.74040  0.41860  Biso   1.000  H
  H30      1.0000 0.99870  0.25960  0.58140  Biso   1.000  H
  N5       1.0000 0.85930  0.83120  0.38030  Biso   1.000  N
  N6       1.0000 0.14070  0.16880  0.61970  Biso   1.000  N
  N7       1.0000 0.72340  0.80230  0.31130  Biso   1.000  N
  N8       1.0000 0.27660  0.19770  0.68870  Biso   1.000  N
  C39      1.0000 0.63340  0.87850  0.28960  Biso   1.000  C
  C40      1.0000 0.36660  0.12150  0.71040  Biso   1.000  C
  H31      1.0000 0.55340  0.85640  0.30640  Biso   1.000  H
  H32      1.0000 0.44660  0.14360  0.69360  Biso   1.000  H
  H33      1.0000 0.68450  0.94590  0.33910  Biso   1.000  H
  H34      1.0000 0.31550  0.05410  0.66090  Biso   1.000  H
  C41      1.0000 0.58460  0.89310  0.18280  Biso   1.000  C
  C42      1.0000 0.41540  0.10690  0.81720  Biso   1.000  C
  H35      1.0000 0.52290  0.82850  0.13380  Biso   1.000  H
  H36      1.0000 0.47710  0.17150  0.86620  Biso   1.000  H
  H37      1.0000 0.66360  0.90660  0.16250  Biso   1.000  H
  H38      1.0000 0.33640  0.09340  0.83750  Biso   1.000  H
  C43      1.0000 0.50460  0.98500  0.16680  Biso   1.000  C
  C44      1.0000 0.49540  0.01500  0.83320  Biso   1.000  C
  H39      1.0000 0.53200  0.03120  0.23830  Biso   1.000  H
  H40      1.0000 0.46800  0.96880  0.76170  Biso   1.000  H
  H41      1.0000 0.53530  0.02540  0.12220  Biso   1.000  H
  H42      1.0000 0.46470  0.97460  0.87780  Biso   1.000  H
  C45      1.0000 0.38540  0.96340  0.12700  Biso   1.000  C
  C46      1.0000 0.61460  0.03660  0.87300  Biso   1.000  C
  H43      1.0000 0.34700  0.02670  0.12950  Biso   1.000  H
  H44      1.0000 0.65300  0.97330  0.87050  Biso   1.000  H
  H45      1.0000 0.35300  0.91820  0.16620  Biso   1.000  H
  H46      1.0000 0.64700  0.08180  0.83380  Biso   1.000  H
  H47      1.0000 0.35540  0.92720  0.05170  Biso   1.000  H
  H48      1.0000 0.64460  0.07280  0.94830  Biso   1.000  H
  C47      1.0000 0.68820  0.70010  0.26970  Biso   1.000  C
  C48      1.0000 0.31180  0.29990  0.73030  Biso   1.000  C
  H49      1.0000 0.59920  0.66300  0.22120  Biso   1.000  H
  H50      1.0000 0.40080  0.33700  0.77880  Biso   1.000  H
  C49      1.0000 0.42900  0.35600  0.50400  Biso   1.000  C
  C50      1.0000 0.57100  0.64400  0.49600  Biso   1.000  C
  H51      1.0000 0.33730  0.31190  0.46430  Biso   1.000  H
  H52      1.0000 0.66270  0.68810  0.53570  Biso   1.000  H
  H53      1.0000 0.49730  0.32340  0.48800  Biso   1.000  H
  H54      1.0000 0.50270  0.67660  0.51200  Biso   1.000  H
  H55      1.0000 0.44630  0.36440  0.57870  Biso   1.000  H
  H56      1.0000 0.55370  0.63560  0.42130  Biso   1.000  H
  C51      1.0000 0.39300  0.41200  0.40800  Biso   1.000  C
  C52      1.0000 0.60700  0.58800  0.59200  Biso   1.000  C
  H57      1.0000 0.29880  0.42180  0.38330  Biso   1.000  H
  H58      1.0000 0.70120  0.57820  0.61670  Biso   1.000  H
  H59      1.0000 0.41630  0.39200  0.34650  Biso   1.000  H
  H60      1.0000 0.58370  0.60800  0.65350  Biso   1.000  H
  C53      1.0000 0.50000  0.50000  0.50000  Biso   1.000  C
  H61      1.0000 0.58040  0.47840  0.54720  Biso   1.000  H
  H62      1.0000 0.41960  0.52160  0.45280  Biso   1.000  H
  H63      1.0000 0.45750  0.53360  0.54370  Biso   1.000  H
  H64      1.0000 0.54250  0.46640  0.45630  Biso   1.000  H
  C54      1.0000 0.43900  0.41800  0.54800  Biso   1.000  C
  C55      1.0000 0.56100  0.58200  0.45200  Biso   1.000  C
  H65      1.0000 0.48000  0.59440  0.39640  Biso   1.000  H
  H66      1.0000 0.52000  0.40560  0.60360  Biso   1.000  H
  H67      1.0000 0.38200  0.44650  0.58090  Biso   1.000  H
  H68      1.0000 0.61800  0.55350  0.41910  Biso   1.000  H
  C56      1.0000 0.39900  0.31500  0.46200  Biso   1.000  C
  C57      1.0000 0.60100  0.68500  0.53800  Biso   1.000  C
  H69      1.0000 0.60340  0.74140  0.49990  Biso   1.000  H
  H70      1.0000 0.39660  0.25860  0.50010  Biso   1.000  H
  H71      1.0000 0.39980  0.28770  0.39280  Biso   1.000  H
  H72      1.0000 0.60020  0.71230  0.60720  Biso   1.000  H
  H73      1.0000 0.31820  0.34390  0.45320  Biso   1.000  H
  H74      1.0000 0.68180  0.65610  0.54680  Biso   1.000  H
