data_image0
_cell_length_a       10.783
_cell_length_b       13.337
_cell_length_c       13.633
_cell_angle_alpha    98.858
_cell_angle_beta     112.084
_cell_angle_gamma    96.551

_symmetry_space_group_name_H-M    "P 1"
_symmetry_int_tables_number       1

loop_
  _symmetry_equiv_pos_as_xyz
  'x, y, z'

loop_
  _atom_site_label
  _atom_site_occupancy
  _atom_site_fract_x
  _atom_site_fract_y
  _atom_site_fract_z
  _atom_site_thermal_displace_type
  _atom_site_B_iso_or_equiv
  _atom_site_type_symbol
  Cu1      1.0000 0.00000  0.00000  0.00000  Biso   1.000  Cu
  O1       1.0000 0.12960  0.12721  0.02720  Biso   1.000  O
  O2       1.0000 0.87040  0.87279  0.97280  Biso   1.000  O
  C1       1.0000 0.30250  0.24670  0.02090  Biso   1.000  C
  C2       1.0000 0.69750  0.75330  0.97910  Biso   1.000  C
  F1       1.0000 0.34240  0.28770  0.11950  Biso   1.000  F
  F2       1.0000 0.65760  0.71230  0.88050  Biso   1.000  F
  F3       1.0000 0.22090  0.30540  0.96640  Biso   1.000  F
  F4       1.0000 0.77910  0.69460  0.03360  Biso   1.000  F
  F5       1.0000 0.40540  0.25490  0.97900  Biso   1.000  F
  F6       1.0000 0.59460  0.74510  0.02100  Biso   1.000  F
  F7       1.0000 0.38480  0.27950  0.12560  Biso   1.000  F
  F8       1.0000 0.61520  0.72050  0.87440  Biso   1.000  F
  F9       1.0000 0.21910  0.30840  0.00560  Biso   1.000  F
  F10      1.0000 0.78090  0.69160  0.99440  Biso   1.000  F
  F11      1.0000 0.37460  0.26050  0.98300  Biso   1.000  F
  F12      1.0000 0.62540  0.73950  0.01700  Biso   1.000  F
  C3       1.0000 0.22500  0.13570  0.99590  Biso   1.000  C
  C4       1.0000 0.77500  0.86430  0.00410  Biso   1.000  C
  C5       1.0000 0.26740  0.05810  0.94310  Biso   1.000  C
  C6       1.0000 0.73260  0.94190  0.05690  Biso   1.000  C
  H1       1.0000 0.33400  0.07400  0.92300  Biso   1.000  H
  H2       1.0000 0.66600  0.92600  0.07700  Biso   1.000  H
  C7       1.0000 0.20660  0.95580  0.92130  Biso   1.000  C
  C8       1.0000 0.79340  0.04420  0.07870  Biso   1.000  C
  C9       1.0000 0.25960  0.87530  0.86220  Biso   1.000  C
  C10      1.0000 0.74040  0.12470  0.13780  Biso   1.000  C
  F13      1.0000 0.24170  0.79110  0.87770  Biso   1.000  F
  F14      1.0000 0.75830  0.20890  0.12230  Biso   1.000  F
  F15      1.0000 0.39080  0.90320  0.88670  Biso   1.000  F
  F16      1.0000 0.60920  0.09680  0.11330  Biso   1.000  F
  F17      1.0000 0.21070  0.86710  0.76430  Biso   1.000  F
  F18      1.0000 0.78930  0.13290  0.23570  Biso   1.000  F
  F19      1.0000 0.29580  0.80160  0.91600  Biso   1.000  F
  F20      1.0000 0.70420  0.19840  0.08400  Biso   1.000  F
  F21      1.0000 0.34200  0.90710  0.82240  Biso   1.000  F
  F22      1.0000 0.65800  0.09290  0.17760  Biso   1.000  F
  F23      1.0000 0.14950  0.82330  0.76920  Biso   1.000  F
  F24      1.0000 0.85050  0.17670  0.23080  Biso   1.000  F
  O3       1.0000 0.11140  0.91783  0.94360  Biso   1.000  O
  O4       1.0000 0.88860  0.08217  0.05640  Biso   1.000  O
  Cu2      1.0000 0.50000  0.50000  0.50000  Biso   1.000  Cu
  O5       1.0000 0.48450  0.54812  0.36700  Biso   1.000  O
  O6       1.0000 0.51550  0.45188  0.63300  Biso   1.000  O
  C11      1.0000 0.50600  0.55870  0.20350  Biso   1.000  C
  C12      1.0000 0.49400  0.44130  0.79650  Biso   1.000  C
  F25      1.0000 0.37330  0.54320  0.15430  Biso   1.000  F
  F26      1.0000 0.62670  0.45680  0.84570  Biso   1.000  F
  F27      1.0000 0.54670  0.64950  0.21120  Biso   1.000  F
  F28      1.0000 0.45330  0.35050  0.78880  Biso   1.000  F
  F29      1.0000 0.54320  0.50530  0.13100  Biso   1.000  F
  F30      1.0000 0.45680  0.49470  0.86900  Biso   1.000  F
  F31      1.0000 0.60430  0.64970  0.22740  Biso   1.000  F
  F32      1.0000 0.39570  0.35030  0.77260  Biso   1.000  F
  F33      1.0000 0.39130  0.58890  0.17510  Biso   1.000  F
  F34      1.0000 0.60870  0.41110  0.82490  Biso   1.000  F
  F35      1.0000 0.50610  0.49630  0.12540  Biso   1.000  F
  F36      1.0000 0.49390  0.50370  0.87460  Biso   1.000  F
  C13      1.0000 0.54870  0.52120  0.30980  Biso   1.000  C
  C14      1.0000 0.45130  0.47880  0.69020  Biso   1.000  C
  C15      1.0000 0.65150  0.46340  0.33470  Biso   1.000  C
  C16      1.0000 0.34850  0.53660  0.66530  Biso   1.000  C
  H3       1.0000 0.69300  0.45500  0.29500  Biso   1.000  H
  H4       1.0000 0.30700  0.54500  0.70500  Biso   1.000  H
  C17      1.0000 0.69660  0.42680  0.42770  Biso   1.000  C
  C18      1.0000 0.30340  0.57320  0.57230  Biso   1.000  C
  C19      1.0000 0.81340  0.36670  0.44980  Biso   1.000  C
  C20      1.0000 0.18660  0.63330  0.55020  Biso   1.000  C
  F37      1.0000 0.85820  0.35150  0.37430  Biso   1.000  F
  F38      1.0000 0.14180  0.64850  0.62570  Biso   1.000  F
  F39      1.0000 0.77900  0.27680  0.46600  Biso   1.000  F
  F40      1.0000 0.22100  0.72320  0.53400  Biso   1.000  F
  F41      1.0000 0.92250  0.41660  0.53360  Biso   1.000  F
  F42      1.0000 0.07750  0.58340  0.46640  Biso   1.000  F
  F43      1.0000 0.90350  0.39430  0.54870  Biso   1.000  F
  F44      1.0000 0.09650  0.60570  0.45130  Biso   1.000  F
  F45      1.0000 0.76700  0.26900  0.43200  Biso   1.000  F
  F46      1.0000 0.23300  0.73100  0.56800  Biso   1.000  F
  F47      1.0000 0.88020  0.37710  0.38610  Biso   1.000  F
  F48      1.0000 0.11980  0.62290  0.61390  Biso   1.000  F
  O7       1.0000 0.65450  0.43716  0.50270  Biso   1.000  O
  O8       1.0000 0.34550  0.56284  0.49730  Biso   1.000  O
  O9       1.0000 0.09130  0.98214  0.17790  Biso   1.000  O
  O10      1.0000 0.90870  0.01786  0.82210  Biso   1.000  O
  N1       1.0000 0.21810  0.97330  0.23110  Biso   1.000  N
  N2       1.0000 0.78190  0.02670  0.76890  Biso   1.000  N
  C21      1.0000 0.25710  0.87150  0.24760  Biso   1.000  C
  C22      1.0000 0.74290  0.12850  0.75240  Biso   1.000  C
  C23      1.0000 0.21120  0.84440  0.33550  Biso   1.000  C
  C24      1.0000 0.78880  0.15560  0.66450  Biso   1.000  C
  H5       1.0000 0.11800  0.84100  0.31800  Biso   1.000  H
  H6       1.0000 0.88200  0.15900  0.68200  Biso   1.000  H
  H7       1.0000 0.25300  0.89700  0.39900  Biso   1.000  H
  H8       1.0000 0.74700  0.10300  0.60100  Biso   1.000  H
  H9       1.0000 0.20700  0.79200  0.34200  Biso   1.000  H
  H10      1.0000 0.79300  0.20800  0.65800  Biso   1.000  H
  C25      1.0000 0.18320  0.78970  0.14460  Biso   1.000  C
  C26      1.0000 0.81680  0.21030  0.85540  Biso   1.000  C
  H11      1.0000 0.18900  0.80100  0.09700  Biso   1.000  H
  H12      1.0000 0.81100  0.19900  0.90300  Biso   1.000  H
  H13      1.0000 0.06200  0.78300  0.11700  Biso   1.000  H
  H14      1.0000 0.93800  0.21700  0.88300  Biso   1.000  H
  H15      1.0000 0.22000  0.73600  0.15500  Biso   1.000  H
  H16      1.0000 0.78000  0.26400  0.84500  Biso   1.000  H
  C27      1.0000 0.41330  0.90120  0.28830  Biso   1.000  C
  C28      1.0000 0.58670  0.09880  0.71170  Biso   1.000  C
  C29      1.0000 0.49390  0.84910  0.37740  Biso   1.000  C
  C30      1.0000 0.50610  0.15090  0.62260  Biso   1.000  C
  H17      1.0000 0.57900  0.87100  0.39800  Biso   1.000  H
  H18      1.0000 0.42100  0.12900  0.60200  Biso   1.000  H
  H19      1.0000 0.47900  0.77700  0.37100  Biso   1.000  H
  H20      1.0000 0.52100  0.22300  0.62900  Biso   1.000  H
  H21      1.0000 0.46400  0.86600  0.44900  Biso   1.000  H
  H22      1.0000 0.53600  0.13400  0.55100  Biso   1.000  H
  C31      1.0000 0.46960  0.89680  0.20080  Biso   1.000  C
  C32      1.0000 0.53040  0.10320  0.79920  Biso   1.000  C
  H23      1.0000 0.40900  0.91400  0.13300  Biso   1.000  H
  H24      1.0000 0.59100  0.08600  0.86700  Biso   1.000  H
  H25      1.0000 0.45800  0.85500  0.17600  Biso   1.000  H
  H26      1.0000 0.54200  0.14500  0.82400  Biso   1.000  H
  H27      1.0000 0.50600  0.06300  0.05300  Biso   1.000  H
  H28      1.0000 0.49400  0.93700  0.94700  Biso   1.000  H
  N3       1.0000 0.43630  0.01450  0.33430  Biso   1.000  N
  N4       1.0000 0.56370  0.98550  0.66570  Biso   1.000  N
  O11      1.0000 0.55250  0.06810  0.39350  Biso   1.000  O
  O12      1.0000 0.44750  0.93190  0.60650  Biso   1.000  O
  C33      1.0000 0.31950  0.05370  0.29120  Biso   1.000  C
  C34      1.0000 0.68050  0.94630  0.70880  Biso   1.000  C
  C35      1.0000 0.30840  0.15920  0.31240  Biso   1.000  C
  C36      1.0000 0.69160  0.84080  0.68760  Biso   1.000  C
  C37      1.0000 0.41070  0.24450  0.37940  Biso   1.000  C
  C38      1.0000 0.58930  0.75550  0.62060  Biso   1.000  C
  H29      1.0000 0.51000  0.24700  0.43600  Biso   1.000  H
  H30      1.0000 0.49000  0.75300  0.56400  Biso   1.000  H
  N5       1.0000 0.36000  0.33170  0.38010  Biso   1.000  N
  N6       1.0000 0.64000  0.66830  0.61990  Biso   1.000  N
  N7       1.0000 0.22630  0.30250  0.31230  Biso   1.000  N
  N8       1.0000 0.77370  0.69750  0.68770  Biso   1.000  N
  C39      1.0000 0.13630  0.37920  0.29220  Biso   1.000  C
  C40      1.0000 0.86370  0.62080  0.70780  Biso   1.000  C
  H31      1.0000 0.06110  0.35920  0.31330  Biso   1.000  H
  H32      1.0000 0.93890  0.64080  0.68670  Biso   1.000  H
  H33      1.0000 0.18790  0.44650  0.33850  Biso   1.000  H
  H34      1.0000 0.81210  0.55350  0.66150  Biso   1.000  H
  C41      1.0000 0.08140  0.38970  0.18290  Biso   1.000  C
  C42      1.0000 0.91860  0.61030  0.81710  Biso   1.000  C
  H35      1.0000 0.01790  0.32630  0.13680  Biso   1.000  H
  H36      1.0000 0.98210  0.67370  0.86320  Biso   1.000  H
  H37      1.0000 0.15480  0.40140  0.15780  Biso   1.000  H
  H38      1.0000 0.84520  0.59860  0.84220  Biso   1.000  H
  C43      1.0000 0.00220  0.48690  0.17460  Biso   1.000  C
  C44      1.0000 0.99780  0.51310  0.82540  Biso   1.000  C
  H39      1.0000 0.03450  0.52930  0.24790  Biso   1.000  H
  H40      1.0000 0.96550  0.47070  0.75210  Biso   1.000  H
  H41      1.0000 0.03240  0.52880  0.13180  Biso   1.000  H
  H42      1.0000 0.96760  0.47120  0.86820  Biso   1.000  H
  C45      1.0000 0.89020  0.47360  0.14030  Biso   1.000  C
  C46      1.0000 0.10980  0.52640  0.85970  Biso   1.000  C
  H43      1.0000 0.86010  0.53910  0.13410  Biso   1.000  H
  H44      1.0000 0.13990  0.46090  0.86590  Biso   1.000  H
  H45      1.0000 0.85710  0.44190  0.18740  Biso   1.000  H
  H46      1.0000 0.14290  0.55810  0.81260  Biso   1.000  H
  H47      1.0000 0.85450  0.42830  0.06910  Biso   1.000  H
  H48      1.0000 0.14550  0.57170  0.93090  Biso   1.000  H
  C47      1.0000 0.19270  0.20240  0.27140  Biso   1.000  C
  C48      1.0000 0.80730  0.79760  0.72860  Biso   1.000  C
  H49      1.0000 0.11100  0.17400  0.23900  Biso   1.000  H
  H50      1.0000 0.88900  0.82600  0.76100  Biso   1.000  H
  Cl1      1.0000 0.85000  0.76320  0.46780  Biso   1.000  Cl
  Cl2      1.0000 0.15000  0.23680  0.53220  Biso   1.000  Cl
  C49      1.0000 0.94120  0.87370  0.52200  Biso   1.000  C
  C50      1.0000 0.05880  0.12630  0.47800  Biso   1.000  C
  C51      1.0000 0.94970  0.95640  0.47690  Biso   1.000  C
  C52      1.0000 0.05030  0.04360  0.52310  Biso   1.000  C
