data_image0
_cell_length_a       10.69
_cell_length_b       13.331
_cell_length_c       13.495
_cell_angle_alpha    98.614
_cell_angle_beta     111.093
_cell_angle_gamma    97.299

_symmetry_space_group_name_H-M    "P 1"
_symmetry_int_tables_number       1

loop_
  _symmetry_equiv_pos_as_xyz
  'x, y, z'

loop_
  _atom_site_label
  _atom_site_occupancy
  _atom_site_fract_x
  _atom_site_fract_y
  _atom_site_fract_z
  _atom_site_thermal_displace_type
  _atom_site_B_iso_or_equiv
  _atom_site_type_symbol
  Cu1      1.0000 0.00000  0.00000  0.00000  Biso   1.000  Cu
  O1       1.0000 0.08607  0.98196  0.18079  Biso   1.000  O
  O2       1.0000 0.91393  0.01804  0.81921  Biso   1.000  O
  O3       1.0000 0.11175  0.91720  0.94483  Biso   1.000  O
  O4       1.0000 0.88825  0.08280  0.05517  Biso   1.000  O
  N1       1.0000 0.21180  0.97271  0.23242  Biso   1.000  N
  N2       1.0000 0.78820  0.02729  0.76758  Biso   1.000  N
  C1       1.0000 0.26570  0.87420  0.86400  Biso   1.000  C
  C2       1.0000 0.73430  0.12580  0.13600  Biso   1.000  C
  C3       1.0000 0.25040  0.86974  0.24965  Biso   1.000  C
  C4       1.0000 0.74960  0.13026  0.75035  Biso   1.000  C
  F1       1.0000 0.29470  0.80010  0.91850  Biso   1.000  F
  F2       1.0000 0.70530  0.19990  0.08150  Biso   1.000  F
  F3       1.0000 0.20160  0.85860  0.76570  Biso   1.000  F
  F4       1.0000 0.79840  0.14140  0.23430  Biso   1.000  F
  O5       1.0000 0.13222  0.12827  0.02769  Biso   1.000  O
  O6       1.0000 0.86778  0.87173  0.97231  Biso   1.000  O
  N3       1.0000 0.43220  0.01323  0.33378  Biso   1.000  N
  N4       1.0000 0.56780  0.98677  0.66622  Biso   1.000  N
  O7       1.0000 0.55102  0.06593  0.39128  Biso   1.000  O
  O8       1.0000 0.44898  0.93407  0.60872  Biso   1.000  O
  C5       1.0000 0.20970  0.95450  0.92320  Biso   1.000  C
  C6       1.0000 0.79030  0.04550  0.07680  Biso   1.000  C
  C7       1.0000 0.17550  0.78684  0.14452  Biso   1.000  C
  C8       1.0000 0.82450  0.21316  0.85548  Biso   1.000  C
  H1       1.0000 0.07710  0.77440  0.12810  Biso   1.000  H
  H2       1.0000 0.92290  0.22560  0.87190  Biso   1.000  H
  H3       1.0000 0.20910  0.72250  0.15390  Biso   1.000  H
  H4       1.0000 0.79090  0.27750  0.84610  Biso   1.000  H
  H5       1.0000 0.19250  0.81080  0.08450  Biso   1.000  H
  H6       1.0000 0.80750  0.18920  0.91550  Biso   1.000  H
  F5       1.0000 0.15920  0.82160  0.76700  Biso   1.000  F
  F6       1.0000 0.84080  0.17840  0.23300  Biso   1.000  F
  F7       1.0000 0.25830  0.78790  0.89350  Biso   1.000  F
  F8       1.0000 0.74170  0.21210  0.10650  Biso   1.000  F
  N5       1.0000 0.36350  0.33272  0.37836  Biso   1.000  N
  N6       1.0000 0.63650  0.66728  0.62164  Biso   1.000  N
  C9       1.0000 0.27350  0.05824  0.94554  Biso   1.000  C
  C10      1.0000 0.72650  0.94176  0.05446  Biso   1.000  C
  H7       1.0000 0.34850  0.07570  0.92520  Biso   1.000  H
  H8       1.0000 0.65150  0.92430  0.07480  Biso   1.000  H
  C11      1.0000 0.20030  0.84314  0.33855  Biso   1.000  C
  C12      1.0000 0.79970  0.15686  0.66145  Biso   1.000  C
  H9       1.0000 0.10010  0.82590  0.30830  Biso   1.000  H
  H10      1.0000 0.89990  0.17410  0.69170  Biso   1.000  H
  H11      1.0000 0.23210  0.90280  0.39960  Biso   1.000  H
  H12      1.0000 0.76790  0.09720  0.60040  Biso   1.000  H
  H13      1.0000 0.23680  0.78380  0.36410  Biso   1.000  H
  H14      1.0000 0.76320  0.21620  0.63590  Biso   1.000  H
  F9       1.0000 0.36200  0.90510  0.83350  Biso   1.000  F
  F10      1.0000 0.63800  0.09490  0.16650  Biso   1.000  F
  F11      1.0000 0.39700  0.90720  0.88530  Biso   1.000  F
  F12      1.0000 0.60300  0.09280  0.11470  Biso   1.000  F
  N7       1.0000 0.22860  0.30377  0.31072  Biso   1.000  N
  N8       1.0000 0.77140  0.69623  0.68928  Biso   1.000  N
  C13      1.0000 0.40610  0.89811  0.28673  Biso   1.000  C
  C14      1.0000 0.59390  0.10189  0.71327  Biso   1.000  C
  C15      1.0000 0.22960  0.13579  0.99668  Biso   1.000  C
  C16      1.0000 0.77040  0.86421  0.00332  Biso   1.000  C
  F13      1.0000 0.23470  0.30270  0.97900  Biso   1.000  F
  F14      1.0000 0.76530  0.69730  0.02100  Biso   1.000  F
  F15      1.0000 0.34700  0.29080  0.12090  Biso   1.000  F
  F16      1.0000 0.65300  0.70920  0.87910  Biso   1.000  F
  F17      1.0000 0.37840  0.28590  0.12790  Biso   1.000  F
  F18      1.0000 0.62160  0.71410  0.87210  Biso   1.000  F
  C17      1.0000 0.30990  0.24790  0.01960  Biso   1.000  C
  C18      1.0000 0.69010  0.75210  0.98040  Biso   1.000  C
  C19      1.0000 0.48820  0.84649  0.37523  Biso   1.000  C
  C20      1.0000 0.51180  0.15351  0.62477  Biso   1.000  C
  H15      1.0000 0.58600  0.86970  0.39330  Biso   1.000  H
  H16      1.0000 0.41400  0.13030  0.60670  Biso   1.000  H
  H17      1.0000 0.46350  0.77120  0.34930  Biso   1.000  H
  H18      1.0000 0.53650  0.22880  0.65070  Biso   1.000  H
  H19      1.0000 0.46790  0.86540  0.44010  Biso   1.000  H
  H20      1.0000 0.53210  0.13460  0.55990  Biso   1.000  H
  F19      1.0000 0.21500  0.30970  0.97030  Biso   1.000  F
  F20      1.0000 0.78500  0.69030  0.02970  Biso   1.000  F
  F21      1.0000 0.41530  0.25560  0.99280  Biso   1.000  F
  F22      1.0000 0.58470  0.74440  0.00720  Biso   1.000  F
  C21      1.0000 0.45880  0.88996  0.19470  Biso   1.000  C
  C22      1.0000 0.54120  0.11004  0.80530  Biso   1.000  C
  H21      1.0000 0.55880  0.90950  0.22560  Biso   1.000  H
  H22      1.0000 0.44120  0.09050  0.77440  Biso   1.000  H
  H23      1.0000 0.42050  0.93660  0.14710  Biso   1.000  H
  H24      1.0000 0.57950  0.06340  0.85290  Biso   1.000  H
  H25      1.0000 0.43080  0.81860  0.15250  Biso   1.000  H
  H26      1.0000 0.56920  0.18140  0.84750  Biso   1.000  H
  F23      1.0000 0.39570  0.25880  0.97540  Biso   1.000  F
  F24      1.0000 0.60430  0.74120  0.02460  Biso   1.000  F
  C23      1.0000 0.31670  0.05148  0.29236  Biso   1.000  C
  C24      1.0000 0.68330  0.94852  0.70764  Biso   1.000  C
  C25      1.0000 0.30740  0.15978  0.31169  Biso   1.000  C
  C26      1.0000 0.69260  0.84022  0.68831  Biso   1.000  C
  C27      1.0000 0.41120  0.24470  0.37794  Biso   1.000  C
  C28      1.0000 0.58880  0.75530  0.62206  Biso   1.000  C
  H27      1.0000 0.50330  0.24020  0.41730  Biso   1.000  H
  H28      1.0000 0.49670  0.75980  0.58270  Biso   1.000  H
  C29      1.0000 0.19180  0.20172  0.27041  Biso   1.000  C
  C30      1.0000 0.80820  0.79828  0.72959  Biso   1.000  C
  H29      1.0000 0.10310  0.16490  0.22250  Biso   1.000  H
  H30      1.0000 0.89690  0.83510  0.77750  Biso   1.000  H
  C31      1.0000 0.14240  0.38160  0.28920  Biso   1.000  C
  C32      1.0000 0.85760  0.61840  0.71080  Biso   1.000  C
  H31      1.0000 0.07180  0.36810  0.31950  Biso   1.000  H
  H32      1.0000 0.92820  0.63190  0.68050  Biso   1.000  H
  H33      1.0000 0.20000  0.45040  0.32920  Biso   1.000  H
  H34      1.0000 0.80000  0.54960  0.67080  Biso   1.000  H
  C33      1.0000 0.07640  0.38620  0.17940  Biso   1.000  C
  C34      1.0000 0.92360  0.61380  0.82060  Biso   1.000  C
  H35      1.0000 0.00420  0.32350  0.14120  Biso   1.000  H
  H36      1.0000 0.99580  0.67650  0.85880  Biso   1.000  H
  H37      1.0000 0.14330  0.38780  0.14420  Biso   1.000  H
  H38      1.0000 0.85670  0.61220  0.85580  Biso   1.000  H
  C35      1.0000 0.00810  0.48920  0.16900  Biso   1.000  C
  C36      1.0000 0.99190  0.51080  0.83100  Biso   1.000  C
  H39      1.0000 0.02110  0.52790  0.24160  Biso   1.000  H
  H40      1.0000 0.97890  0.47210  0.75840  Biso   1.000  H
  H41      1.0000 0.05060  0.53540  0.13390  Biso   1.000  H
  H42      1.0000 0.94940  0.46460  0.86610  Biso   1.000  H
  C37      1.0000 0.88320  0.45710  0.11180  Biso   1.000  C
  C38      1.0000 0.11680  0.54290  0.88820  Biso   1.000  C
  H43      1.0000 0.83670  0.51590  0.10420  Biso   1.000  H
  H44      1.0000 0.16330  0.48410  0.89580  Biso   1.000  H
  H45      1.0000 0.84330  0.41010  0.14670  Biso   1.000  H
  H46      1.0000 0.15670  0.58990  0.85330  Biso   1.000  H
  H47      1.0000 0.87210  0.42010  0.03980  Biso   1.000  H
  H48      1.0000 0.12790  0.57990  0.96020  Biso   1.000  H
  Cu2      1.0000 0.50000  0.50000  0.50000  Biso   1.000  Cu
  O9       1.0000 0.48454  0.55053  0.36513  Biso   1.000  O
  O10      1.0000 0.51546  0.44947  0.63487  Biso   1.000  O
  O11      1.0000 0.65678  0.43986  0.50183  Biso   1.000  O
  O12      1.0000 0.34322  0.56014  0.49817  Biso   1.000  O
  C39      1.0000 0.50580  0.56160  0.20030  Biso   1.000  C
  C40      1.0000 0.49420  0.43840  0.79970  Biso   1.000  C
  C41      1.0000 0.54990  0.52311  0.30750  Biso   1.000  C
  C42      1.0000 0.45010  0.47689  0.69250  Biso   1.000  C
  F25      1.0000 0.36520  0.53990  0.15290  Biso   1.000  F
  F26      1.0000 0.63480  0.46010  0.84710  Biso   1.000  F
  F27      1.0000 0.54610  0.65560  0.20880  Biso   1.000  F
  F28      1.0000 0.45390  0.34440  0.79120  Biso   1.000  F
  F29      1.0000 0.59560  0.64760  0.21530  Biso   1.000  F
  F30      1.0000 0.40440  0.35240  0.78470  Biso   1.000  F
  F31      1.0000 0.52730  0.51880  0.12580  Biso   1.000  F
  F32      1.0000 0.47270  0.48120  0.87420  Biso   1.000  F
  C43      1.0000 0.65250  0.46673  0.32999  Biso   1.000  C
  C44      1.0000 0.34750  0.53327  0.67001  Biso   1.000  C
  H49      1.0000 0.69240  0.45190  0.27830  Biso   1.000  H
  H50      1.0000 0.30760  0.54810  0.72170  Biso   1.000  H
  F33      1.0000 0.52820  0.48710  0.12140  Biso   1.000  F
  F34      1.0000 0.47180  0.51290  0.87860  Biso   1.000  F
  F35      1.0000 0.38660  0.58480  0.16780  Biso   1.000  F
  F36      1.0000 0.61340  0.41520  0.83220  Biso   1.000  F
  C45      1.0000 0.69990  0.43057  0.42662  Biso   1.000  C
  C46      1.0000 0.30010  0.56943  0.57338  Biso   1.000  C
  C47      1.0000 0.81620  0.37120  0.44590  Biso   1.000  C
  C48      1.0000 0.18380  0.62880  0.55410  Biso   1.000  C
  F37      1.0000 0.77280  0.26960  0.43320  Biso   1.000  F
  F38      1.0000 0.22720  0.73040  0.56680  Biso   1.000  F
  F39      1.0000 0.90050  0.40160  0.54670  Biso   1.000  F
  F40      1.0000 0.09950  0.59840  0.45330  Biso   1.000  F
  F41      1.0000 0.87940  0.37610  0.37410  Biso   1.000  F
  F42      1.0000 0.12060  0.62390  0.62590  Biso   1.000  F
  F43      1.0000 0.86510  0.36270  0.37220  Biso   1.000  F
  F44      1.0000 0.13490  0.63730  0.62780  Biso   1.000  F
  F45      1.0000 0.92730  0.41550  0.53670  Biso   1.000  F
  F46      1.0000 0.07270  0.58450  0.46330  Biso   1.000  F
  F47      1.0000 0.77100  0.27790  0.45640  Biso   1.000  F
  F48      1.0000 0.22900  0.72210  0.54360  Biso   1.000  F
  Br1      1.0000 0.15329  0.24694  0.53760  Biso   1.000  Br
  Br2      1.0000 0.84671  0.75306  0.46240  Biso   1.000  Br
  C49      1.0000 0.02620  0.12840  0.46180  Biso   1.000  C
  C50      1.0000 0.97380  0.87160  0.53820  Biso   1.000  C
  H51      1.0000 0.02300  0.10850  0.38940  Biso   1.000  H
  H52      1.0000 0.97700  0.89150  0.61060  Biso   1.000  H
  H53      1.0000 0.93760  0.13960  0.45760  Biso   1.000  H
  H54      1.0000 0.06240  0.86040  0.54240  Biso   1.000  H
  C51      1.0000 0.05530  0.04690  0.52820  Biso   1.000  C
  C52      1.0000 0.94470  0.95310  0.47180  Biso   1.000  C
  H55      1.0000 0.05620  0.06410  0.60010  Biso   1.000  H
  H56      1.0000 0.94380  0.93590  0.39990  Biso   1.000  H
  H57      1.0000 0.14280  0.03320  0.53200  Biso   1.000  H
  H58      1.0000 0.85720  0.96680  0.46800  Biso   1.000  H
  C53      1.0000 0.94130  0.95780  0.45780  Biso   1.000  C
  C54      1.0000 0.05870  0.04220  0.54220  Biso   1.000  C
  H59      1.0000 0.95860  0.93700  0.39340  Biso   1.000  H
  H60      1.0000 0.04140  0.06300  0.60660  Biso   1.000  H
  H61      1.0000 0.85730  0.98300  0.43630  Biso   1.000  H
  H62      1.0000 0.14270  0.01700  0.56370  Biso   1.000  H
  C55      1.0000 0.07540  0.14200  0.49910  Biso   1.000  C
  C56      1.0000 0.92460  0.85800  0.50090  Biso   1.000  C
  H63      1.0000 0.86120  0.86520  0.53570  Biso   1.000  H
  H64      1.0000 0.13880  0.13480  0.46430  Biso   1.000  H
  H65      1.0000 0.00710  0.84210  0.54920  Biso   1.000  H
  H66      1.0000 0.99290  0.15790  0.45080  Biso   1.000  H
  C57      1.0000 0.85350  0.78430  0.37900  Biso   1.000  C
  C58      1.0000 0.14650  0.21570  0.62100  Biso   1.000  C
  H67      1.0000 0.82630  0.71590  0.38810  Biso   1.000  H
  H68      1.0000 0.17370  0.28410  0.61190  Biso   1.000  H
  H69      1.0000 0.77510  0.80660  0.33290  Biso   1.000  H
  H70      1.0000 0.22490  0.19340  0.66710  Biso   1.000  H
  H71      1.0000 0.91990  0.78360  0.34640  Biso   1.000  H
  H72      1.0000 0.08010  0.21640  0.65360  Biso   1.000  H
