data_image0
_cell_length_a       10.651
_cell_length_b       13.2745
_cell_length_c       13.4414
_cell_angle_alpha    98.599
_cell_angle_beta     111.217
_cell_angle_gamma    97.238

_symmetry_space_group_name_H-M    "P 1"
_symmetry_int_tables_number       1

loop_
  _symmetry_equiv_pos_as_xyz
  'x, y, z'

loop_
  _atom_site_label
  _atom_site_occupancy
  _atom_site_fract_x
  _atom_site_fract_y
  _atom_site_fract_z
  _atom_site_thermal_displace_type
  _atom_site_B_iso_or_equiv
  _atom_site_type_symbol
  Cu1      1.0000 0.00000  0.00000  0.00000  Biso   1.000  Cu
  O1       1.0000 0.08711  0.98202  0.18050  Biso   1.000  O
  O2       1.0000 0.91289  0.01798  0.81950  Biso   1.000  O
  O3       1.0000 0.11163  0.91703  0.94439  Biso   1.000  O
  O4       1.0000 0.88837  0.08297  0.05561  Biso   1.000  O
  N1       1.0000 0.21291  0.97290  0.23214  Biso   1.000  N
  N2       1.0000 0.78709  0.02710  0.76786  Biso   1.000  N
  C1       1.0000 0.26220  0.87332  0.86290  Biso   1.000  C
  C2       1.0000 0.73780  0.12668  0.13710  Biso   1.000  C
  C3       1.0000 0.25080  0.86975  0.24926  Biso   1.000  C
  C4       1.0000 0.74920  0.13025  0.75074  Biso   1.000  C
  F1       1.0000 0.29400  0.79980  0.91860  Biso   1.000  F
  F2       1.0000 0.70600  0.20020  0.08140  Biso   1.000  F
  F3       1.0000 0.20400  0.86060  0.76390  Biso   1.000  F
  F4       1.0000 0.79600  0.13940  0.23610  Biso   1.000  F
  O5       1.0000 0.13175  0.12817  0.02780  Biso   1.000  O
  O6       1.0000 0.86825  0.87183  0.97220  Biso   1.000  O
  N3       1.0000 0.43282  0.01303  0.33369  Biso   1.000  N
  N4       1.0000 0.56718  0.98697  0.66631  Biso   1.000  N
  O7       1.0000 0.55185  0.06650  0.39135  Biso   1.000  O
  O8       1.0000 0.44815  0.93350  0.60865  Biso   1.000  O
  C5       1.0000 0.20992  0.95513  0.92286  Biso   1.000  C
  C6       1.0000 0.79008  0.04487  0.07714  Biso   1.000  C
  C7       1.0000 0.17740  0.78733  0.14461  Biso   1.000  C
  C8       1.0000 0.82260  0.21267  0.85539  Biso   1.000  C
  H1       1.0000 0.07840  0.77440  0.12750  Biso   1.000  H
  H2       1.0000 0.92160  0.22560  0.87250  Biso   1.000  H
  H3       1.0000 0.21170  0.72290  0.15430  Biso   1.000  H
  H4       1.0000 0.78830  0.27710  0.84570  Biso   1.000  H
  H5       1.0000 0.19470  0.81160  0.08460  Biso   1.000  H
  H6       1.0000 0.80530  0.18840  0.91540  Biso   1.000  H
  F5       1.0000 0.15730  0.82140  0.76910  Biso   1.000  F
  F6       1.0000 0.84270  0.17860  0.23090  Biso   1.000  F
  F7       1.0000 0.25830  0.78800  0.89240  Biso   1.000  F
  F8       1.0000 0.74170  0.21200  0.10760  Biso   1.000  F
  N5       1.0000 0.36310  0.33240  0.37849  Biso   1.000  N
  N6       1.0000 0.63690  0.66760  0.62151  Biso   1.000  N
  C9       1.0000 0.27307  0.05751  0.94532  Biso   1.000  C
  C10      1.0000 0.72693  0.94249  0.05468  Biso   1.000  C
  H7       1.0000 0.34860  0.07490  0.92530  Biso   1.000  H
  H8       1.0000 0.65140  0.92510  0.07470  Biso   1.000  H
  C11      1.0000 0.20280  0.84290  0.33843  Biso   1.000  C
  C12      1.0000 0.79720  0.15710  0.66157  Biso   1.000  C
  H9       1.0000 0.10230  0.82550  0.30880  Biso   1.000  H
  H10      1.0000 0.89770  0.17450  0.69120  Biso   1.000  H
  H11      1.0000 0.23530  0.90270  0.39990  Biso   1.000  H
  H12      1.0000 0.76470  0.09730  0.60010  Biso   1.000  H
  H13      1.0000 0.24020  0.78330  0.36360  Biso   1.000  H
  H14      1.0000 0.75980  0.21670  0.63640  Biso   1.000  H
  F9       1.0000 0.35980  0.90510  0.83300  Biso   1.000  F
  F10      1.0000 0.64020  0.09490  0.16700  Biso   1.000  F
  F11      1.0000 0.39470  0.90580  0.88580  Biso   1.000  F
  F12      1.0000 0.60530  0.09420  0.11420  Biso   1.000  F
  N7       1.0000 0.22794  0.30364  0.31052  Biso   1.000  N
  N8       1.0000 0.77206  0.69636  0.68948  Biso   1.000  N
  C13      1.0000 0.40850  0.89881  0.28754  Biso   1.000  C
  C14      1.0000 0.59150  0.10119  0.71246  Biso   1.000  C
  C15      1.0000 0.22914  0.13575  0.99641  Biso   1.000  C
  C16      1.0000 0.77086  0.86425  0.00359  Biso   1.000  C
  F13      1.0000 0.23290  0.30410  0.98050  Biso   1.000  F
  F14      1.0000 0.76710  0.69590  0.01950  Biso   1.000  F
  F15      1.0000 0.34730  0.29110  0.12020  Biso   1.000  F
  F16      1.0000 0.65270  0.70890  0.87980  Biso   1.000  F
  F17      1.0000 0.37460  0.28430  0.12810  Biso   1.000  F
  F18      1.0000 0.62540  0.71570  0.87190  Biso   1.000  F
  C17      1.0000 0.30680  0.24740  0.01991  Biso   1.000  C
  C18      1.0000 0.69320  0.75260  0.98009  Biso   1.000  C
  C19      1.0000 0.48970  0.84649  0.37556  Biso   1.000  C
  C20      1.0000 0.51030  0.15351  0.62444  Biso   1.000  C
  H15      1.0000 0.58810  0.86940  0.39410  Biso   1.000  H
  H16      1.0000 0.41190  0.13060  0.60590  Biso   1.000  H
  H17      1.0000 0.46440  0.77100  0.34900  Biso   1.000  H
  H18      1.0000 0.53560  0.22900  0.65100  Biso   1.000  H
  H19      1.0000 0.46920  0.86520  0.44060  Biso   1.000  H
  H20      1.0000 0.53080  0.13480  0.55940  Biso   1.000  H
  F19      1.0000 0.21460  0.30850  0.97010  Biso   1.000  F
  F20      1.0000 0.78540  0.69150  0.02990  Biso   1.000  F
  F21      1.0000 0.41460  0.25600  0.99260  Biso   1.000  F
  F22      1.0000 0.58540  0.74400  0.00740  Biso   1.000  F
  C21      1.0000 0.45900  0.89030  0.19449  Biso   1.000  C
  C22      1.0000 0.54100  0.10970  0.80551  Biso   1.000  C
  H21      1.0000 0.55940  0.90970  0.22460  Biso   1.000  H
  H22      1.0000 0.44060  0.09030  0.77540  Biso   1.000  H
  H23      1.0000 0.41980  0.93700  0.14690  Biso   1.000  H
  H24      1.0000 0.58020  0.06300  0.85310  Biso   1.000  H
  H25      1.0000 0.43030  0.81860  0.15220  Biso   1.000  H
  H26      1.0000 0.56970  0.18140  0.84780  Biso   1.000  H
  F23      1.0000 0.39090  0.25750  0.97480  Biso   1.000  F
  F24      1.0000 0.60910  0.74250  0.02520  Biso   1.000  F
  C23      1.0000 0.31657  0.05191  0.29232  Biso   1.000  C
  C24      1.0000 0.68343  0.94809  0.70768  Biso   1.000  C
  C25      1.0000 0.30774  0.15954  0.31164  Biso   1.000  C
  C26      1.0000 0.69226  0.84046  0.68836  Biso   1.000  C
  C27      1.0000 0.41152  0.24488  0.37826  Biso   1.000  C
  C28      1.0000 0.58848  0.75512  0.62174  Biso   1.000  C
  H27      1.0000 0.50410  0.24060  0.41790  Biso   1.000  H
  H28      1.0000 0.49590  0.75940  0.58210  Biso   1.000  H
  C29      1.0000 0.19217  0.20219  0.27024  Biso   1.000  C
  C30      1.0000 0.80783  0.79781  0.72976  Biso   1.000  C
  H29      1.0000 0.10330  0.16530  0.22170  Biso   1.000  H
  H30      1.0000 0.89670  0.83470  0.77830  Biso   1.000  H
  C31      1.0000 0.14110  0.38146  0.28960  Biso   1.000  C
  C32      1.0000 0.85890  0.61854  0.71040  Biso   1.000  C
  H31      1.0000 0.06900  0.36660  0.31850  Biso   1.000  H
  H32      1.0000 0.93100  0.63340  0.68150  Biso   1.000  H
  H33      1.0000 0.19800  0.45050  0.33090  Biso   1.000  H
  H34      1.0000 0.80200  0.54950  0.66910  Biso   1.000  H
  C33      1.0000 0.07670  0.38660  0.17850  Biso   1.000  C
  C34      1.0000 0.92330  0.61340  0.82150  Biso   1.000  C
  H35      1.0000 0.00640  0.32270  0.13850  Biso   1.000  H
  H36      1.0000 0.99360  0.67730  0.86150  Biso   1.000  H
  H37      1.0000 0.14570  0.39090  0.14520  Biso   1.000  H
  H38      1.0000 0.85430  0.60910  0.85480  Biso   1.000  H
  C35      1.0000 0.00570  0.48600  0.16820  Biso   1.000  C
  C36      1.0000 0.99430  0.51400  0.83180  Biso   1.000  C
  H39      1.0000 0.02040  0.52440  0.24190  Biso   1.000  H
  H40      1.0000 0.97960  0.47560  0.75810  Biso   1.000  H
  H41      1.0000 0.04820  0.53320  0.13370  Biso   1.000  H
  H42      1.0000 0.95180  0.46680  0.86630  Biso   1.000  H
  C37      1.0000 0.88290  0.45890  0.11340  Biso   1.000  C
  C38      1.0000 0.11710  0.54110  0.88660  Biso   1.000  C
  H43      1.0000 0.84020  0.52010  0.10780  Biso   1.000  H
  H44      1.0000 0.15980  0.47990  0.89220  Biso   1.000  H
  H45      1.0000 0.84110  0.41260  0.14810  Biso   1.000  H
  H46      1.0000 0.15890  0.58740  0.85190  Biso   1.000  H
  H47      1.0000 0.86870  0.42200  0.04020  Biso   1.000  H
  H48      1.0000 0.13130  0.57800  0.95980  Biso   1.000  H
  Cu2      1.0000 0.50000  0.50000  0.50000  Biso   1.000  Cu
  O9       1.0000 0.48396  0.55028  0.36537  Biso   1.000  O
  O10      1.0000 0.51604  0.44972  0.63463  Biso   1.000  O
  O11      1.0000 0.65666  0.43912  0.50188  Biso   1.000  O
  O12      1.0000 0.34334  0.56088  0.49812  Biso   1.000  O
  C39      1.0000 0.50660  0.56068  0.20019  Biso   1.000  C
  C40      1.0000 0.49340  0.43932  0.79981  Biso   1.000  C
  C41      1.0000 0.54914  0.52271  0.30738  Biso   1.000  C
  C42      1.0000 0.45086  0.47729  0.69262  Biso   1.000  C
  F25      1.0000 0.36630  0.53940  0.15240  Biso   1.000  F
  F26      1.0000 0.63370  0.46060  0.84760  Biso   1.000  F
  F27      1.0000 0.54590  0.65430  0.20970  Biso   1.000  F
  F28      1.0000 0.45410  0.34570  0.79030  Biso   1.000  F
  F29      1.0000 0.59460  0.64860  0.21560  Biso   1.000  F
  F30      1.0000 0.40540  0.35140  0.78440  Biso   1.000  F
  F31      1.0000 0.53060  0.51660  0.12700  Biso   1.000  F
  F32      1.0000 0.46940  0.48340  0.87300  Biso   1.000  F
  C43      1.0000 0.65200  0.46588  0.32993  Biso   1.000  C
  C44      1.0000 0.34800  0.53412  0.67007  Biso   1.000  C
  H49      1.0000 0.69180  0.45050  0.27790  Biso   1.000  H
  H50      1.0000 0.30820  0.54950  0.72210  Biso   1.000  H
  F33      1.0000 0.52650  0.48800  0.12080  Biso   1.000  F
  F34      1.0000 0.47350  0.51200  0.87920  Biso   1.000  F
  F35      1.0000 0.38880  0.58750  0.16900  Biso   1.000  F
  F36      1.0000 0.61120  0.41250  0.83100  Biso   1.000  F
  C45      1.0000 0.69922  0.43049  0.42599  Biso   1.000  C
  C46      1.0000 0.30078  0.56951  0.57401  Biso   1.000  C
  C47      1.0000 0.81578  0.37013  0.44673  Biso   1.000  C
  C48      1.0000 0.18422  0.62987  0.55327  Biso   1.000  C
  F37      1.0000 0.77220  0.26900  0.43420  Biso   1.000  F
  F38      1.0000 0.22780  0.73100  0.56580  Biso   1.000  F
  F39      1.0000 0.90230  0.39990  0.54710  Biso   1.000  F
  F40      1.0000 0.09770  0.60010  0.45290  Biso   1.000  F
  F41      1.0000 0.87770  0.37680  0.37590  Biso   1.000  F
  F42      1.0000 0.12230  0.62320  0.62410  Biso   1.000  F
  F43      1.0000 0.86610  0.36220  0.37220  Biso   1.000  F
  F44      1.0000 0.13390  0.63780  0.62780  Biso   1.000  F
  F45      1.0000 0.92590  0.41770  0.53660  Biso   1.000  F
  F46      1.0000 0.07410  0.58230  0.46340  Biso   1.000  F
  F47      1.0000 0.77200  0.27820  0.45660  Biso   1.000  F
  F48      1.0000 0.22800  0.72180  0.54340  Biso   1.000  F
  Br1      1.0000 0.15247  0.24663  0.53780  Biso   1.000  Br
  Br2      1.0000 0.84753  0.75337  0.46220  Biso   1.000  Br
  C49      1.0000 0.02540  0.12890  0.46520  Biso   1.000  C
  C50      1.0000 0.97460  0.87110  0.53480  Biso   1.000  C
  H51      1.0000 0.02220  0.10900  0.39290  Biso   1.000  H
  H52      1.0000 0.97780  0.89100  0.60710  Biso   1.000  H
  H53      1.0000 0.93680  0.14010  0.46100  Biso   1.000  H
  H54      1.0000 0.06320  0.85990  0.53900  Biso   1.000  H
  C51      1.0000 0.05130  0.04580  0.52780  Biso   1.000  C
  C52      1.0000 0.94870  0.95420  0.47220  Biso   1.000  C
  H55      1.0000 0.05230  0.06310  0.59980  Biso   1.000  H
  H56      1.0000 0.94770  0.93690  0.40020  Biso   1.000  H
  H57      1.0000 0.13880  0.03220  0.53160  Biso   1.000  H
  H58      1.0000 0.86120  0.96780  0.46840  Biso   1.000  H
  C53      1.0000 0.94080  0.95440  0.45170  Biso   1.000  C
  C54      1.0000 0.05920  0.04560  0.54830  Biso   1.000  C
  H59      1.0000 0.95810  0.93360  0.38730  Biso   1.000  H
  H60      1.0000 0.04190  0.06640  0.61270  Biso   1.000  H
  H61      1.0000 0.85680  0.97950  0.43020  Biso   1.000  H
  H62      1.0000 0.14320  0.02050  0.56980  Biso   1.000  H
  C55      1.0000 0.08220  0.14430  0.50280  Biso   1.000  C
  C56      1.0000 0.91780  0.85570  0.49720  Biso   1.000  C
  H63      1.0000 0.85430  0.86300  0.53200  Biso   1.000  H
  H64      1.0000 0.14570  0.13700  0.46800  Biso   1.000  H
  H65      1.0000 0.00020  0.83990  0.54550  Biso   1.000  H
  H66      1.0000 0.99980  0.16010  0.45450  Biso   1.000  H
  C57      1.0000 0.15060  0.21580  0.62880  Biso   1.000  C
  C58      1.0000 0.84940  0.78420  0.37120  Biso   1.000  C
  H67      1.0000 0.82220  0.71590  0.38030  Biso   1.000  H
  H68      1.0000 0.17780  0.28410  0.61970  Biso   1.000  H
  H69      1.0000 0.22910  0.19350  0.67480  Biso   1.000  H
  H70      1.0000 0.77090  0.80650  0.32520  Biso   1.000  H
  H71      1.0000 0.08430  0.21650  0.66140  Biso   1.000  H
  H72      1.0000 0.91570  0.78350  0.33860  Biso   1.000  H
