data_image0
_cell_length_a       10.635
_cell_length_b       13.272
_cell_length_c       13.552
_cell_angle_alpha    98.854
_cell_angle_beta     111.864
_cell_angle_gamma    96.72

_symmetry_space_group_name_H-M    "P 1"
_symmetry_int_tables_number       1

loop_
  _symmetry_equiv_pos_as_xyz
  'x, y, z'

loop_
  _atom_site_label
  _atom_site_occupancy
  _atom_site_fract_x
  _atom_site_fract_y
  _atom_site_fract_z
  _atom_site_thermal_displace_type
  _atom_site_B_iso_or_equiv
  _atom_site_type_symbol
  Cu1      1.0000 0.00000  0.00000  0.00000  Biso   1.000  Cu
  O1       1.0000 0.13238  0.12804  0.02796  Biso   1.000  O
  O2       1.0000 0.86762  0.87196  0.97204  Biso   1.000  O
  C1       1.0000 0.30520  0.24740  0.01990  Biso   1.000  C
  C2       1.0000 0.69480  0.75260  0.98010  Biso   1.000  C
  F1       1.0000 0.36300  0.29040  0.13390  Biso   1.000  F
  F2       1.0000 0.63700  0.70960  0.86610  Biso   1.000  F
  F3       1.0000 0.21820  0.30170  0.96080  Biso   1.000  F
  F4       1.0000 0.78180  0.69830  0.03920  Biso   1.000  F
  F5       1.0000 0.41060  0.25320  0.99440  Biso   1.000  F
  F6       1.0000 0.58940  0.74680  0.00560  Biso   1.000  F
  F7       1.0000 0.35430  0.28420  0.10790  Biso   1.000  F
  F8       1.0000 0.64570  0.71580  0.89210  Biso   1.000  F
  F9       1.0000 0.22320  0.30940  0.98740  Biso   1.000  F
  F10      1.0000 0.77680  0.69060  0.01260  Biso   1.000  F
  F11      1.0000 0.39260  0.26110  0.97220  Biso   1.000  F
  F12      1.0000 0.60740  0.73890  0.02780  Biso   1.000  F
  C3       1.0000 0.22810  0.13550  0.99600  Biso   1.000  C
  C4       1.0000 0.77190  0.86450  0.00400  Biso   1.000  C
  C5       1.0000 0.27170  0.05770  0.94410  Biso   1.000  C
  C6       1.0000 0.72830  0.94230  0.05590  Biso   1.000  C
  H1       1.0000 0.34590  0.07530  0.92320  Biso   1.000  H
  H2       1.0000 0.65410  0.92470  0.07680  Biso   1.000  H
  C7       1.0000 0.20930  0.95490  0.92220  Biso   1.000  C
  C8       1.0000 0.79070  0.04510  0.07780  Biso   1.000  C
  C9       1.0000 0.26170  0.87400  0.86200  Biso   1.000  C
  C10      1.0000 0.73830  0.12600  0.13800  Biso   1.000  C
  F13      1.0000 0.25790  0.78700  0.89020  Biso   1.000  F
  F14      1.0000 0.74210  0.21300  0.10980  Biso   1.000  F
  F15      1.0000 0.39470  0.90380  0.88470  Biso   1.000  F
  F16      1.0000 0.60530  0.09620  0.11530  Biso   1.000  F
  F17      1.0000 0.20300  0.86280  0.76300  Biso   1.000  F
  F18      1.0000 0.79700  0.13720  0.23700  Biso   1.000  F
  F19      1.0000 0.30100  0.80460  0.92080  Biso   1.000  F
  F20      1.0000 0.69900  0.19540  0.07920  Biso   1.000  F
  F21      1.0000 0.35320  0.90740  0.82980  Biso   1.000  F
  F22      1.0000 0.64680  0.09260  0.17020  Biso   1.000  F
  F23      1.0000 0.15600  0.81880  0.77090  Biso   1.000  F
  F24      1.0000 0.84400  0.18120  0.22910  Biso   1.000  F
  O3       1.0000 0.11276  0.91671  0.94428  Biso   1.000  O
  O4       1.0000 0.88724  0.08329  0.05572  Biso   1.000  O
  Cu2      1.0000 0.50000  0.50000  0.50000  Biso   1.000  Cu
  O5       1.0000 0.48570  0.54991  0.36634  Biso   1.000  O
  O6       1.0000 0.51430  0.45009  0.63366  Biso   1.000  O
  C11      1.0000 0.51200  0.56090  0.20420  Biso   1.000  C
  C12      1.0000 0.48800  0.43910  0.79580  Biso   1.000  C
  F25      1.0000 0.37120  0.54360  0.15450  Biso   1.000  F
  F26      1.0000 0.62880  0.45640  0.84550  Biso   1.000  F
  F27      1.0000 0.55490  0.65250  0.21420  Biso   1.000  F
  F28      1.0000 0.44510  0.34750  0.78580  Biso   1.000  F
  F29      1.0000 0.53350  0.51400  0.13620  Biso   1.000  F
  F30      1.0000 0.46650  0.48600  0.86380  Biso   1.000  F
  F31      1.0000 0.60410  0.65020  0.22160  Biso   1.000  F
  F32      1.0000 0.39590  0.34980  0.77840  Biso   1.000  F
  F33      1.0000 0.39530  0.59220  0.17350  Biso   1.000  F
  F34      1.0000 0.60470  0.40780  0.82650  Biso   1.000  F
  F35      1.0000 0.52930  0.49070  0.12110  Biso   1.000  F
  F36      1.0000 0.47070  0.50930  0.87890  Biso   1.000  F
  C13      1.0000 0.55080  0.52260  0.31000  Biso   1.000  C
  C14      1.0000 0.44920  0.47740  0.69000  Biso   1.000  C
  C15      1.0000 0.65510  0.46500  0.33400  Biso   1.000  C
  C16      1.0000 0.34490  0.53500  0.66600  Biso   1.000  C
  H3       1.0000 0.69620  0.44990  0.28340  Biso   1.000  H
  H4       1.0000 0.30380  0.55010  0.71660  Biso   1.000  H
  C17      1.0000 0.70070  0.42910  0.42930  Biso   1.000  C
  C18      1.0000 0.29930  0.57090  0.57070  Biso   1.000  C
  C19      1.0000 0.81850  0.36830  0.45130  Biso   1.000  C
  C20      1.0000 0.18150  0.63170  0.54870  Biso   1.000  C
  F37      1.0000 0.87040  0.35760  0.37680  Biso   1.000  F
  F38      1.0000 0.12960  0.64240  0.62320  Biso   1.000  F
  F39      1.0000 0.78000  0.27540  0.46200  Biso   1.000  F
  F40      1.0000 0.22000  0.72460  0.53800  Biso   1.000  F
  F41      1.0000 0.92250  0.41520  0.54030  Biso   1.000  F
  F42      1.0000 0.07750  0.58480  0.45970  Biso   1.000  F
  F43      1.0000 0.90840  0.39610  0.55230  Biso   1.000  F
  F44      1.0000 0.09160  0.60390  0.44770  Biso   1.000  F
  F45      1.0000 0.76900  0.26930  0.43500  Biso   1.000  F
  F46      1.0000 0.23100  0.73070  0.56500  Biso   1.000  F
  F47      1.0000 0.88050  0.37740  0.38500  Biso   1.000  F
  F48      1.0000 0.11950  0.62260  0.61500  Biso   1.000  F
  O7       1.0000 0.65707  0.43804  0.50370  Biso   1.000  O
  O8       1.0000 0.34293  0.56196  0.49630  Biso   1.000  O
  O9       1.0000 0.08844  0.98174  0.17782  Biso   1.000  O
  O10      1.0000 0.91156  0.01826  0.82218  Biso   1.000  O
  N1       1.0000 0.21500  0.97261  0.23022  Biso   1.000  N
  N2       1.0000 0.78500  0.02739  0.76978  Biso   1.000  N
  C21      1.0000 0.25350  0.86960  0.24740  Biso   1.000  C
  C22      1.0000 0.74650  0.13040  0.75260  Biso   1.000  C
  C23      1.0000 0.20570  0.84210  0.33530  Biso   1.000  C
  C24      1.0000 0.79430  0.15790  0.66470  Biso   1.000  C
  H5       1.0000 0.10470  0.82470  0.30500  Biso   1.000  H
  H6       1.0000 0.89530  0.17530  0.69500  Biso   1.000  H
  H7       1.0000 0.23810  0.90170  0.39690  Biso   1.000  H
  H8       1.0000 0.76190  0.09830  0.60310  Biso   1.000  H
  H9       1.0000 0.24390  0.78240  0.36000  Biso   1.000  H
  H10      1.0000 0.75610  0.21760  0.64000  Biso   1.000  H
  C25      1.0000 0.18180  0.78760  0.14280  Biso   1.000  C
  C26      1.0000 0.81820  0.21240  0.85720  Biso   1.000  C
  H11      1.0000 0.08220  0.77430  0.12400  Biso   1.000  H
  H12      1.0000 0.91780  0.22570  0.87600  Biso   1.000  H
  H13      1.0000 0.21710  0.72330  0.15280  Biso   1.000  H
  H14      1.0000 0.78290  0.27670  0.84720  Biso   1.000  H
  H15      1.0000 0.19990  0.81210  0.08390  Biso   1.000  H
  H16      1.0000 0.80010  0.18790  0.91610  Biso   1.000  H
  C27      1.0000 0.41150  0.89920  0.28730  Biso   1.000  C
  C28      1.0000 0.58850  0.10080  0.71270  Biso   1.000  C
  C29      1.0000 0.49360  0.84680  0.37660  Biso   1.000  C
  C30      1.0000 0.50640  0.15320  0.62340  Biso   1.000  C
  H17      1.0000 0.59250  0.86960  0.39640  Biso   1.000  H
  H18      1.0000 0.40750  0.13040  0.60360  Biso   1.000  H
  H19      1.0000 0.46870  0.77130  0.35010  Biso   1.000  H
  H20      1.0000 0.53130  0.22870  0.64990  Biso   1.000  H
  H21      1.0000 0.47230  0.86580  0.44060  Biso   1.000  H
  H22      1.0000 0.52770  0.13420  0.55940  Biso   1.000  H
  C31      1.0000 0.46390  0.89040  0.19660  Biso   1.000  C
  C32      1.0000 0.53610  0.10960  0.80340  Biso   1.000  C
  H23      1.0000 0.56480  0.90990  0.22830  Biso   1.000  H
  H24      1.0000 0.43520  0.09010  0.77170  Biso   1.000  H
  H25      1.0000 0.42460  0.93690  0.14860  Biso   1.000  H
  H26      1.0000 0.57540  0.06310  0.85140  Biso   1.000  H
  H27      1.0000 0.43600  0.81860  0.15460  Biso   1.000  H
  H28      1.0000 0.56400  0.18140  0.84540  Biso   1.000  H
  N3       1.0000 0.43510  0.01326  0.33356  Biso   1.000  N
  N4       1.0000 0.56490  0.98674  0.66644  Biso   1.000  N
  O11      1.0000 0.55360  0.06716  0.39312  Biso   1.000  O
  O12      1.0000 0.44640  0.93284  0.60688  Biso   1.000  O
  C33      1.0000 0.31840  0.05212  0.29100  Biso   1.000  C
  C34      1.0000 0.68160  0.94788  0.70900  Biso   1.000  C
  C35      1.0000 0.30840  0.15941  0.31090  Biso   1.000  C
  C36      1.0000 0.69160  0.84059  0.68910  Biso   1.000  C
  C37      1.0000 0.41090  0.24460  0.37790  Biso   1.000  C
  C38      1.0000 0.58910  0.75540  0.62210  Biso   1.000  C
  H29      1.0000 0.50410  0.24050  0.41810  Biso   1.000  H
  H30      1.0000 0.49590  0.75950  0.58190  Biso   1.000  H
  N5       1.0000 0.36200  0.33208  0.37843  Biso   1.000  N
  N6       1.0000 0.63800  0.66792  0.62157  Biso   1.000  N
  N7       1.0000 0.22670  0.30306  0.31049  Biso   1.000  N
  N8       1.0000 0.77330  0.69694  0.68951  Biso   1.000  N
  C39      1.0000 0.13750  0.38010  0.28860  Biso   1.000  C
  C40      1.0000 0.86250  0.61990  0.71140  Biso   1.000  C
  H31      1.0000 0.06000  0.36100  0.31010  Biso   1.000  H
  H32      1.0000 0.94000  0.63900  0.68990  Biso   1.000  H
  H33      1.0000 0.19100  0.44840  0.33520  Biso   1.000  H
  H34      1.0000 0.80900  0.55160  0.66480  Biso   1.000  H
  C41      1.0000 0.08250  0.39080  0.17930  Biso   1.000  C
  C42      1.0000 0.91750  0.60920  0.82070  Biso   1.000  C
  H35      1.0000 0.01420  0.32750  0.13340  Biso   1.000  H
  H36      1.0000 0.98580  0.67250  0.86660  Biso   1.000  H
  H37      1.0000 0.15740  0.39870  0.15280  Biso   1.000  H
  H38      1.0000 0.84260  0.60130  0.84720  Biso   1.000  H
  C43      1.0000 0.00910  0.49080  0.16930  Biso   1.000  C
  C44      1.0000 0.99090  0.50920  0.83070  Biso   1.000  C
  H39      1.0000 0.03160  0.53300  0.24270  Biso   1.000  H
  H40      1.0000 0.96840  0.46700  0.75730  Biso   1.000  H
  H41      1.0000 0.04300  0.53460  0.12800  Biso   1.000  H
  H42      1.0000 0.95700  0.46540  0.87200  Biso   1.000  H
  C45      1.0000 0.88560  0.46130  0.12270  Biso   1.000  C
  C46      1.0000 0.11440  0.53870  0.87730  Biso   1.000  C
  H43      1.0000 0.84000  0.52140  0.11600  Biso   1.000  H
  H44      1.0000 0.16000  0.47860  0.88400  Biso   1.000  H
  H45      1.0000 0.85270  0.41860  0.16430  Biso   1.000  H
  H46      1.0000 0.14730  0.58140  0.83570  Biso   1.000  H
  H47      1.0000 0.86400  0.41990  0.05000  Biso   1.000  H
  H48      1.0000 0.13600  0.58010  0.95000  Biso   1.000  H
  C47      1.0000 0.19120  0.20160  0.26930  Biso   1.000  C
  C48      1.0000 0.80880  0.79840  0.73070  Biso   1.000  C
  H49      1.0000 0.10200  0.16470  0.22040  Biso   1.000  H
  H50      1.0000 0.89800  0.83530  0.77960  Biso   1.000  H
  Cl1      1.0000 0.84710  0.75760  0.47430  Biso   1.000  Cl
  Cl2      1.0000 0.15290  0.24240  0.52570  Biso   1.000  Cl
  C49      1.0000 0.92300  0.89140  0.53210  Biso   1.000  C
  C50      1.0000 0.07700  0.10860  0.46790  Biso   1.000  C
  H51      1.0000 0.99890  0.89920  0.60090  Biso   1.000  H
  H52      1.0000 0.00110  0.10080  0.39910  Biso   1.000  H
  H53      1.0000 0.85320  0.92430  0.54470  Biso   1.000  H
  H54      1.0000 0.14680  0.07570  0.45530  Biso   1.000  H
  C51      1.0000 0.93700  0.95200  0.44700  Biso   1.000  C
  C52      1.0000 0.06300  0.04800  0.55300  Biso   1.000  C
  H55      1.0000 0.85940  0.96230  0.38720  Biso   1.000  H
  H56      1.0000 0.14060  0.03770  0.61280  Biso   1.000  H
  H57      1.0000 0.98830  0.90980  0.41900  Biso   1.000  H
  H58      1.0000 0.01170  0.09020  0.58100  Biso   1.000  H
  C53      1.0000 0.95100  0.95560  0.47660  Biso   1.000  C
  C54      1.0000 0.04900  0.04440  0.52340  Biso   1.000  C
  H59      1.0000 0.85570  0.96160  0.45730  Biso   1.000  H
  H60      1.0000 0.14430  0.03840  0.54270  Biso   1.000  H
  H61      1.0000 0.03470  0.06010  0.58960  Biso   1.000  H
  H62      1.0000 0.96530  0.93990  0.41040  Biso   1.000  H
  C55      1.0000 0.95740  0.85620  0.50700  Biso   1.000  C
  C56      1.0000 0.04260  0.14380  0.49300  Biso   1.000  C
  H63      1.0000 0.05190  0.84760  0.53160  Biso   1.000  H
  H64      1.0000 0.94810  0.15240  0.46840  Biso   1.000  H
  H65      1.0000 0.07450  0.14070  0.43500  Biso   1.000  H
  H66      1.0000 0.92550  0.85930  0.56500  Biso   1.000  H
  C57      1.0000 0.85980  0.80000  0.38600  Biso   1.000  C
  C58      1.0000 0.14020  0.20000  0.61400  Biso   1.000  C
  H67      1.0000 0.14260  0.26880  0.59850  Biso   1.000  H
  H68      1.0000 0.85740  0.73120  0.40150  Biso   1.000  H
  H69      1.0000 0.89370  0.80290  0.32960  Biso   1.000  H
  H70      1.0000 0.10630  0.19710  0.67040  Biso   1.000  H
  H71      1.0000 0.76820  0.81450  0.36290  Biso   1.000  H
  H72      1.0000 0.23180  0.18550  0.63710  Biso   1.000  H
