data_image0
_cell_length_a       10.7408
_cell_length_b       12.988
_cell_length_c       13.3253
_cell_angle_alpha    76.904
_cell_angle_beta     66.297
_cell_angle_gamma    83.747

_symmetry_space_group_name_H-M    "P 1"
_symmetry_int_tables_number       1

loop_
  _symmetry_equiv_pos_as_xyz
  'x, y, z'

loop_
  _atom_site_label
  _atom_site_occupancy
  _atom_site_fract_x
  _atom_site_fract_y
  _atom_site_fract_z
  _atom_site_thermal_displace_type
  _atom_site_B_iso_or_equiv
  _atom_site_type_symbol
  Cu1      1.0000 0.00000  0.00000  0.00000  Biso   1.000  Cu
  O1       1.0000 0.11310  0.88147  0.03360  Biso   1.000  O
  O2       1.0000 0.88690  0.11853  0.96640  Biso   1.000  O
  C1       1.0000 0.28740  0.75770  0.01870  Biso   1.000  C
  C2       1.0000 0.71260  0.24230  0.98130  Biso   1.000  C
  F1       1.0000 0.26040  0.72070  0.12050  Biso   1.000  F
  F2       1.0000 0.73960  0.27930  0.87950  Biso   1.000  F
  F3       1.0000 0.25100  0.70120  0.98250  Biso   1.000  F
  F4       1.0000 0.74900  0.29880  0.01750  Biso   1.000  F
  F5       1.0000 0.41990  0.74429  0.97890  Biso   1.000  F
  F6       1.0000 0.58010  0.25571  0.02110  Biso   1.000  F
  F7       1.0000 0.22280  0.71690  0.13060  Biso   1.000  F
  F8       1.0000 0.77720  0.28310  0.86940  Biso   1.000  F
  F9       1.0000 0.23170  0.69490  0.96540  Biso   1.000  F
  F10      1.0000 0.76830  0.30510  0.03460  Biso   1.000  F
  C3       1.0000 0.24050  0.87150  0.99390  Biso   1.000  C
  C4       1.0000 0.75950  0.12850  0.00610  Biso   1.000  C
  C5       1.0000 0.33600  0.94690  0.93490  Biso   1.000  C
  C6       1.0000 0.66400  0.05310  0.06510  Biso   1.000  C
  H1       1.0000 0.42200  0.92000  0.91100  Biso   1.000  H
  H2       1.0000 0.57800  0.08000  0.08900  Biso   1.000  H
  C7       1.0000 0.30500  0.05320  0.90940  Biso   1.000  C
  C8       1.0000 0.69500  0.94680  0.09060  Biso   1.000  C
  C9       1.0000 0.42100  0.12830  0.83900  Biso   1.000  C
  C10      1.0000 0.57900  0.87170  0.16100  Biso   1.000  C
  F11      1.0000 0.39450  0.20210  0.76860  Biso   1.000  F
  F12      1.0000 0.60550  0.79790  0.23140  Biso   1.000  F
  F13      1.0000 0.53220  0.08650  0.78650  Biso   1.000  F
  F14      1.0000 0.46780  0.91350  0.21350  Biso   1.000  F
  F15      1.0000 0.43460  0.19030  0.88910  Biso   1.000  F
  F16      1.0000 0.56540  0.80970  0.11090  Biso   1.000  F
  F17      1.0000 0.43280  0.14360  0.73410  Biso   1.000  F
  F18      1.0000 0.56720  0.85640  0.26590  Biso   1.000  F
  F19      1.0000 0.53360  0.09360  0.84610  Biso   1.000  F
  F20      1.0000 0.46640  0.90640  0.15390  Biso   1.000  F
  F21      1.0000 0.40510  0.21180  0.87950  Biso   1.000  F
  F22      1.0000 0.59490  0.78820  0.12050  Biso   1.000  F
  O3       1.0000 0.19120  0.09637  0.93670  Biso   1.000  O
  O4       1.0000 0.80880  0.90363  0.06330  Biso   1.000  O
  Cu2      1.0000 0.00000  0.50000  0.50000  Biso   1.000  Cu
  O5       1.0000 0.15070  0.56342  0.50490  Biso   1.000  O
  O6       1.0000 0.84930  0.43658  0.49510  Biso   1.000  O
  C11      1.0000 0.36140  0.63290  0.45290  Biso   1.000  C
  C12      1.0000 0.63860  0.36710  0.54710  Biso   1.000  C
  F23      1.0000 0.49140  0.62000  0.40320  Biso   1.000  F
  F24      1.0000 0.50860  0.38000  0.59680  Biso   1.000  F
  F25      1.0000 0.33640  0.60870  0.56890  Biso   1.000  F
  F26      1.0000 0.66360  0.39130  0.43110  Biso   1.000  F
  F27      1.0000 0.32830  0.73296  0.44520  Biso   1.000  F
  F28      1.0000 0.67170  0.26704  0.55480  Biso   1.000  F
  F29      1.0000 0.37490  0.58240  0.53970  Biso   1.000  F
  F30      1.0000 0.62510  0.41760  0.46030  Biso   1.000  F
  F31      1.0000 0.48680  0.63190  0.36770  Biso   1.000  F
  F32      1.0000 0.51320  0.36810  0.63230  Biso   1.000  F
  C13      1.0000 0.26590  0.57390  0.42800  Biso   1.000  C
  C14      1.0000 0.73410  0.42610  0.57200  Biso   1.000  C
  C15      1.0000 0.31110  0.54130  0.32940  Biso   1.000  C
  C16      1.0000 0.68890  0.45870  0.67060  Biso   1.000  C
  H3       1.0000 0.38400  0.55800  0.28500  Biso   1.000  H
  H4       1.0000 0.61600  0.44200  0.71500  Biso   1.000  H
  C17      1.0000 0.23270  0.48390  0.30210  Biso   1.000  C
  C18      1.0000 0.76730  0.51610  0.69790  Biso   1.000  C
  C19      1.0000 0.29300  0.45010  0.19150  Biso   1.000  C
  C20      1.0000 0.70700  0.54990  0.80850  Biso   1.000  C
  F33      1.0000 0.36610  0.35210  0.21420  Biso   1.000  F
  F34      1.0000 0.63390  0.64790  0.78580  Biso   1.000  F
  F35      1.0000 0.39290  0.50801  0.11550  Biso   1.000  F
  F36      1.0000 0.60710  0.49199  0.88450  Biso   1.000  F
  F37      1.0000 0.21290  0.42720  0.16140  Biso   1.000  F
  F38      1.0000 0.78710  0.57280  0.83860  Biso   1.000  F
  F39      1.0000 0.19220  0.48300  0.13440  Biso   1.000  F
  F40      1.0000 0.80780  0.51700  0.86560  Biso   1.000  F
  F41      1.0000 0.30560  0.35590  0.18510  Biso   1.000  F
  F42      1.0000 0.69440  0.64410  0.81490  Biso   1.000  F
  O7       1.0000 0.11470  0.45201  0.36150  Biso   1.000  O
  O8       1.0000 0.88530  0.54799  0.63850  Biso   1.000  O
  O9       1.0000 0.91560  0.01688  0.15900  Biso   1.000  O
  O10      1.0000 0.08440  0.98312  0.84100  Biso   1.000  O
  N1       1.0000 0.98640  0.02880  0.21520  Biso   1.000  N
  N2       1.0000 0.01360  0.97120  0.78480  Biso   1.000  N
  C21      1.0000 0.00080  0.13390  0.23560  Biso   1.000  C
  C22      1.0000 0.99920  0.86610  0.76440  Biso   1.000  C
  C23      1.0000 0.03230  0.21810  0.13000  Biso   1.000  C
  C24      1.0000 0.96770  0.78190  0.87000  Biso   1.000  C
  H5       1.0000 0.96300  0.23100  0.10000  Biso   1.000  H
  H6       1.0000 0.03700  0.76900  0.90000  Biso   1.000  H
  H7       1.0000 0.11600  0.20000  0.07100  Biso   1.000  H
  H8       1.0000 0.88400  0.80000  0.92900  Biso   1.000  H
  H9       1.0000 0.04800  0.28100  0.14500  Biso   1.000  H
  H10      1.0000 0.95200  0.71900  0.85500  Biso   1.000  H
  C25      1.0000 0.86530  0.15880  0.32450  Biso   1.000  C
  C26      1.0000 0.13470  0.84120  0.67550  Biso   1.000  C
  H11      1.0000 0.83900  0.10600  0.39700  Biso   1.000  H
  H12      1.0000 0.16100  0.89400  0.60300  Biso   1.000  H
  H13      1.0000 0.79600  0.15700  0.30300  Biso   1.000  H
  H14      1.0000 0.20400  0.84300  0.69700  Biso   1.000  H
  H15      1.0000 0.86700  0.22700  0.34600  Biso   1.000  H
  H16      1.0000 0.13300  0.77300  0.65400  Biso   1.000  H
  C27      1.0000 0.11520  0.10780  0.27880  Biso   1.000  C
  C28      1.0000 0.88480  0.89220  0.72120  Biso   1.000  C
  C29      1.0000 0.25700  0.11530  0.18640  Biso   1.000  C
  C30      1.0000 0.74300  0.88470  0.81360  Biso   1.000  C
  H17      1.0000 0.26800  0.07900  0.12200  Biso   1.000  H
  H18      1.0000 0.73200  0.92100  0.87800  Biso   1.000  H
  H19      1.0000 0.32200  0.08700  0.21400  Biso   1.000  H
  H20      1.0000 0.67800  0.91300  0.78600  Biso   1.000  H
  H21      1.0000 0.27500  0.17800  0.15400  Biso   1.000  H
  H22      1.0000 0.72500  0.82200  0.84600  Biso   1.000  H
  C31      1.0000 0.10420  0.16510  0.36790  Biso   1.000  C
  C32      1.0000 0.89580  0.83490  0.63210  Biso   1.000  C
  H23      1.0000 0.10300  0.23800  0.34200  Biso   1.000  H
  H24      1.0000 0.89700  0.76200  0.65800  Biso   1.000  H
  H25      1.0000 0.02000  0.14600  0.44000  Biso   1.000  H
  H26      1.0000 0.98000  0.85400  0.56000  Biso   1.000  H
  H27      1.0000 0.18000  0.14800  0.38600  Biso   1.000  H
  H28      1.0000 0.82000  0.85200  0.61400  Biso   1.000  H
  N3       1.0000 0.09350  0.99300  0.32570  Biso   1.000  N
  N4       1.0000 0.90650  0.00700  0.67430  Biso   1.000  N
  O11      1.0000 0.14570  0.94100  0.39220  Biso   1.000  O
  O12      1.0000 0.85430  0.05900  0.60780  Biso   1.000  O
  C33      1.0000 0.02430  0.95050  0.28020  Biso   1.000  C
  C34      1.0000 0.97570  0.04950  0.71980  Biso   1.000  C
  C35      1.0000 0.99570  0.84180  0.30310  Biso   1.000  C
  C36      1.0000 0.00430  0.15820  0.69690  Biso   1.000  C
  C37      1.0000 0.03010  0.75750  0.37350  Biso   1.000  C
  C38      1.0000 0.96990  0.24250  0.62650  Biso   1.000  C
  H29      1.0000 0.08400  0.76100  0.41400  Biso   1.000  H
  H30      1.0000 0.91600  0.23900  0.58600  Biso   1.000  H
  N5       1.0000 0.98290  0.66740  0.37480  Biso   1.000  N
  N6       1.0000 0.01710  0.33260  0.62520  Biso   1.000  N
  N7       1.0000 0.91740  0.69320  0.30410  Biso   1.000  N
  N8       1.0000 0.08260  0.30680  0.69590  Biso   1.000  N
  C39      1.0000 0.85370  0.61200  0.28240  Biso   1.000  C
  C40      1.0000 0.14630  0.38800  0.71760  Biso   1.000  C
  H31      1.0000 0.75370  0.62170  0.31650  Biso   1.000  H
  H32      1.0000 0.24630  0.37830  0.68350  Biso   1.000  H
  H33      1.0000 0.87720  0.54180  0.31890  Biso   1.000  H
  H34      1.0000 0.12280  0.45820  0.68110  Biso   1.000  H
  C41      1.0000 0.89530  0.61370  0.16220  Biso   1.000  C
  C42      1.0000 0.10470  0.38630  0.83780  Biso   1.000  C
  H35      1.0000 0.99590  0.61300  0.12600  Biso   1.000  H
  H36      1.0000 0.00410  0.38700  0.87400  Biso   1.000  H
  H37      1.0000 0.86140  0.68020  0.12740  Biso   1.000  H
  H38      1.0000 0.13860  0.31980  0.87260  Biso   1.000  H
  C43      1.0000 0.84210  0.52020  0.14060  Biso   1.000  C
  C44      1.0000 0.15790  0.47980  0.85940  Biso   1.000  C
  H39      1.0000 0.90420  0.50620  0.06650  Biso   1.000  H
  H40      1.0000 0.09580  0.49380  0.93350  Biso   1.000  H
  H41      1.0000 0.84460  0.45680  0.19740  Biso   1.000  H
  H42      1.0000 0.15540  0.54320  0.80260  Biso   1.000  H
  C45      1.0000 0.71410  0.53360  0.14310  Biso   1.000  C
  C46      1.0000 0.28590  0.46640  0.85690  Biso   1.000  C
  H43      1.0000 0.68820  0.47030  0.12830  Biso   1.000  H
  H44      1.0000 0.31180  0.52970  0.87170  Biso   1.000  H
  H45      1.0000 0.71070  0.59500  0.08580  Biso   1.000  H
  H46      1.0000 0.28930  0.40500  0.91420  Biso   1.000  H
  H47      1.0000 0.65100  0.54530  0.21700  Biso   1.000  H
  H48      1.0000 0.34900  0.45470  0.78300  Biso   1.000  H
  C47      1.0000 0.92220  0.79520  0.26050  Biso   1.000  C
  C48      1.0000 0.07780  0.20480  0.73950  Biso   1.000  C
  H49      1.0000 0.87600  0.82300  0.21500  Biso   1.000  H
  H50      1.0000 0.12400  0.17700  0.78500  Biso   1.000  H
  C49      1.0000 0.46500  0.17850  0.38400  Biso   1.000  C
  C50      1.0000 0.53500  0.82150  0.61600  Biso   1.000  C
  C51      1.0000 0.37580  0.25450  0.46990  Biso   1.000  C
  C52      1.0000 0.62420  0.74550  0.53010  Biso   1.000  C
  C53      1.0000 0.38920  0.08190  0.47130  Biso   1.000  C
  C54      1.0000 0.61080  0.91810  0.52870  Biso   1.000  C
  C55      1.0000 0.42900  0.04440  0.57200  Biso   1.000  C
  C56      1.0000 0.57100  0.95560  0.42800  Biso   1.000  C
  C57      1.0000 0.50460  0.06020  0.47400  Biso   1.000  C
  C58      1.0000 0.49540  0.93980  0.52600  Biso   1.000  C
  C59      1.0000 0.63850  0.90960  0.48600  Biso   1.000  C
  C60      1.0000 0.36150  0.09040  0.51400  Biso   1.000  C
  C61      1.0000 0.61400  0.78860  0.54680  Biso   1.000  C
  C62      1.0000 0.38600  0.21140  0.45320  Biso   1.000  C
  C63      1.0000 0.47880  0.26840  0.32890  Biso   1.000  C
  C64      1.0000 0.52120  0.73160  0.67110  Biso   1.000  C
