data_image0
_cell_length_a       10.815
_cell_length_b       13.36
_cell_length_c       13.549
_cell_angle_alpha    98.581
_cell_angle_beta     111.841
_cell_angle_gamma    96.648

_symmetry_space_group_name_H-M    "P 1"
_symmetry_int_tables_number       1

loop_
  _symmetry_equiv_pos_as_xyz
  'x, y, z'

loop_
  _atom_site_label
  _atom_site_occupancy
  _atom_site_fract_x
  _atom_site_fract_y
  _atom_site_fract_z
  _atom_site_thermal_displace_type
  _atom_site_B_iso_or_equiv
  _atom_site_type_symbol
  Cu1      1.0000 0.00000  0.00000  0.00000  Biso   1.000  Cu
  O1       1.0000 0.09200  0.98257  0.17956  Biso   1.000  O
  O2       1.0000 0.90800  0.01743  0.82044  Biso   1.000  O
  O3       1.0000 0.11000  0.91764  0.94317  Biso   1.000  O
  O4       1.0000 0.89000  0.08236  0.05683  Biso   1.000  O
  N1       1.0000 0.21770  0.97370  0.23150  Biso   1.000  N
  N2       1.0000 0.78230  0.02630  0.76850  Biso   1.000  N
  C1       1.0000 0.25740  0.87500  0.86130  Biso   1.000  C
  C2       1.0000 0.74260  0.12500  0.13870  Biso   1.000  C
  C3       1.0000 0.25770  0.87230  0.24830  Biso   1.000  C
  C4       1.0000 0.74230  0.12770  0.75170  Biso   1.000  C
  F1       1.0000 0.29310  0.80260  0.91620  Biso   1.000  F
  F2       1.0000 0.70690  0.19740  0.08380  Biso   1.000  F
  F3       1.0000 0.20950  0.87170  0.76130  Biso   1.000  F
  F4       1.0000 0.79050  0.12830  0.23870  Biso   1.000  F
  O5       1.0000 0.12880  0.12768  0.02683  Biso   1.000  O
  O6       1.0000 0.87120  0.87232  0.97317  Biso   1.000  O
  N3       1.0000 0.43470  0.01540  0.33340  Biso   1.000  N
  N4       1.0000 0.56530  0.98460  0.66660  Biso   1.000  N
  O7       1.0000 0.55140  0.06890  0.39170  Biso   1.000  O
  O8       1.0000 0.44860  0.93110  0.60830  Biso   1.000  O
  C5       1.0000 0.20570  0.95550  0.92100  Biso   1.000  C
  C6       1.0000 0.79430  0.04450  0.07900  Biso   1.000  C
  C7       1.0000 0.18430  0.79030  0.14320  Biso   1.000  C
  C8       1.0000 0.81570  0.20970  0.85680  Biso   1.000  C
  H1       1.0000 0.08780  0.77760  0.12650  Biso   1.000  H
  H2       1.0000 0.91220  0.22240  0.87350  Biso   1.000  H
  H3       1.0000 0.21870  0.72690  0.15260  Biso   1.000  H
  H4       1.0000 0.78130  0.27310  0.84740  Biso   1.000  H
  H5       1.0000 0.20000  0.81440  0.08400  Biso   1.000  H
  H6       1.0000 0.80000  0.18560  0.91600  Biso   1.000  H
  F5       1.0000 0.15140  0.82140  0.77080  Biso   1.000  F
  F6       1.0000 0.84860  0.17860  0.22920  Biso   1.000  F
  F7       1.0000 0.24460  0.79030  0.88390  Biso   1.000  F
  F8       1.0000 0.75540  0.20970  0.11610  Biso   1.000  F
  N5       1.0000 0.36000  0.33100  0.38020  Biso   1.000  N
  N6       1.0000 0.64000  0.66900  0.61980  Biso   1.000  N
  C9       1.0000 0.26570  0.05760  0.94310  Biso   1.000  C
  C10      1.0000 0.73430  0.94240  0.05690  Biso   1.000  C
  H7       1.0000 0.33740  0.07490  0.92190  Biso   1.000  H
  H8       1.0000 0.66260  0.92510  0.07810  Biso   1.000  H
  C11      1.0000 0.21050  0.84340  0.33630  Biso   1.000  C
  C12      1.0000 0.78950  0.15660  0.66370  Biso   1.000  C
  H9       1.0000 0.11220  0.82650  0.30650  Biso   1.000  H
  H10      1.0000 0.88780  0.17350  0.69350  Biso   1.000  H
  H11      1.0000 0.24200  0.90120  0.39770  Biso   1.000  H
  H12      1.0000 0.75800  0.09880  0.60230  Biso   1.000  H
  H13      1.0000 0.24750  0.78430  0.36010  Biso   1.000  H
  H14      1.0000 0.75250  0.21570  0.63990  Biso   1.000  H
  F9       1.0000 0.34940  0.90860  0.82860  Biso   1.000  F
  F10      1.0000 0.65060  0.09140  0.17140  Biso   1.000  F
  F11      1.0000 0.39040  0.90220  0.89180  Biso   1.000  F
  F12      1.0000 0.60960  0.09780  0.10820  Biso   1.000  F
  N7       1.0000 0.22630  0.30240  0.31290  Biso   1.000  N
  N8       1.0000 0.77370  0.69760  0.68710  Biso   1.000  N
  C13      1.0000 0.41230  0.90180  0.28760  Biso   1.000  C
  C14      1.0000 0.58770  0.09820  0.71240  Biso   1.000  C
  C15      1.0000 0.22400  0.13550  0.99550  Biso   1.000  C
  C16      1.0000 0.77600  0.86450  0.00450  Biso   1.000  C
  F13      1.0000 0.23650  0.29950  0.98350  Biso   1.000  F
  F14      1.0000 0.76350  0.70050  0.01650  Biso   1.000  F
  F15      1.0000 0.33730  0.29310  0.11690  Biso   1.000  F
  F16      1.0000 0.66270  0.70690  0.88310  Biso   1.000  F
  F17      1.0000 0.37710  0.27380  0.12270  Biso   1.000  F
  F18      1.0000 0.62290  0.72620  0.87730  Biso   1.000  F
  C17      1.0000 0.30050  0.24610  0.01880  Biso   1.000  C
  C18      1.0000 0.69950  0.75390  0.98120  Biso   1.000  C
  C19      1.0000 0.49540  0.84940  0.37590  Biso   1.000  C
  C20      1.0000 0.50460  0.15060  0.62410  Biso   1.000  C
  H15      1.0000 0.59110  0.87190  0.39380  Biso   1.000  H
  H16      1.0000 0.40890  0.12810  0.60620  Biso   1.000  H
  H17      1.0000 0.47130  0.77530  0.34980  Biso   1.000  H
  H18      1.0000 0.52870  0.22470  0.65020  Biso   1.000  H
  H19      1.0000 0.47650  0.86770  0.44020  Biso   1.000  H
  H20      1.0000 0.52350  0.13230  0.55980  Biso   1.000  H
  F19      1.0000 0.19840  0.31140  0.97170  Biso   1.000  F
  F20      1.0000 0.80160  0.68860  0.02830  Biso   1.000  F
  F21      1.0000 0.41050  0.25490  0.99600  Biso   1.000  F
  F22      1.0000 0.58950  0.74510  0.00400  Biso   1.000  F
  C21      1.0000 0.46390  0.89400  0.19570  Biso   1.000  C
  C22      1.0000 0.53610  0.10600  0.80430  Biso   1.000  C
  H21      1.0000 0.56190  0.91320  0.22670  Biso   1.000  H
  H22      1.0000 0.43810  0.08680  0.77330  Biso   1.000  H
  H23      1.0000 0.42510  0.94000  0.14850  Biso   1.000  H
  H24      1.0000 0.57490  0.06000  0.85150  Biso   1.000  H
  H25      1.0000 0.43700  0.82380  0.15400  Biso   1.000  H
  H26      1.0000 0.56300  0.17620  0.84600  Biso   1.000  H
  F23      1.0000 0.36790  0.25980  0.96300  Biso   1.000  F
  F24      1.0000 0.63210  0.74020  0.03700  Biso   1.000  F
  C23      1.0000 0.31920  0.05350  0.29170  Biso   1.000  C
  C24      1.0000 0.68080  0.94650  0.70830  Biso   1.000  C
  C25      1.0000 0.30780  0.15950  0.31220  Biso   1.000  C
  C26      1.0000 0.69220  0.84050  0.68780  Biso   1.000  C
  C27      1.0000 0.40910  0.24460  0.37890  Biso   1.000  C
  C28      1.0000 0.59090  0.75540  0.62110  Biso   1.000  C
  H27      1.0000 0.50020  0.24070  0.41760  Biso   1.000  H
  H28      1.0000 0.49980  0.75930  0.58240  Biso   1.000  H
  C29      1.0000 0.19140  0.20190  0.27210  Biso   1.000  C
  C30      1.0000 0.80860  0.79810  0.72790  Biso   1.000  C
  H29      1.0000 0.10440  0.16580  0.22480  Biso   1.000  H
  H30      1.0000 0.89560  0.83420  0.77520  Biso   1.000  H
  C31      1.0000 0.13730  0.37890  0.29230  Biso   1.000  C
  C32      1.0000 0.86270  0.62110  0.70770  Biso   1.000  C
  H31      1.0000 0.06440  0.36060  0.31650  Biso   1.000  H
  H32      1.0000 0.93560  0.63940  0.68350  Biso   1.000  H
  H33      1.0000 0.18990  0.44630  0.33660  Biso   1.000  H
  H34      1.0000 0.81010  0.55370  0.66340  Biso   1.000  H
  C33      1.0000 0.07850  0.38790  0.18250  Biso   1.000  C
  C34      1.0000 0.92150  0.61210  0.81750  Biso   1.000  C
  H35      1.0000 0.01030  0.32610  0.13960  Biso   1.000  H
  H36      1.0000 0.98970  0.67390  0.86040  Biso   1.000  H
  H37      1.0000 0.14860  0.39350  0.15300  Biso   1.000  H
  H38      1.0000 0.85140  0.60650  0.84700  Biso   1.000  H
  C35      1.0000 0.00630  0.49100  0.17250  Biso   1.000  C
  C36      1.0000 0.99370  0.50900  0.82750  Biso   1.000  C
  H39      1.0000 0.02690  0.53240  0.24470  Biso   1.000  H
  H40      1.0000 0.97310  0.46760  0.75530  Biso   1.000  H
  H41      1.0000 0.03810  0.53390  0.13080  Biso   1.000  H
  H42      1.0000 0.96190  0.46610  0.86920  Biso   1.000  H
  C37      1.0000 0.89650  0.46020  0.12980  Biso   1.000  C
  C38      1.0000 0.10350  0.53980  0.87020  Biso   1.000  C
  H43      1.0000 0.84750  0.51680  0.12130  Biso   1.000  H
  H44      1.0000 0.15250  0.48320  0.87870  Biso   1.000  H
  H45      1.0000 0.86730  0.41740  0.17190  Biso   1.000  H
  H46      1.0000 0.13270  0.58260  0.82810  Biso   1.000  H
  H47      1.0000 0.87830  0.41920  0.05880  Biso   1.000  H
  H48      1.0000 0.12170  0.58080  0.94120  Biso   1.000  H
  Cu2      1.0000 0.50000  0.50000  0.50000  Biso   1.000  Cu
  O9       1.0000 0.48060  0.54790  0.36476  Biso   1.000  O
  O10      1.0000 0.51940  0.45210  0.63524  Biso   1.000  O
  O11      1.0000 0.65360  0.43709  0.50128  Biso   1.000  O
  O12      1.0000 0.34640  0.56291  0.49872  Biso   1.000  O
  C39      1.0000 0.49920  0.55730  0.19930  Biso   1.000  C
  C40      1.0000 0.50080  0.44270  0.80070  Biso   1.000  C
  C41      1.0000 0.54360  0.52050  0.30720  Biso   1.000  C
  C42      1.0000 0.45640  0.47950  0.69280  Biso   1.000  C
  F25      1.0000 0.36690  0.53680  0.14980  Biso   1.000  F
  F26      1.0000 0.63310  0.46320  0.85020  Biso   1.000  F
  F27      1.0000 0.53470  0.65090  0.20970  Biso   1.000  F
  F28      1.0000 0.46530  0.34910  0.79030  Biso   1.000  F
  F29      1.0000 0.59180  0.64330  0.21390  Biso   1.000  F
  F30      1.0000 0.40820  0.35670  0.78610  Biso   1.000  F
  F31      1.0000 0.52430  0.51620  0.13320  Biso   1.000  F
  F32      1.0000 0.47570  0.48380  0.86680  Biso   1.000  F
  C43      1.0000 0.64590  0.46360  0.33030  Biso   1.000  C
  C44      1.0000 0.35410  0.53640  0.66970  Biso   1.000  C
  H49      1.0000 0.68410  0.44860  0.27910  Biso   1.000  H
  H50      1.0000 0.31590  0.55140  0.72090  Biso   1.000  H
  F33      1.0000 0.51930  0.48800  0.11630  Biso   1.000  F
  F34      1.0000 0.48070  0.51200  0.88370  Biso   1.000  F
  F35      1.0000 0.38450  0.58730  0.17090  Biso   1.000  F
  F36      1.0000 0.61550  0.41270  0.82910  Biso   1.000  F
  C45      1.0000 0.69440  0.42780  0.42600  Biso   1.000  C
  C46      1.0000 0.30560  0.57220  0.57400  Biso   1.000  C
  C47      1.0000 0.80980  0.36750  0.44600  Biso   1.000  C
  C48      1.0000 0.19020  0.63250  0.55400  Biso   1.000  C
  F37      1.0000 0.76540  0.26850  0.42940  Biso   1.000  F
  F38      1.0000 0.23460  0.73150  0.57060  Biso   1.000  F
  F39      1.0000 0.90090  0.39000  0.54680  Biso   1.000  F
  F40      1.0000 0.09910  0.61000  0.45320  Biso   1.000  F
  F41      1.0000 0.87120  0.38140  0.37920  Biso   1.000  F
  F42      1.0000 0.12880  0.61860  0.62080  Biso   1.000  F
  F43      1.0000 0.85820  0.35270  0.37150  Biso   1.000  F
  F44      1.0000 0.14180  0.64730  0.62850  Biso   1.000  F
  F45      1.0000 0.91460  0.42210  0.53010  Biso   1.000  F
  F46      1.0000 0.08540  0.57790  0.46990  Biso   1.000  F
  F47      1.0000 0.77540  0.27940  0.46280  Biso   1.000  F
  F48      1.0000 0.22460  0.72060  0.53720  Biso   1.000  F
  Br1      1.0000 0.15010  0.24140  0.54230  Biso   1.000  Br
  Br2      1.0000 0.84990  0.75860  0.45770  Biso   1.000  Br
  C49      1.0000 0.03000  0.12530  0.47820  Biso   1.000  C
  C50      1.0000 0.97000  0.87470  0.52180  Biso   1.000  C
  H51      1.0000 0.02690  0.10540  0.40580  Biso   1.000  H
  H52      1.0000 0.97310  0.89460  0.59420  Biso   1.000  H
  H53      1.0000 0.94140  0.13650  0.47400  Biso   1.000  H
  H54      1.0000 0.05860  0.86350  0.52600  Biso   1.000  H
  C51      1.0000 0.06380  0.03350  0.51990  Biso   1.000  C
  C52      1.0000 0.93620  0.96650  0.48010  Biso   1.000  C
  H55      1.0000 0.06470  0.05080  0.59190  Biso   1.000  H
  H56      1.0000 0.93530  0.94920  0.40810  Biso   1.000  H
  H57      1.0000 0.15120  0.01990  0.52370  Biso   1.000  H
  H58      1.0000 0.84880  0.98010  0.47630  Biso   1.000  H
  C53      1.0000 0.05000  0.04720  0.57100  Biso   1.000  C
  C54      1.0000 0.95000  0.95280  0.42900  Biso   1.000  C
  H59      1.0000 0.96750  0.93200  0.36470  Biso   1.000  H
  H60      1.0000 0.03250  0.06800  0.63530  Biso   1.000  H
  H61      1.0000 0.86620  0.97800  0.40750  Biso   1.000  H
  H62      1.0000 0.13380  0.02200  0.59250  Biso   1.000  H
  C55      1.0000 0.10400  0.13770  0.53760  Biso   1.000  C
  C56      1.0000 0.89600  0.86230  0.46240  Biso   1.000  C
  H63      1.0000 0.83210  0.86960  0.49720  Biso   1.000  H
  H64      1.0000 0.16790  0.13040  0.50280  Biso   1.000  H
  H65      1.0000 0.97800  0.84640  0.51070  Biso   1.000  H
  H66      1.0000 0.02200  0.15360  0.48930  Biso   1.000  H
  C57      1.0000 0.15460  0.21490  0.64740  Biso   1.000  C
  C58      1.0000 0.84540  0.78510  0.35260  Biso   1.000  C
  H67      1.0000 0.81820  0.71670  0.36170  Biso   1.000  H
  H68      1.0000 0.18180  0.28330  0.63830  Biso   1.000  H
  H69      1.0000 0.23300  0.19260  0.69350  Biso   1.000  H
  H70      1.0000 0.76700  0.80740  0.30650  Biso   1.000  H
  H71      1.0000 0.08820  0.21560  0.68000  Biso   1.000  H
  H72      1.0000 0.91180  0.78440  0.32000  Biso   1.000  H
