data_image0
_cell_length_a       10.7959
_cell_length_b       13.287
_cell_length_c       13.3121
_cell_angle_alpha    98.35
_cell_angle_beta     111.376
_cell_angle_gamma    97.192

_symmetry_space_group_name_H-M    "P 1"
_symmetry_int_tables_number       1

loop_
  _symmetry_equiv_pos_as_xyz
  'x, y, z'

loop_
  _atom_site_label
  _atom_site_occupancy
  _atom_site_fract_x
  _atom_site_fract_y
  _atom_site_fract_z
  _atom_site_thermal_displace_type
  _atom_site_B_iso_or_equiv
  _atom_site_type_symbol
  Cu1      1.0000 0.00000  0.00000  0.00000  Biso   1.000  Cu
  O1       1.0000 0.10810  0.91821  0.94210  Biso   1.000  O
  O2       1.0000 0.89190  0.08179  0.05790  Biso   1.000  O
  C1       1.0000 0.25520  0.87700  0.85920  Biso   1.000  C
  C2       1.0000 0.74480  0.12300  0.14080  Biso   1.000  C
  F1       1.0000 0.14900  0.82330  0.76610  Biso   1.000  F
  F2       1.0000 0.85100  0.17670  0.23390  Biso   1.000  F
  F3       1.0000 0.34770  0.90960  0.82810  Biso   1.000  F
  F4       1.0000 0.65230  0.09040  0.17190  Biso   1.000  F
  F5       1.0000 0.26740  0.78630  0.91120  Biso   1.000  F
  F6       1.0000 0.73260  0.21370  0.08880  Biso   1.000  F
  F7       1.0000 0.26600  0.80700  0.88600  Biso   1.000  F
  F8       1.0000 0.73400  0.19300  0.11400  Biso   1.000  F
  F9       1.0000 0.20780  0.87200  0.75920  Biso   1.000  F
  F10      1.0000 0.79220  0.12800  0.24080  Biso   1.000  F
  F11      1.0000 0.39010  0.90320  0.89220  Biso   1.000  F
  F12      1.0000 0.60990  0.09680  0.10780  Biso   1.000  F
  C3       1.0000 0.20440  0.95630  0.92050  Biso   1.000  C
  C4       1.0000 0.79560  0.04370  0.07950  Biso   1.000  C
  C5       1.0000 0.26570  0.05800  0.94330  Biso   1.000  C
  C6       1.0000 0.73430  0.94200  0.05670  Biso   1.000  C
  H1       1.0000 0.33910  0.07540  0.92290  Biso   1.000  H
  H2       1.0000 0.66090  0.92460  0.07710  Biso   1.000  H
  C7       1.0000 0.22340  0.13590  0.99500  Biso   1.000  C
  C8       1.0000 0.77660  0.86410  0.00500  Biso   1.000  C
  C9       1.0000 0.29950  0.24700  0.01850  Biso   1.000  C
  C10      1.0000 0.70050  0.75300  0.98150  Biso   1.000  C
  F13      1.0000 0.21640  0.30530  0.98450  Biso   1.000  F
  F14      1.0000 0.78360  0.69470  0.01550  Biso   1.000  F
  F15      1.0000 0.36600  0.27910  0.12300  Biso   1.000  F
  F16      1.0000 0.63400  0.72090  0.87700  Biso   1.000  F
  F17      1.0000 0.37900  0.25680  0.98830  Biso   1.000  F
  F18      1.0000 0.62100  0.74320  0.01170  Biso   1.000  F
  F19      1.0000 0.21980  0.30470  0.96220  Biso   1.000  F
  F20      1.0000 0.78020  0.69530  0.03780  Biso   1.000  F
  F21      1.0000 0.33500  0.29400  0.11820  Biso   1.000  F
  F22      1.0000 0.66500  0.70600  0.88180  Biso   1.000  F
  F23      1.0000 0.40710  0.25670  0.97720  Biso   1.000  F
  F24      1.0000 0.59290  0.74330  0.02280  Biso   1.000  F
  O3       1.0000 0.12810  0.12776  0.02660  Biso   1.000  O
  O4       1.0000 0.87190  0.87224  0.97340  Biso   1.000  O
  Cu2      1.0000 0.50000  0.50000  0.50000  Biso   1.000  Cu
  O5       1.0000 0.65180  0.43878  0.49780  Biso   1.000  O
  O6       1.0000 0.34820  0.56122  0.50220  Biso   1.000  O
  C11      1.0000 0.80500  0.36970  0.43840  Biso   1.000  C
  C12      1.0000 0.19500  0.63030  0.56160  Biso   1.000  C
  F25      1.0000 0.85580  0.36760  0.36380  Biso   1.000  F
  F26      1.0000 0.14420  0.63240  0.63620  Biso   1.000  F
  F27      1.0000 0.89600  0.39720  0.53940  Biso   1.000  F
  F28      1.0000 0.10400  0.60280  0.46060  Biso   1.000  F
  F29      1.0000 0.76520  0.27440  0.44100  Biso   1.000  F
  F30      1.0000 0.23480  0.72560  0.55900  Biso   1.000  F
  F31      1.0000 0.90860  0.42010  0.52040  Biso   1.000  F
  F32      1.0000 0.09140  0.57990  0.47960  Biso   1.000  F
  C13      1.0000 0.68920  0.42900  0.41890  Biso   1.000  C
  C14      1.0000 0.31080  0.57100  0.58110  Biso   1.000  C
  C15      1.0000 0.63820  0.46330  0.32260  Biso   1.000  C
  C16      1.0000 0.36180  0.53670  0.67740  Biso   1.000  C
  H3       1.0000 0.67390  0.44760  0.26870  Biso   1.000  H
  H4       1.0000 0.32610  0.55240  0.73130  Biso   1.000  H
  C17      1.0000 0.53640  0.52010  0.30180  Biso   1.000  C
  C18      1.0000 0.46360  0.47990  0.69820  Biso   1.000  C
  C19      1.0000 0.48920  0.55590  0.19260  Biso   1.000  C
  C20      1.0000 0.51080  0.44410  0.80740  Biso   1.000  C
  F33      1.0000 0.49400  0.49410  0.11400  Biso   1.000  F
  F34      1.0000 0.50600  0.50590  0.88600  Biso   1.000  F
  F35      1.0000 0.53500  0.63370  0.19610  Biso   1.000  F
  F36      1.0000 0.46500  0.36630  0.80390  Biso   1.000  F
  F37      1.0000 0.36980  0.57940  0.16310  Biso   1.000  F
  F38      1.0000 0.63020  0.42060  0.83690  Biso   1.000  F
  F39      1.0000 0.53400  0.51330  0.12180  Biso   1.000  F
  F40      1.0000 0.46600  0.48670  0.87820  Biso   1.000  F
  F41      1.0000 0.55400  0.66420  0.21220  Biso   1.000  F
  F42      1.0000 0.44600  0.33580  0.78780  Biso   1.000  F
  F43      1.0000 0.35500  0.52650  0.14470  Biso   1.000  F
  F44      1.0000 0.64500  0.47350  0.85530  Biso   1.000  F
  O7       1.0000 0.47720  0.54793  0.36250  Biso   1.000  O
  O8       1.0000 0.52280  0.45207  0.63750  Biso   1.000  O
  O9       1.0000 0.09100  0.98190  0.18270  Biso   1.000  O
  O10      1.0000 0.90900  0.01810  0.81730  Biso   1.000  O
  N1       1.0000 0.21460  0.97370  0.23300  Biso   1.000  N
  N2       1.0000 0.78540  0.02630  0.76700  Biso   1.000  N
  C21      1.0000 0.25370  0.87140  0.24920  Biso   1.000  C
  C22      1.0000 0.74630  0.12860  0.75080  Biso   1.000  C
  C23      1.0000 0.21030  0.84360  0.34040  Biso   1.000  C
  C24      1.0000 0.78970  0.15640  0.65960  Biso   1.000  C
  H5       1.0000 0.11210  0.82840  0.31320  Biso   1.000  H
  H6       1.0000 0.88790  0.17160  0.68680  Biso   1.000  H
  H7       1.0000 0.24570  0.90150  0.40300  Biso   1.000  H
  H8       1.0000 0.75430  0.09850  0.59700  Biso   1.000  H
  H9       1.0000 0.24550  0.78330  0.36300  Biso   1.000  H
  H10      1.0000 0.75450  0.21670  0.63700  Biso   1.000  H
  C25      1.0000 0.18010  0.79000  0.14480  Biso   1.000  C
  C26      1.0000 0.81990  0.21000  0.85520  Biso   1.000  C
  H11      1.0000 0.08370  0.77770  0.12880  Biso   1.000  H
  H12      1.0000 0.91630  0.22230  0.87120  Biso   1.000  H
  H13      1.0000 0.21350  0.72610  0.15440  Biso   1.000  H
  H14      1.0000 0.78650  0.27390  0.84560  Biso   1.000  H
  H15      1.0000 0.19590  0.81390  0.08420  Biso   1.000  H
  H16      1.0000 0.80410  0.18610  0.91580  Biso   1.000  H
  C27      1.0000 0.40900  0.90140  0.28640  Biso   1.000  C
  C28      1.0000 0.59100  0.09860  0.71360  Biso   1.000  C
  C29      1.0000 0.45620  0.89330  0.19220  Biso   1.000  C
  C30      1.0000 0.54380  0.10670  0.80780  Biso   1.000  C
  H17      1.0000 0.55440  0.91100  0.22140  Biso   1.000  H
  H18      1.0000 0.44560  0.08900  0.77860  Biso   1.000  H
  H19      1.0000 0.41840  0.94080  0.14570  Biso   1.000  H
  H20      1.0000 0.58160  0.05920  0.85430  Biso   1.000  H
  H21      1.0000 0.42610  0.82300  0.14910  Biso   1.000  H
  H22      1.0000 0.57390  0.17700  0.85090  Biso   1.000  H
  C31      1.0000 0.49090  0.84950  0.37440  Biso   1.000  C
  C32      1.0000 0.50910  0.15050  0.62560  Biso   1.000  C
  H23      1.0000 0.58640  0.87020  0.38970  Biso   1.000  H
  H24      1.0000 0.41360  0.12980  0.61030  Biso   1.000  H
  H25      1.0000 0.46390  0.77480  0.34920  Biso   1.000  H
  H26      1.0000 0.53610  0.22520  0.65080  Biso   1.000  H
  H27      1.0000 0.47520  0.86990  0.44100  Biso   1.000  H
  H28      1.0000 0.52480  0.13010  0.55900  Biso   1.000  H
  N3       1.0000 0.43160  0.01540  0.33220  Biso   1.000  N
  N4       1.0000 0.56840  0.98460  0.66780  Biso   1.000  N
  O11      1.0000 0.54850  0.06890  0.38940  Biso   1.000  O
  O12      1.0000 0.45150  0.93110  0.61060  Biso   1.000  O
  C33      1.0000 0.31670  0.05330  0.29260  Biso   1.000  C
  C34      1.0000 0.68330  0.94670  0.70740  Biso   1.000  C
  C35      1.0000 0.30660  0.15920  0.31340  Biso   1.000  C
  C36      1.0000 0.69340  0.84080  0.68660  Biso   1.000  C
  C37      1.0000 0.40810  0.24510  0.37930  Biso   1.000  C
  C38      1.0000 0.59190  0.75490  0.62070  Biso   1.000  C
  H29      1.0000 0.49930  0.24140  0.41730  Biso   1.000  H
  H30      1.0000 0.50070  0.75860  0.58270  Biso   1.000  H
  N5       1.0000 0.36040  0.33100  0.38130  Biso   1.000  N
  N6       1.0000 0.63960  0.66900  0.61870  Biso   1.000  N
  N7       1.0000 0.22690  0.30220  0.31530  Biso   1.000  N
  N8       1.0000 0.77310  0.69780  0.68470  Biso   1.000  N
  C39      1.0000 0.13980  0.37900  0.29540  Biso   1.000  C
  C40      1.0000 0.86020  0.62100  0.70460  Biso   1.000  C
  H31      1.0000 0.07010  0.36310  0.32460  Biso   1.000  H
  H32      1.0000 0.92990  0.63690  0.67540  Biso   1.000  H
  H33      1.0000 0.19470  0.44730  0.33670  Biso   1.000  H
  H34      1.0000 0.80530  0.55270  0.66330  Biso   1.000  H
  C41      1.0000 0.07510  0.38460  0.18340  Biso   1.000  C
  C42      1.0000 0.92490  0.61540  0.81660  Biso   1.000  C
  H35      1.0000 0.00470  0.32250  0.14370  Biso   1.000  H
  H36      1.0000 0.99530  0.67750  0.85630  Biso   1.000  H
  H37      1.0000 0.14120  0.38830  0.14890  Biso   1.000  H
  H38      1.0000 0.85880  0.61170  0.85110  Biso   1.000  H
  C43      1.0000 0.00640  0.48920  0.17730  Biso   1.000  C
  C44      1.0000 0.99360  0.51080  0.82270  Biso   1.000  C
  H39      1.0000 0.01680  0.52400  0.25090  Biso   1.000  H
  H40      1.0000 0.98320  0.47600  0.74910  Biso   1.000  H
  H41      1.0000 0.04790  0.53810  0.14490  Biso   1.000  H
  H42      1.0000 0.95210  0.46190  0.85510  Biso   1.000  H
  C45      1.0000 0.89910  0.45910  0.12450  Biso   1.000  C
  C46      1.0000 0.10090  0.54090  0.87550  Biso   1.000  C
  H43      1.0000 0.85110  0.51620  0.11460  Biso   1.000  H
  H44      1.0000 0.14890  0.48380  0.88540  Biso   1.000  H
  H45      1.0000 0.85980  0.41190  0.15890  Biso   1.000  H
  H46      1.0000 0.14020  0.58810  0.84110  Biso   1.000  H
  H47      1.0000 0.89150  0.42250  0.05330  Biso   1.000  H
  H48      1.0000 0.10850  0.57750  0.94670  Biso   1.000  H
  C47      1.0000 0.19180  0.20160  0.27480  Biso   1.000  C
  C48      1.0000 0.80820  0.79840  0.72520  Biso   1.000  C
  H49      1.0000 0.10430  0.16520  0.22800  Biso   1.000  H
  H50      1.0000 0.89570  0.83480  0.77200  Biso   1.000  H
  I1       1.0000 0.14889  0.24347  0.56572  Biso   1.000  I
  I2       1.0000 0.85111  0.75653  0.43428  Biso   1.000  I
  C49      1.0000 0.01910  0.11770  0.47820  Biso   1.000  C
  C50      1.0000 0.98090  0.88230  0.52180  Biso   1.000  C
  H51      1.0000 0.02440  0.10060  0.40720  Biso   1.000  H
  H52      1.0000 0.97560  0.89940  0.59280  Biso   1.000  H
  H53      1.0000 0.93020  0.13090  0.46980  Biso   1.000  H
  H54      1.0000 0.06980  0.86910  0.53020  Biso   1.000  H
  C51      1.0000 0.05200  0.03800  0.54800  Biso   1.000  C
  C52      1.0000 0.94800  0.96200  0.45200  Biso   1.000  C
  H55      1.0000 0.05370  0.05680  0.62090  Biso   1.000  H
  H56      1.0000 0.94630  0.94320  0.37910  Biso   1.000  H
  H57      1.0000 0.13760  0.02090  0.55090  Biso   1.000  H
  H58      1.0000 0.86240  0.97910  0.44910  Biso   1.000  H
  C53      1.0000 0.06900  0.04940  0.52000  Biso   1.000  C
  C54      1.0000 0.93100  0.95060  0.48000  Biso   1.000  C
  H59      1.0000 0.92550  0.93510  0.40510  Biso   1.000  H
  H60      1.0000 0.07450  0.06490  0.59490  Biso   1.000  H
  H61      1.0000 0.84660  0.96670  0.48060  Biso   1.000  H
  H62      1.0000 0.15340  0.03330  0.51940  Biso   1.000  H
  C55      1.0000 0.09480  0.16940  0.53680  Biso   1.000  C
  C56      1.0000 0.90520  0.83060  0.46320  Biso   1.000  C
  H63      1.0000 0.90050  0.84120  0.53480  Biso   1.000  H
  H64      1.0000 0.09950  0.15880  0.46520  Biso   1.000  H
  H65      1.0000 0.99220  0.81560  0.46750  Biso   1.000  H
  H66      1.0000 0.00780  0.18440  0.53250  Biso   1.000  H
  C57      1.0000 0.84090  0.77020  0.34630  Biso   1.000  C
  C58      1.0000 0.15910  0.22980  0.65370  Biso   1.000  C
  H67      1.0000 0.85010  0.70740  0.37330  Biso   1.000  H
  H68      1.0000 0.14990  0.29260  0.62670  Biso   1.000  H
  H69      1.0000 0.75460  0.78630  0.34270  Biso   1.000  H
  H70      1.0000 0.24540  0.21370  0.65730  Biso   1.000  H
  H71      1.0000 0.84680  0.76050  0.27510  Biso   1.000  H
  H72      1.0000 0.15320  0.23950  0.72490  Biso   1.000  H
