data_image0
_cell_length_a       10.898
_cell_length_b       13.354
_cell_length_c       13.397
_cell_angle_alpha    98.295
_cell_angle_beta     111.613
_cell_angle_gamma    97.091

_symmetry_space_group_name_H-M    "P 1"
_symmetry_int_tables_number       1

loop_
  _symmetry_equiv_pos_as_xyz
  'x, y, z'

loop_
  _atom_site_label
  _atom_site_occupancy
  _atom_site_fract_x
  _atom_site_fract_y
  _atom_site_fract_z
  _atom_site_thermal_displace_type
  _atom_site_B_iso_or_equiv
  _atom_site_type_symbol
  Cu1      1.0000 0.00000  0.00000  0.00000  Biso   1.000  Cu
  O1       1.0000 0.10720  0.91860  0.94150  Biso   1.000  O
  O2       1.0000 0.89280  0.08140  0.05850  Biso   1.000  O
  C1       1.0000 0.25330  0.87800  0.85850  Biso   1.000  C
  C2       1.0000 0.74670  0.12200  0.14150  Biso   1.000  C
  F1       1.0000 0.14600  0.82210  0.76660  Biso   1.000  F
  F2       1.0000 0.85400  0.17790  0.23340  Biso   1.000  F
  F3       1.0000 0.34100  0.90990  0.82480  Biso   1.000  F
  F4       1.0000 0.65900  0.09010  0.17520  Biso   1.000  F
  F5       1.0000 0.26340  0.78690  0.90840  Biso   1.000  F
  F6       1.0000 0.73660  0.21310  0.09160  Biso   1.000  F
  F7       1.0000 0.26200  0.80830  0.88300  Biso   1.000  F
  F8       1.0000 0.73800  0.19170  0.11700  Biso   1.000  F
  F9       1.0000 0.20700  0.87510  0.75900  Biso   1.000  F
  F10      1.0000 0.79300  0.12490  0.24100  Biso   1.000  F
  F11      1.0000 0.38650  0.90320  0.89360  Biso   1.000  F
  F12      1.0000 0.61350  0.09680  0.10640  Biso   1.000  F
  C3       1.0000 0.20260  0.95660  0.91950  Biso   1.000  C
  C4       1.0000 0.79740  0.04340  0.08050  Biso   1.000  C
  C5       1.0000 0.26270  0.05820  0.94210  Biso   1.000  C
  C6       1.0000 0.73730  0.94180  0.05790  Biso   1.000  C
  H1       1.0000 0.33490  0.07570  0.92150  Biso   1.000  H
  H2       1.0000 0.66510  0.92430  0.07850  Biso   1.000  H
  C7       1.0000 0.22100  0.13560  0.99400  Biso   1.000  C
  C8       1.0000 0.77900  0.86440  0.00600  Biso   1.000  C
  C9       1.0000 0.29680  0.24670  0.01760  Biso   1.000  C
  C10      1.0000 0.70320  0.75330  0.98240  Biso   1.000  C
  F13      1.0000 0.21630  0.30770  0.98800  Biso   1.000  F
  F14      1.0000 0.78370  0.69230  0.01200  Biso   1.000  F
  F15      1.0000 0.36800  0.27770  0.12070  Biso   1.000  F
  F16      1.0000 0.63200  0.72230  0.87930  Biso   1.000  F
  F17      1.0000 0.37500  0.25480  0.98600  Biso   1.000  F
  F18      1.0000 0.62500  0.74520  0.01400  Biso   1.000  F
  F19      1.0000 0.21600  0.29980  0.95800  Biso   1.000  F
  F20      1.0000 0.78400  0.70020  0.04200  Biso   1.000  F
  F21      1.0000 0.32800  0.29340  0.11490  Biso   1.000  F
  F22      1.0000 0.67200  0.70660  0.88510  Biso   1.000  F
  F23      1.0000 0.40180  0.25800  0.97650  Biso   1.000  F
  F24      1.0000 0.59820  0.74200  0.02350  Biso   1.000  F
  O3       1.0000 0.12690  0.12758  0.02620  Biso   1.000  O
  O4       1.0000 0.87310  0.87242  0.97380  Biso   1.000  O
  Cu2      1.0000 0.50000  0.50000  0.50000  Biso   1.000  Cu
  O5       1.0000 0.65030  0.43800  0.49740  Biso   1.000  O
  O6       1.0000 0.34970  0.56200  0.50260  Biso   1.000  O
  C11      1.0000 0.80180  0.36860  0.43810  Biso   1.000  C
  C12      1.0000 0.19820  0.63140  0.56190  Biso   1.000  C
  F25      1.0000 0.85220  0.36600  0.36430  Biso   1.000  F
  F26      1.0000 0.14780  0.63400  0.63570  Biso   1.000  F
  F27      1.0000 0.89050  0.39130  0.53950  Biso   1.000  F
  F28      1.0000 0.10950  0.60870  0.46050  Biso   1.000  F
  F29      1.0000 0.76430  0.27480  0.44200  Biso   1.000  F
  F30      1.0000 0.23570  0.72520  0.55800  Biso   1.000  F
  F31      1.0000 0.90670  0.42270  0.51460  Biso   1.000  F
  F32      1.0000 0.09330  0.57730  0.48540  Biso   1.000  F
  C13      1.0000 0.68660  0.42810  0.41840  Biso   1.000  C
  C14      1.0000 0.31340  0.57190  0.58160  Biso   1.000  C
  C15      1.0000 0.63550  0.46280  0.32270  Biso   1.000  C
  C16      1.0000 0.36450  0.53720  0.67730  Biso   1.000  C
  H3       1.0000 0.67050  0.44740  0.26900  Biso   1.000  H
  H4       1.0000 0.32950  0.55260  0.73100  Biso   1.000  H
  C17      1.0000 0.53460  0.51950  0.30240  Biso   1.000  C
  C18      1.0000 0.46540  0.48050  0.69760  Biso   1.000  C
  C19      1.0000 0.48770  0.55560  0.19280  Biso   1.000  C
  C20      1.0000 0.51230  0.44440  0.80720  Biso   1.000  C
  F33      1.0000 0.49000  0.49330  0.11420  Biso   1.000  F
  F34      1.0000 0.51000  0.50670  0.88580  Biso   1.000  F
  F35      1.0000 0.53700  0.63340  0.19800  Biso   1.000  F
  F36      1.0000 0.46300  0.36660  0.80200  Biso   1.000  F
  F37      1.0000 0.37000  0.58060  0.16360  Biso   1.000  F
  F38      1.0000 0.63000  0.41940  0.83640  Biso   1.000  F
  F39      1.0000 0.53600  0.51630  0.12480  Biso   1.000  F
  F40      1.0000 0.46400  0.48370  0.87520  Biso   1.000  F
  F41      1.0000 0.54900  0.66330  0.21200  Biso   1.000  F
  F42      1.0000 0.45100  0.33670  0.78800  Biso   1.000  F
  F43      1.0000 0.35460  0.52720  0.14540  Biso   1.000  F
  F44      1.0000 0.64540  0.47280  0.85460  Biso   1.000  F
  O7       1.0000 0.47650  0.54720  0.36250  Biso   1.000  O
  O8       1.0000 0.52350  0.45280  0.63750  Biso   1.000  O
  O9       1.0000 0.09300  0.98240  0.18250  Biso   1.000  O
  O10      1.0000 0.90700  0.01760  0.81750  Biso   1.000  O
  N1       1.0000 0.21660  0.97460  0.23300  Biso   1.000  N
  N2       1.0000 0.78340  0.02540  0.76700  Biso   1.000  N
  C21      1.0000 0.25640  0.87260  0.24910  Biso   1.000  C
  C22      1.0000 0.74360  0.12740  0.75090  Biso   1.000  C
  C23      1.0000 0.21330  0.84390  0.33980  Biso   1.000  C
  C24      1.0000 0.78670  0.15610  0.66020  Biso   1.000  C
  H5       1.0000 0.11590  0.82880  0.31240  Biso   1.000  H
  H6       1.0000 0.88410  0.17120  0.68760  Biso   1.000  H
  H7       1.0000 0.24850  0.90100  0.40250  Biso   1.000  H
  H8       1.0000 0.75150  0.09900  0.59750  Biso   1.000  H
  H9       1.0000 0.24820  0.78360  0.36170  Biso   1.000  H
  H10      1.0000 0.75180  0.21640  0.63830  Biso   1.000  H
  C25      1.0000 0.18350  0.79140  0.14440  Biso   1.000  C
  C26      1.0000 0.81650  0.20860  0.85560  Biso   1.000  C
  H11      1.0000 0.08790  0.77890  0.12800  Biso   1.000  H
  H12      1.0000 0.91210  0.22110  0.87200  Biso   1.000  H
  H13      1.0000 0.21710  0.72800  0.15380  Biso   1.000  H
  H14      1.0000 0.78290  0.27200  0.84620  Biso   1.000  H
  H15      1.0000 0.19910  0.81560  0.08430  Biso   1.000  H
  H16      1.0000 0.80090  0.18440  0.91570  Biso   1.000  H
  C27      1.0000 0.41070  0.90290  0.28670  Biso   1.000  C
  C28      1.0000 0.58930  0.09710  0.71330  Biso   1.000  C
  C29      1.0000 0.45860  0.89540  0.19280  Biso   1.000  C
  C30      1.0000 0.54140  0.10460  0.80720  Biso   1.000  C
  H17      1.0000 0.55610  0.91310  0.22250  Biso   1.000  H
  H18      1.0000 0.44390  0.08690  0.77750  Biso   1.000  H
  H19      1.0000 0.42130  0.94280  0.14660  Biso   1.000  H
  H20      1.0000 0.57870  0.05720  0.85340  Biso   1.000  H
  H21      1.0000 0.42910  0.82550  0.14970  Biso   1.000  H
  H22      1.0000 0.57090  0.17450  0.85030  Biso   1.000  H
  C31      1.0000 0.49330  0.85150  0.37460  Biso   1.000  C
  C32      1.0000 0.50670  0.14850  0.62540  Biso   1.000  C
  H23      1.0000 0.58790  0.87230  0.38950  Biso   1.000  H
  H24      1.0000 0.41210  0.12770  0.61050  Biso   1.000  H
  H25      1.0000 0.46690  0.77720  0.34990  Biso   1.000  H
  H26      1.0000 0.53310  0.22280  0.65010  Biso   1.000  H
  H27      1.0000 0.47840  0.87190  0.44110  Biso   1.000  H
  H28      1.0000 0.52160  0.12810  0.55890  Biso   1.000  H
  N3       1.0000 0.43230  0.01610  0.33220  Biso   1.000  N
  N4       1.0000 0.56770  0.98390  0.66780  Biso   1.000  N
  O11      1.0000 0.54820  0.07010  0.38950  Biso   1.000  O
  O12      1.0000 0.45180  0.92990  0.61050  Biso   1.000  O
  C33      1.0000 0.31740  0.05370  0.29240  Biso   1.000  C
  C34      1.0000 0.68260  0.94630  0.70760  Biso   1.000  C
  C35      1.0000 0.30700  0.15960  0.31340  Biso   1.000  C
  C36      1.0000 0.69300  0.84040  0.68660  Biso   1.000  C
  C37      1.0000 0.40690  0.24500  0.37930  Biso   1.000  C
  C38      1.0000 0.59310  0.75500  0.62070  Biso   1.000  C
  H29      1.0000 0.49760  0.24150  0.41710  Biso   1.000  H
  H30      1.0000 0.50240  0.75850  0.58290  Biso   1.000  H
  N5       1.0000 0.35890  0.33070  0.38200  Biso   1.000  N
  N6       1.0000 0.64110  0.66930  0.61800  Biso   1.000  N
  N7       1.0000 0.22610  0.30200  0.31630  Biso   1.000  N
  N8       1.0000 0.77390  0.69800  0.68370  Biso   1.000  N
  C39      1.0000 0.13860  0.37770  0.29690  Biso   1.000  C
  C40      1.0000 0.86140  0.62230  0.70310  Biso   1.000  C
  H31      1.0000 0.06780  0.35930  0.32330  Biso   1.000  H
  H32      1.0000 0.93220  0.64070  0.67670  Biso   1.000  H
  H33      1.0000 0.19150  0.44520  0.34070  Biso   1.000  H
  H34      1.0000 0.80850  0.55480  0.65930  Biso   1.000  H
  C41      1.0000 0.07680  0.38680  0.18580  Biso   1.000  C
  C42      1.0000 0.92320  0.61320  0.81420  Biso   1.000  C
  H35      1.0000 0.00880  0.32470  0.14350  Biso   1.000  H
  H36      1.0000 0.99120  0.67530  0.85650  Biso   1.000  H
  H37      1.0000 0.14450  0.39340  0.15400  Biso   1.000  H
  H38      1.0000 0.85550  0.60660  0.84600  Biso   1.000  H
  C43      1.0000 0.00600  0.48810  0.17920  Biso   1.000  C
  C44      1.0000 0.99400  0.51190  0.82080  Biso   1.000  C
  H39      1.0000 0.01790  0.52270  0.25270  Biso   1.000  H
  H40      1.0000 0.98210  0.47730  0.74730  Biso   1.000  H
  H41      1.0000 0.04650  0.53720  0.14700  Biso   1.000  H
  H42      1.0000 0.95350  0.46280  0.85300  Biso   1.000  H
  C45      1.0000 0.90000  0.46100  0.12800  Biso   1.000  C
  C46      1.0000 0.10000  0.53900  0.87200  Biso   1.000  C
  H43      1.0000 0.85510  0.51940  0.11980  Biso   1.000  H
  H44      1.0000 0.14490  0.48060  0.88020  Biso   1.000  H
  H45      1.0000 0.86050  0.41480  0.16250  Biso   1.000  H
  H46      1.0000 0.13950  0.58520  0.83750  Biso   1.000  H
  H47      1.0000 0.89000  0.42470  0.05670  Biso   1.000  H
  H48      1.0000 0.11000  0.57530  0.94330  Biso   1.000  H
  C47      1.0000 0.19200  0.20140  0.27550  Biso   1.000  C
  C48      1.0000 0.80800  0.79860  0.72450  Biso   1.000  C
  H49      1.0000 0.10530  0.16480  0.22900  Biso   1.000  H
  H50      1.0000 0.89470  0.83520  0.77100  Biso   1.000  H
  I1       1.0000 0.14770  0.24064  0.56881  Biso   1.000  I
  I2       1.0000 0.85230  0.75936  0.43119  Biso   1.000  I
  C49      1.0000 0.02600  0.11800  0.48800  Biso   1.000  C
  C50      1.0000 0.97400  0.88200  0.51200  Biso   1.000  C
  H51      1.0000 0.03110  0.10110  0.41690  Biso   1.000  H
  H52      1.0000 0.96890  0.89890  0.58310  Biso   1.000  H
  H53      1.0000 0.93690  0.13140  0.47950  Biso   1.000  H
  H54      1.0000 0.06310  0.86860  0.52050  Biso   1.000  H
  C51      1.0000 0.05000  0.03500  0.55400  Biso   1.000  C
  C52      1.0000 0.95000  0.96500  0.44600  Biso   1.000  C
  H55      1.0000 0.05180  0.05410  0.62740  Biso   1.000  H
  H56      1.0000 0.94820  0.94590  0.37260  Biso   1.000  H
  H57      1.0000 0.13560  0.01830  0.55740  Biso   1.000  H
  H58      1.0000 0.86440  0.98170  0.44260  Biso   1.000  H
  C53      1.0000 0.07700  0.04520  0.51300  Biso   1.000  C
  C54      1.0000 0.92300  0.95480  0.48700  Biso   1.000  C
  H59      1.0000 0.91670  0.93930  0.41290  Biso   1.000  H
  H60      1.0000 0.08330  0.06070  0.58710  Biso   1.000  H
  H61      1.0000 0.16220  0.02920  0.51160  Biso   1.000  H
  H62      1.0000 0.83780  0.97080  0.48840  Biso   1.000  H
  C55      1.0000 0.09800  0.16470  0.54000  Biso   1.000  C
  C56      1.0000 0.90200  0.83530  0.46000  Biso   1.000  C
  H63      1.0000 0.89720  0.84590  0.53160  Biso   1.000  H
  H64      1.0000 0.10280  0.15410  0.46840  Biso   1.000  H
  H65      1.0000 0.98890  0.82030  0.46430  Biso   1.000  H
  H66      1.0000 0.01110  0.17970  0.53570  Biso   1.000  H
  C57      1.0000 0.15820  0.22520  0.65800  Biso   1.000  C
  C58      1.0000 0.84180  0.77480  0.34200  Biso   1.000  C
  H67      1.0000 0.85100  0.71200  0.36900  Biso   1.000  H
  H68      1.0000 0.14900  0.28800  0.63100  Biso   1.000  H
  H69      1.0000 0.75540  0.79090  0.33850  Biso   1.000  H
  H70      1.0000 0.24460  0.20910  0.66150  Biso   1.000  H
  H71      1.0000 0.15240  0.23490  0.72920  Biso   1.000  H
  H72      1.0000 0.84760  0.76510  0.27080  Biso   1.000  H
