data_image0
_cell_length_a       13.12
_cell_length_b       13.398
_cell_length_c       20.379
_cell_angle_alpha    74.118
_cell_angle_beta     76.93
_cell_angle_gamma    81.45

_symmetry_space_group_name_H-M    "P 1"
_symmetry_int_tables_number       1

loop_
  _symmetry_equiv_pos_as_xyz
  'x, y, z'

loop_
  _atom_site_label
  _atom_site_occupancy
  _atom_site_fract_x
  _atom_site_fract_y
  _atom_site_fract_z
  _atom_site_thermal_displace_type
  _atom_site_B_iso_or_equiv
  _atom_site_type_symbol
  Cu1      1.0000 0.00000  0.00000  0.50000  Biso   1.000  Cu
  O1       1.0000 0.12882  0.03392  0.43228  Biso   1.000  O
  O2       1.0000 0.87118  0.96608  0.56772  Biso   1.000  O
  C1       1.0000 0.24710  0.12230  0.34020  Biso   1.000  C
  C2       1.0000 0.75290  0.87770  0.65980  Biso   1.000  C
  F1       1.0000 0.28650  0.04310  0.31519  Biso   1.000  F
  F2       1.0000 0.71350  0.95690  0.68481  Biso   1.000  F
  F3       1.0000 0.30780  0.13140  0.38028  Biso   1.000  F
  F4       1.0000 0.69220  0.86860  0.61972  Biso   1.000  F
  F5       1.0000 0.25646  0.20520  0.28757  Biso   1.000  F
  F6       1.0000 0.74354  0.79480  0.71243  Biso   1.000  F
  C3       1.0000 0.13580  0.10990  0.37983  Biso   1.000  C
  C4       1.0000 0.86420  0.89010  0.62017  Biso   1.000  C
  C5       1.0000 0.05570  0.18030  0.35621  Biso   1.000  C
  C6       1.0000 0.94430  0.81970  0.64379  Biso   1.000  C
  H1       1.0000 0.07220  0.23480  0.31550  Biso   1.000  H
  H2       1.0000 0.92780  0.76520  0.68450  Biso   1.000  H
  C7       1.0000 0.95300  0.17330  0.39010  Biso   1.000  C
  C8       1.0000 0.04700  0.82670  0.60990  Biso   1.000  C
  C9       1.0000 0.87030  0.25790  0.36270  Biso   1.000  C
  C10      1.0000 0.12970  0.74210  0.63730  Biso   1.000  C
  F7       1.0000 0.90430  0.31580  0.30003  Biso   1.000  F
  F8       1.0000 0.09570  0.68420  0.69997  Biso   1.000  F
  F9       1.0000 0.78814  0.21762  0.35698  Biso   1.000  F
  F10      1.0000 0.21186  0.78238  0.64302  Biso   1.000  F
  F11      1.0000 0.83570  0.31720  0.40447  Biso   1.000  F
  F12      1.0000 0.16430  0.68280  0.59553  Biso   1.000  F
  O3       1.0000 0.91537  0.10633  0.44263  Biso   1.000  O
  O4       1.0000 0.08463  0.89367  0.55737  Biso   1.000  O
  Cu2      1.0000 0.50540  0.26351  0.75550  Biso   1.000  Cu
  Cu3      1.0000 0.49460  0.73649  0.24450  Biso   1.000  Cu
  O5       1.0000 0.55787  0.39153  0.76046  Biso   1.000  O
  O6       1.0000 0.44213  0.60847  0.23954  Biso   1.000  O
  C11      1.0000 0.57120  0.56940  0.74390  Biso   1.000  C
  C12      1.0000 0.42880  0.43060  0.25610  Biso   1.000  C
  F13      1.0000 0.58820  0.54450  0.80748  Biso   1.000  F
  F14      1.0000 0.41180  0.45550  0.19252  Biso   1.000  F
  F15      1.0000 0.66350  0.59190  0.70318  Biso   1.000  F
  F16      1.0000 0.33650  0.40810  0.29682  Biso   1.000  F
  F17      1.0000 0.50850  0.65501  0.73606  Biso   1.000  F
  F18      1.0000 0.49150  0.34499  0.26394  Biso   1.000  F
  C13      1.0000 0.53120  0.48130  0.72617  Biso   1.000  C
  C14      1.0000 0.46880  0.51870  0.27383  Biso   1.000  C
  C15      1.0000 0.47330  0.50830  0.67391  Biso   1.000  C
  C16      1.0000 0.52670  0.49170  0.32609  Biso   1.000  C
  H3       1.0000 0.45910  0.57990  0.65220  Biso   1.000  H
  H4       1.0000 0.54090  0.42010  0.34780  Biso   1.000  H
  C17      1.0000 0.43570  0.43440  0.65253  Biso   1.000  C
  C18      1.0000 0.56430  0.56560  0.34747  Biso   1.000  C
  C19      1.0000 0.37380  0.46990  0.59401  Biso   1.000  C
  C20      1.0000 0.62620  0.53010  0.40599  Biso   1.000  C
  F19      1.0000 0.41120  0.41910  0.54506  Biso   1.000  F
  F20      1.0000 0.58880  0.58090  0.45494  Biso   1.000  F
  F21      1.0000 0.27508  0.44970  0.61787  Biso   1.000  F
  F22      1.0000 0.72492  0.55030  0.38213  Biso   1.000  F
  F23      1.0000 0.37361  0.57021  0.56340  Biso   1.000  F
  F24      1.0000 0.62639  0.42979  0.43660  Biso   1.000  F
  O7       1.0000 0.44382  0.33723  0.67608  Biso   1.000  O
  O8       1.0000 0.55618  0.66277  0.32392  Biso   1.000  O
  O9       1.0000 0.56745  0.18751  0.83482  Biso   1.000  O
  O10      1.0000 0.43255  0.81249  0.16518  Biso   1.000  O
  C21      1.0000 0.63620  0.05130  0.91520  Biso   1.000  C
  C22      1.0000 0.36380  0.94870  0.08480  Biso   1.000  C
  F25      1.0000 0.73499  0.06930  0.89335  Biso   1.000  F
  F26      1.0000 0.26501  0.93070  0.10665  Biso   1.000  F
  F27      1.0000 0.63460  0.95090  0.94374  Biso   1.000  F
  F28      1.0000 0.36540  0.04910  0.05626  Biso   1.000  F
  F29      1.0000 0.59850  0.09980  0.96477  Biso   1.000  F
  F30      1.0000 0.40150  0.90020  0.03523  Biso   1.000  F
  C23      1.0000 0.57600  0.08960  0.85592  Biso   1.000  C
  C24      1.0000 0.42400  0.91040  0.14408  Biso   1.000  C
  C25      1.0000 0.54060  0.01800  0.83152  Biso   1.000  C
  C26      1.0000 0.45940  0.98200  0.16848  Biso   1.000  C
  H5       1.0000 0.55650  0.94600  0.85120  Biso   1.000  H
  H6       1.0000 0.44350  0.05400  0.14880  Biso   1.000  H
  C27      1.0000 0.48210  0.04690  0.77885  Biso   1.000  C
  C28      1.0000 0.51790  0.95310  0.22115  Biso   1.000  C
  C29      1.0000 0.44460  0.96090  0.75700  Biso   1.000  C
  C30      1.0000 0.55540  0.03910  0.24300  Biso   1.000  C
  F31      1.0000 0.50578  0.87408  0.76747  Biso   1.000  F
  F32      1.0000 0.49422  0.12592  0.23253  Biso   1.000  F
  F33      1.0000 0.34950  0.94060  0.79204  Biso   1.000  F
  F34      1.0000 0.65050  0.05940  0.20796  Biso   1.000  F
  F35      1.0000 0.43910  0.98890  0.69097  Biso   1.000  F
  F36      1.0000 0.56090  0.01110  0.30903  Biso   1.000  F
  O11      1.0000 0.45386  0.13740  0.74806  Biso   1.000  O
  O12      1.0000 0.54614  0.86260  0.25194  Biso   1.000  O
  Cu4      1.0000 0.00000  0.50000  0.00000  Biso   1.000  Cu
  O13      1.0000 0.87250  0.45555  0.07239  Biso   1.000  O
  O14      1.0000 0.12750  0.54445  0.92761  Biso   1.000  O
  C31      1.0000 0.74950  0.35420  0.15090  Biso   1.000  C
  C32      1.0000 0.25050  0.64580  0.84910  Biso   1.000  C
  F37      1.0000 0.70580  0.43090  0.17980  Biso   1.000  F
  F38      1.0000 0.29420  0.56910  0.82020  Biso   1.000  F
  F39      1.0000 0.69220  0.35540  0.10542  Biso   1.000  F
  F40      1.0000 0.30780  0.64460  0.89458  Biso   1.000  F
  F41      1.0000 0.73607  0.26680  0.19989  Biso   1.000  F
  F42      1.0000 0.26393  0.73320  0.80011  Biso   1.000  F
  C33      1.0000 0.86210  0.36940  0.11565  Biso   1.000  C
  C34      1.0000 0.13790  0.63060  0.88435  Biso   1.000  C
  C35      1.0000 0.93740  0.29060  0.13420  Biso   1.000  C
  C36      1.0000 0.06260  0.70940  0.86580  Biso   1.000  C
  H7       1.0000 0.91610  0.22830  0.16720  Biso   1.000  H
  H8       1.0000 0.08390  0.77170  0.83280  Biso   1.000  H
  C37      1.0000 0.04390  0.29820  0.10658  Biso   1.000  C
  C38      1.0000 0.95610  0.70180  0.89342  Biso   1.000  C
  C39      1.0000 0.11920  0.20390  0.12890  Biso   1.000  C
  C40      1.0000 0.88080  0.79610  0.87110  Biso   1.000  C
  F43      1.0000 0.21510  0.21950  0.12610  Biso   1.000  F
  F44      1.0000 0.78490  0.78050  0.87390  Biso   1.000  F
  F45      1.0000 0.09300  0.15200  0.19350  Biso   1.000  F
  F46      1.0000 0.90700  0.84800  0.80650  Biso   1.000  F
  F47      1.0000 0.12350  0.13330  0.09420  Biso   1.000  F
  F48      1.0000 0.87650  0.86670  0.90580  Biso   1.000  F
  F49      1.0000 0.19040  0.23510  0.15300  Biso   1.000  F
  F50      1.0000 0.80960  0.76490  0.84700  Biso   1.000  F
  F51      1.0000 0.07940  0.12770  0.17400  Biso   1.000  F
  F52      1.0000 0.92060  0.87230  0.82600  Biso   1.000  F
  F53      1.0000 0.17310  0.17780  0.07450  Biso   1.000  F
  F54      1.0000 0.82690  0.82220  0.92550  Biso   1.000  F
  O15      1.0000 0.08700  0.37270  0.06438  Biso   1.000  O
  O16      1.0000 0.91300  0.62730  0.93562  Biso   1.000  O
  O17      1.0000 0.01807  0.14463  0.53909  Biso   1.000  O
  O18      1.0000 0.98193  0.85537  0.46091  Biso   1.000  O
  N1       1.0000 0.03230  0.13800  0.60091  Biso   1.000  N
  N2       1.0000 0.96770  0.86200  0.39909  Biso   1.000  N
  C41      1.0000 0.13900  0.13960  0.61514  Biso   1.000  C
  C42      1.0000 0.86100  0.86040  0.38486  Biso   1.000  C
  C43      1.0000 0.16450  0.25340  0.58750  Biso   1.000  C
  C44      1.0000 0.83550  0.74660  0.41250  Biso   1.000  C
  H9       1.0000 0.17780  0.27190  0.53660  Biso   1.000  H
  H10      1.0000 0.82220  0.72810  0.46340  Biso   1.000  H
  H11      1.0000 0.22710  0.26210  0.60330  Biso   1.000  H
  H12      1.0000 0.77290  0.73790  0.39670  Biso   1.000  H
  H13      1.0000 0.10500  0.29880  0.60510  Biso   1.000  H
  H14      1.0000 0.89500  0.70120  0.39490  Biso   1.000  H
  C45      1.0000 0.21940  0.07110  0.57860  Biso   1.000  C
  C46      1.0000 0.78060  0.92890  0.42140  Biso   1.000  C
  H15      1.0000 0.22790  0.10010  0.52820  Biso   1.000  H
  H16      1.0000 0.77210  0.89990  0.47180  Biso   1.000  H
  H17      1.0000 0.19610  0.00100  0.59090  Biso   1.000  H
  H18      1.0000 0.80390  0.99900  0.40910  Biso   1.000  H
  H19      1.0000 0.28660  0.06750  0.59280  Biso   1.000  H
  H20      1.0000 0.71340  0.93250  0.40720  Biso   1.000  H
  C47      1.0000 0.11610  0.10300  0.69528  Biso   1.000  C
  C48      1.0000 0.88390  0.89700  0.30472  Biso   1.000  C
  C49      1.0000 0.17500  0.15420  0.73100  Biso   1.000  C
  C50      1.0000 0.82500  0.84580  0.26900  Biso   1.000  C
  H21      1.0000 0.15600  0.12660  0.78150  Biso   1.000  H
  H22      1.0000 0.84400  0.87340  0.21850  Biso   1.000  H
  H23      1.0000 0.15630  0.22970  0.71910  Biso   1.000  H
  H24      1.0000 0.84370  0.77030  0.28090  Biso   1.000  H
  H25      1.0000 0.25080  0.13950  0.71560  Biso   1.000  H
  H26      1.0000 0.74920  0.86050  0.28440  Biso   1.000  H
  C51      1.0000 0.12570  0.98560  0.72320  Biso   1.000  C
  C52      1.0000 0.87430  0.01440  0.27680  Biso   1.000  C
  H27      1.0000 0.11080  0.96820  0.77410  Biso   1.000  H
  H28      1.0000 0.88920  0.03180  0.22590  Biso   1.000  H
  H29      1.0000 0.19720  0.95720  0.70650  Biso   1.000  H
  H30      1.0000 0.80280  0.04280  0.29350  Biso   1.000  H
  H31      1.0000 0.07530  0.95560  0.70690  Biso   1.000  H
  H32      1.0000 0.92470  0.04440  0.29310  Biso   1.000  H
  N3       1.0000 0.00050  0.13640  0.71059  Biso   1.000  N
  N4       1.0000 0.99950  0.86360  0.28941  Biso   1.000  N
  O19      1.0000 0.95140  0.13840  0.77158  Biso   1.000  O
  O20      1.0000 0.04860  0.86160  0.22842  Biso   1.000  O
  C53      1.0000 0.95650  0.14730  0.65492  Biso   1.000  C
  C54      1.0000 0.04350  0.85270  0.34508  Biso   1.000  C
  C55      1.0000 0.84640  0.16820  0.65444  Biso   1.000  C
  C56      1.0000 0.15360  0.83180  0.34556  Biso   1.000  C
  C57      1.0000 0.76340  0.18510  0.70806  Biso   1.000  C
  C58      1.0000 0.23660  0.81490  0.29194  Biso   1.000  C
  H33      1.0000 0.77150  0.18260  0.75370  Biso   1.000  H
  H34      1.0000 0.22850  0.81740  0.24630  Biso   1.000  H
  N5       1.0000 0.67270  0.20480  0.68765  Biso   1.000  N
  N6       1.0000 0.32730  0.79520  0.31235  Biso   1.000  N
  N7       1.0000 0.69530  0.20000  0.62001  Biso   1.000  N
  N8       1.0000 0.30470  0.80000  0.37999  Biso   1.000  N
  C59      1.0000 0.61060  0.21950  0.58082  Biso   1.000  C
  C60      1.0000 0.38940  0.78050  0.41918  Biso   1.000  C
  H35      1.0000 0.60460  0.29440  0.55660  Biso   1.000  H
  H36      1.0000 0.39540  0.70560  0.44340  Biso   1.000  H
  H37      1.0000 0.54370  0.20480  0.61420  Biso   1.000  H
  H38      1.0000 0.45630  0.79520  0.38580  Biso   1.000  H
  C61      1.0000 0.62310  0.15890  0.52960  Biso   1.000  C
  C62      1.0000 0.37690  0.84110  0.47040  Biso   1.000  C
  H39      1.0000 0.63180  0.08380  0.55290  Biso   1.000  H
  H40      1.0000 0.36820  0.91620  0.44710  Biso   1.000  H
  H41      1.0000 0.68740  0.17630  0.49410  Biso   1.000  H
  H42      1.0000 0.31260  0.82370  0.50590  Biso   1.000  H
  C63      1.0000 0.52860  0.18030  0.49390  Biso   1.000  C
  C64      1.0000 0.47140  0.81970  0.50610  Biso   1.000  C
  H43      1.0000 0.46730  0.15140  0.52850  Biso   1.000  H
  H44      1.0000 0.53270  0.84860  0.47150  Biso   1.000  H
  H45      1.0000 0.51200  0.25670  0.47920  Biso   1.000  H
  H46      1.0000 0.48800  0.74330  0.52080  Biso   1.000  H
  C65      1.0000 0.54160  0.13780  0.43360  Biso   1.000  C
  C66      1.0000 0.45840  0.86220  0.56640  Biso   1.000  C
  H47      1.0000 0.47700  0.15490  0.41480  Biso   1.000  H
  H48      1.0000 0.52300  0.84510  0.58520  Biso   1.000  H
  H49      1.0000 0.55650  0.06190  0.44750  Biso   1.000  H
  H50      1.0000 0.44350  0.93810  0.55250  Biso   1.000  H
  H51      1.0000 0.60020  0.16790  0.39790  Biso   1.000  H
  H52      1.0000 0.39980  0.83210  0.60210  Biso   1.000  H
  C67      1.0000 0.79780  0.17960  0.59840  Biso   1.000  C
  C68      1.0000 0.20220  0.82040  0.40160  Biso   1.000  C
  H53      1.0000 0.83180  0.17380  0.55300  Biso   1.000  H
  H54      1.0000 0.16820  0.82620  0.44700  Biso   1.000  H
  O21      1.0000 0.98318  0.38139  0.96023  Biso   1.000  O
  O22      1.0000 0.01682  0.61861  0.03977  Biso   1.000  O
  N9       1.0000 0.97510  0.39460  0.89559  Biso   1.000  N
  N10      1.0000 0.02490  0.60540  0.10441  Biso   1.000  N
  C69      1.0000 0.87160  0.39380  0.87608  Biso   1.000  C
  C70      1.0000 0.12840  0.60620  0.12392  Biso   1.000  C
  C71      1.0000 0.78630  0.46000  0.91240  Biso   1.000  C
  C72      1.0000 0.21370  0.54000  0.08760  Biso   1.000  C
  H55      1.0000 0.77270  0.42770  0.96250  Biso   1.000  H
  H56      1.0000 0.22730  0.57230  0.03750  Biso   1.000  H
  H57      1.0000 0.72190  0.46550  0.89440  Biso   1.000  H
  H58      1.0000 0.27810  0.53450  0.10560  Biso   1.000  H
  H59      1.0000 0.80880  0.52970  0.90400  Biso   1.000  H
  H60      1.0000 0.19120  0.47030  0.09600  Biso   1.000  H
  C73      1.0000 0.84740  0.28020  0.89890  Biso   1.000  C
  C74      1.0000 0.15260  0.71980  0.10110  Biso   1.000  C
  H61      1.0000 0.82880  0.25870  0.94980  Biso   1.000  H
  H62      1.0000 0.17120  0.74130  0.05020  Biso   1.000  H
  H63      1.0000 0.90930  0.23640  0.88250  Biso   1.000  H
  H64      1.0000 0.09070  0.76360  0.11750  Biso   1.000  H
  H65      1.0000 0.78830  0.27250  0.87920  Biso   1.000  H
  H66      1.0000 0.21170  0.72750  0.12080  Biso   1.000  H
  C75      1.0000 0.90250  0.43560  0.79584  Biso   1.000  C
  C76      1.0000 0.09750  0.56440  0.20416  Biso   1.000  C
  C77      1.0000 0.85000  0.38790  0.75450  Biso   1.000  C
  C78      1.0000 0.15000  0.61210  0.24550  Biso   1.000  C
  H67      1.0000 0.87350  0.41840  0.70470  Biso   1.000  H
  H68      1.0000 0.12650  0.58160  0.29530  Biso   1.000  H
  H69      1.0000 0.77360  0.40200  0.76710  Biso   1.000  H
  H70      1.0000 0.22640  0.59800  0.23290  Biso   1.000  H
  H71      1.0000 0.86880  0.31250  0.76490  Biso   1.000  H
  H72      1.0000 0.13120  0.68750  0.23510  Biso   1.000  H
  C79      1.0000 0.89190  0.55400  0.77156  Biso   1.000  C
  C80      1.0000 0.10810  0.44600  0.22844  Biso   1.000  C
  H73      1.0000 0.91210  0.57510  0.72080  Biso   1.000  H
  H74      1.0000 0.08790  0.42490  0.27920  Biso   1.000  H
  H75      1.0000 0.93800  0.58240  0.79230  Biso   1.000  H
  H76      1.0000 0.06200  0.41760  0.20770  Biso   1.000  H
  H77      1.0000 0.81890  0.58060  0.78600  Biso   1.000  H
  H78      1.0000 0.18110  0.41940  0.21400  Biso   1.000  H
  O23      1.0000 0.07234  0.40130  0.72565  Biso   1.000  O
  O24      1.0000 0.92766  0.59870  0.27435  Biso   1.000  O
  N11      1.0000 0.01780  0.40220  0.78517  Biso   1.000  N
  N12      1.0000 0.98220  0.59780  0.21483  Biso   1.000  N
  C81      1.0000 0.05570  0.38550  0.84416  Biso   1.000  C
  C82      1.0000 0.94430  0.61450  0.15584  Biso   1.000  C
  C83      1.0000 0.16390  0.35790  0.84988  Biso   1.000  C
  C84      1.0000 0.83610  0.64210  0.15012  Biso   1.000  C
  C85      1.0000 0.25090  0.34410  0.79826  Biso   1.000  C
  C86      1.0000 0.74910  0.65590  0.20174  Biso   1.000  C
  H79      1.0000 0.24820  0.35350  0.75070  Biso   1.000  H
  H80      1.0000 0.75180  0.64650  0.24930  Biso   1.000  H
  N13      1.0000 0.33780  0.31610  0.82392  Biso   1.000  N
  N14      1.0000 0.66220  0.68390  0.17608  Biso   1.000  N
  N15      1.0000 0.30610  0.31240  0.89286  Biso   1.000  N
  N16      1.0000 0.69390  0.68760  0.10714  Biso   1.000  N
  C87      1.0000 0.38130  0.28620  0.93952  Biso   1.000  C
  C88      1.0000 0.61870  0.71380  0.06048  Biso   1.000  C
  H81      1.0000 0.44310  0.24380  0.91990  Biso   1.000  H
  H82      1.0000 0.55690  0.75620  0.08010  Biso   1.000  H
  H83      1.0000 0.34830  0.24310  0.98500  Biso   1.000  H
  H84      1.0000 0.65170  0.75690  0.01500  Biso   1.000  H
  C89      1.0000 0.41710  0.37760  0.95060  Biso   1.000  C
  C90      1.0000 0.58290  0.62240  0.04940  Biso   1.000  C
  H85      1.0000 0.35610  0.41700  0.97370  Biso   1.000  H
  H86      1.0000 0.64390  0.58300  0.02630  Biso   1.000  H
  H87      1.0000 0.44490  0.42350  0.90490  Biso   1.000  H
  H88      1.0000 0.55510  0.57650  0.09510  Biso   1.000  H
  C91      1.0000 0.50330  0.35050  0.99540  Biso   1.000  C
  C92      1.0000 0.49670  0.64950  0.00460  Biso   1.000  C
  H89      1.0000 0.56060  0.30330  0.97620  Biso   1.000  H
  H90      1.0000 0.43940  0.69670  0.02380  Biso   1.000  H
  H91      1.0000 0.53320  0.41510  0.99360  Biso   1.000  H
  H92      1.0000 0.46680  0.58490  0.00640  Biso   1.000  H
  C93      1.0000 0.46050  0.30120  0.06630  Biso   1.000  C
  C94      1.0000 0.53950  0.69880  0.93370  Biso   1.000  C
  H93      1.0000 0.51630  0.28390  0.09350  Biso   1.000  H
  H94      1.0000 0.48370  0.71610  0.90650  Biso   1.000  H
  H95      1.0000 0.43090  0.23740  0.06810  Biso   1.000  H
  H96      1.0000 0.56910  0.76260  0.93190  Biso   1.000  H
  H97      1.0000 0.40520  0.34880  0.08570  Biso   1.000  H
  H98      1.0000 0.59480  0.65120  0.91430  Biso   1.000  H
  C95      1.0000 0.20430  0.33600  0.91005  Biso   1.000  C
  C96      1.0000 0.79570  0.66400  0.08995  Biso   1.000  C
  H99      1.0000 0.16570  0.33780  0.95520  Biso   1.000  H
  H100     1.0000 0.83430  0.66220  0.04480  Biso   1.000  H
  Cl1      1.0000 0.75780  0.93160  0.08450  Biso   1.000  Cl
  Cl2      1.0000 0.24220  0.06840  0.91550  Biso   1.000  Cl
  C97      1.0000 0.89700  0.91420  0.06230  Biso   1.000  C
  C98      1.0000 0.10300  0.08580  0.93770  Biso   1.000  C
  H101     1.0000 0.91660  0.86280  0.03550  Biso   1.000  H
  H102     1.0000 0.08340  0.13720  0.96450  Biso   1.000  H
  H103     1.0000 0.92530  0.88800  0.10410  Biso   1.000  H
  H104     1.0000 0.07470  0.11200  0.89590  Biso   1.000  H
  C99      1.0000 0.86300  0.03500  0.05200  Biso   1.000  C
  C100     1.0000 0.13700  0.96500  0.94800  Biso   1.000  C
  H105     1.0000 0.85780  0.08220  0.08060  Biso   1.000  H
  H106     1.0000 0.14220  0.91780  0.91940  Biso   1.000  H
  H107     1.0000 0.82860  0.06840  0.01330  Biso   1.000  H
  H108     1.0000 0.17140  0.93160  0.98670  Biso   1.000  H
  C101     1.0000 0.05860  0.98810  0.98980  Biso   1.000  C
  C102     1.0000 0.94140  0.01190  0.01020  Biso   1.000  C
  H109     1.0000 0.93450  0.07050  0.03030  Biso   1.000  H
  H110     1.0000 0.06550  0.92950  0.96970  Biso   1.000  H
  H111     1.0000 0.90120  0.02860  0.97390  Biso   1.000  H
  H112     1.0000 0.09880  0.97140  0.02610  Biso   1.000  H
  C103     1.0000 0.95200  0.97100  0.01500  Biso   1.000  C
  C104     1.0000 0.04800  0.02900  0.98500  Biso   1.000  C
  H113     1.0000 0.95760  0.90950  0.99750  Biso   1.000  H
  H114     1.0000 0.04240  0.09050  0.00250  Biso   1.000  H
  H115     1.0000 0.98120  0.95650  0.05610  Biso   1.000  H
  H116     1.0000 0.01880  0.04350  0.94390  Biso   1.000  H
  C105     1.0000 0.19600  0.06100  0.92870  Biso   1.000  C
  C106     1.0000 0.80400  0.93900  0.07130  Biso   1.000  C
  H117     1.0000 0.24730  0.10210  0.89440  Biso   1.000  H
  H118     1.0000 0.75270  0.89790  0.10560  Biso   1.000  H
  H119     1.0000 0.21630  0.04390  0.97340  Biso   1.000  H
  H120     1.0000 0.78370  0.95610  0.02660  Biso   1.000  H
  H121     1.0000 0.19300  0.99760  0.91570  Biso   1.000  H
  H122     1.0000 0.80700  0.00240  0.08430  Biso   1.000  H
  Cl3      1.0000 0.24650  0.53670  0.42550  Biso   1.000  Cl
  Cl4      1.0000 0.75350  0.46330  0.57450  Biso   1.000  Cl
  C107     1.0000 0.15690  0.53900  0.48270  Biso   1.000  C
  C108     1.0000 0.84310  0.46100  0.51730  Biso   1.000  C
  H123     1.0000 0.13740  0.60880  0.48810  Biso   1.000  H
  H124     1.0000 0.86260  0.39120  0.51190  Biso   1.000  H
  H125     1.0000 0.17080  0.49470  0.52640  Biso   1.000  H
  H126     1.0000 0.82920  0.50530  0.47360  Biso   1.000  H
  C109     1.0000 0.04600  0.50290  0.46950  Biso   1.000  C
  C110     1.0000 0.95400  0.49710  0.53050  Biso   1.000  C
  H127     1.0000 0.06500  0.43380  0.46250  Biso   1.000  H
  H128     1.0000 0.93500  0.56620  0.53750  Biso   1.000  H
  H129     1.0000 0.02800  0.54890  0.42730  Biso   1.000  H
  H130     1.0000 0.97200  0.45110  0.57270  Biso   1.000  H
  C111     1.0000 0.95140  0.50010  0.52700  Biso   1.000  C
  C112     1.0000 0.04860  0.49990  0.47300  Biso   1.000  C
  H131     1.0000 0.92630  0.57060  0.52930  Biso   1.000  H
  H132     1.0000 0.07370  0.42940  0.47070  Biso   1.000  H
  H133     1.0000 0.97360  0.46390  0.57000  Biso   1.000  H
  H134     1.0000 0.02640  0.53610  0.43000  Biso   1.000  H
  C113     1.0000 0.87830  0.44900  0.51500  Biso   1.000  C
  C114     1.0000 0.12170  0.55100  0.48500  Biso   1.000  C
  H135     1.0000 0.90220  0.37640  0.51690  Biso   1.000  H
  H136     1.0000 0.09780  0.62360  0.48310  Biso   1.000  H
  H137     1.0000 0.86180  0.48060  0.46970  Biso   1.000  H
  H138     1.0000 0.13820  0.51940  0.53030  Biso   1.000  H
  C115     1.0000 0.75000  0.45100  0.57700  Biso   1.000  C
  C116     1.0000 0.25000  0.54900  0.42300  Biso   1.000  C
  H139     1.0000 0.69650  0.41610  0.56910  Biso   1.000  H
  H140     1.0000 0.30350  0.58390  0.43090  Biso   1.000  H
  H141     1.0000 0.76610  0.41790  0.62230  Biso   1.000  H
  H142     1.0000 0.23390  0.58210  0.37770  Biso   1.000  H
  H143     1.0000 0.72530  0.52300  0.57470  Biso   1.000  H
  H144     1.0000 0.27470  0.47700  0.42530  Biso   1.000  H
