data_image0
_cell_length_a       10.6318
_cell_length_b       13.2653
_cell_length_c       13.309
_cell_angle_alpha    98.58
_cell_angle_beta     108.684
_cell_angle_gamma    98.251

_symmetry_space_group_name_H-M    "P 1"
_symmetry_int_tables_number       1

loop_
  _symmetry_equiv_pos_as_xyz
  'x, y, z'

loop_
  _atom_site_label
  _atom_site_occupancy
  _atom_site_fract_x
  _atom_site_fract_y
  _atom_site_fract_z
  _atom_site_thermal_displace_type
  _atom_site_B_iso_or_equiv
  _atom_site_type_symbol
  Cu1      1.0000 0.00000  0.00000  0.00000  Biso   1.000  Cu
  O1       1.0000 0.11294  0.91777  0.94481  Biso   1.000  O
  O2       1.0000 0.88706  0.08223  0.05519  Biso   1.000  O
  C1       1.0000 0.27070  0.87597  0.86520  Biso   1.000  C
  C2       1.0000 0.72930  0.12403  0.13480  Biso   1.000  C
  F1       1.0000 0.17860  0.83840  0.76110  Biso   1.000  F
  F2       1.0000 0.82140  0.16160  0.23890  Biso   1.000  F
  F3       1.0000 0.38180  0.91140  0.85200  Biso   1.000  F
  F4       1.0000 0.61820  0.08860  0.14800  Biso   1.000  F
  F5       1.0000 0.28110  0.79100  0.91560  Biso   1.000  F
  F6       1.0000 0.71890  0.20900  0.08440  Biso   1.000  F
  F7       1.0000 0.27770  0.79440  0.90100  Biso   1.000  F
  F8       1.0000 0.72230  0.20560  0.09900  Biso   1.000  F
  F9       1.0000 0.19700  0.84900  0.76620  Biso   1.000  F
  F10      1.0000 0.80300  0.15100  0.23380  Biso   1.000  F
  F11      1.0000 0.40070  0.91190  0.87300  Biso   1.000  F
  F12      1.0000 0.59930  0.08810  0.12700  Biso   1.000  F
  C3       1.0000 0.21590  0.95676  0.92509  Biso   1.000  C
  C4       1.0000 0.78410  0.04324  0.07491  Biso   1.000  C
  C5       1.0000 0.28090  0.06071  0.94906  Biso   1.000  C
  C6       1.0000 0.71910  0.93929  0.05094  Biso   1.000  C
  H1       1.0000 0.35970  0.07860  0.93120  Biso   1.000  H
  H2       1.0000 0.64030  0.92140  0.06880  Biso   1.000  H
  C7       1.0000 0.23310  0.13921  0.99855  Biso   1.000  C
  C8       1.0000 0.76690  0.86079  0.00145  Biso   1.000  C
  C9       1.0000 0.31000  0.25175  0.02100  Biso   1.000  C
  C10      1.0000 0.69000  0.74825  0.97900  Biso   1.000  C
  F13      1.0000 0.23380  0.30970  0.97140  Biso   1.000  F
  F14      1.0000 0.76620  0.69030  0.02860  Biso   1.000  F
  F15      1.0000 0.35630  0.29350  0.12750  Biso   1.000  F
  F16      1.0000 0.64370  0.70650  0.87250  Biso   1.000  F
  F17      1.0000 0.40690  0.25920  0.99780  Biso   1.000  F
  F18      1.0000 0.59310  0.74080  0.00220  Biso   1.000  F
  F19      1.0000 0.23260  0.30420  0.95670  Biso   1.000  F
  F20      1.0000 0.76740  0.69580  0.04330  Biso   1.000  F
  F21      1.0000 0.33460  0.30140  0.11790  Biso   1.000  F
  F22      1.0000 0.66540  0.69860  0.88210  Biso   1.000  F
  F23      1.0000 0.43150  0.26140  0.99320  Biso   1.000  F
  F24      1.0000 0.56850  0.73860  0.00680  Biso   1.000  F
  O3       1.0000 0.13052  0.13067  0.02730  Biso   1.000  O
  O4       1.0000 0.86948  0.86933  0.97270  Biso   1.000  O
  Cu2      1.0000 0.50000  0.50000  0.50000  Biso   1.000  Cu
  O5       1.0000 0.65623  0.44136  0.49622  Biso   1.000  O
  O6       1.0000 0.34377  0.55864  0.50378  Biso   1.000  O
  C11      1.0000 0.81040  0.37009  0.43271  Biso   1.000  C
  C12      1.0000 0.18960  0.62991  0.56729  Biso   1.000  C
  F25      1.0000 0.86659  0.36930  0.35649  Biso   1.000  F
  F26      1.0000 0.13341  0.63070  0.64351  Biso   1.000  F
  F27      1.0000 0.90700  0.40200  0.53110  Biso   1.000  F
  F28      1.0000 0.09300  0.59800  0.46890  Biso   1.000  F
  F29      1.0000 0.76505  0.27160  0.43358  Biso   1.000  F
  F30      1.0000 0.23495  0.72840  0.56642  Biso   1.000  F
  F31      1.0000 0.91200  0.42100  0.52390  Biso   1.000  F
  F32      1.0000 0.08800  0.57900  0.47610  Biso   1.000  F
  C13      1.0000 0.69550  0.43032  0.41593  Biso   1.000  C
  C14      1.0000 0.30450  0.56968  0.58407  Biso   1.000  C
  C15      1.0000 0.64600  0.46328  0.31893  Biso   1.000  C
  C16      1.0000 0.35400  0.53672  0.68107  Biso   1.000  C
  H3       1.0000 0.68210  0.44590  0.26340  Biso   1.000  H
  H4       1.0000 0.31790  0.55410  0.73660  Biso   1.000  H
  C17      1.0000 0.54430  0.52157  0.30149  Biso   1.000  C
  C18      1.0000 0.45570  0.47843  0.69851  Biso   1.000  C
  C19      1.0000 0.49880  0.55780  0.19329  Biso   1.000  C
  C20      1.0000 0.50120  0.44220  0.80671  Biso   1.000  C
  F33      1.0000 0.51650  0.50020  0.11400  Biso   1.000  F
  F34      1.0000 0.48350  0.49980  0.88600  Biso   1.000  F
  F35      1.0000 0.55600  0.64410  0.19500  Biso   1.000  F
  F36      1.0000 0.44400  0.35590  0.80500  Biso   1.000  F
  F37      1.0000 0.37100  0.56970  0.16480  Biso   1.000  F
  F38      1.0000 0.62900  0.43030  0.83520  Biso   1.000  F
  F39      1.0000 0.53800  0.50090  0.11710  Biso   1.000  F
  F40      1.0000 0.46200  0.49910  0.88290  Biso   1.000  F
  F41      1.0000 0.56470  0.66710  0.21550  Biso   1.000  F
  F42      1.0000 0.43530  0.33290  0.78450  Biso   1.000  F
  F43      1.0000 0.36300  0.53870  0.15000  Biso   1.000  F
  F44      1.0000 0.63700  0.46130  0.85000  Biso   1.000  F
  O7       1.0000 0.48483  0.55157  0.36454  Biso   1.000  O
  O8       1.0000 0.51517  0.44843  0.63546  Biso   1.000  O
  O9       1.0000 0.07992  0.98422  0.18430  Biso   1.000  O
  O10      1.0000 0.92008  0.01578  0.81570  Biso   1.000  O
  N1       1.0000 0.20251  0.97273  0.23409  Biso   1.000  N
  N2       1.0000 0.79749  0.02727  0.76591  Biso   1.000  N
  C21      1.0000 0.23390  0.86792  0.25076  Biso   1.000  C
  C22      1.0000 0.76610  0.13208  0.74924  Biso   1.000  C
  C23      1.0000 0.18610  0.84333  0.34320  Biso   1.000  C
  C24      1.0000 0.81390  0.15667  0.65680  Biso   1.000  C
  H5       1.0000 0.08680  0.82760  0.31750  Biso   1.000  H
  H6       1.0000 0.91320  0.17240  0.68250  Biso   1.000  H
  H7       1.0000 0.22080  0.90360  0.40390  Biso   1.000  H
  H8       1.0000 0.77920  0.09640  0.59610  Biso   1.000  H
  H9       1.0000 0.22030  0.78300  0.36730  Biso   1.000  H
  H10      1.0000 0.77970  0.21700  0.63270  Biso   1.000  H
  C25      1.0000 0.15990  0.78446  0.14795  Biso   1.000  C
  C26      1.0000 0.84010  0.21554  0.85205  Biso   1.000  C
  H11      1.0000 0.06200  0.77340  0.13340  Biso   1.000  H
  H12      1.0000 0.93800  0.22660  0.86660  Biso   1.000  H
  H13      1.0000 0.19070  0.71920  0.15770  Biso   1.000  H
  H14      1.0000 0.80930  0.28080  0.84230  Biso   1.000  H
  H15      1.0000 0.17930  0.80710  0.08670  Biso   1.000  H
  H16      1.0000 0.82070  0.19290  0.91330  Biso   1.000  H
  C27      1.0000 0.39090  0.89375  0.28385  Biso   1.000  C
  C28      1.0000 0.60910  0.10625  0.71615  Biso   1.000  C
  C29      1.0000 0.44100  0.88302  0.18770  Biso   1.000  C
  C30      1.0000 0.55900  0.11698  0.81230  Biso   1.000  C
  H17      1.0000 0.54040  0.90040  0.21450  Biso   1.000  H
  H18      1.0000 0.45960  0.09960  0.78550  Biso   1.000  H
  H19      1.0000 0.40510  0.93050  0.14120  Biso   1.000  H
  H20      1.0000 0.59490  0.06950  0.85880  Biso   1.000  H
  H21      1.0000 0.40950  0.81120  0.14590  Biso   1.000  H
  H22      1.0000 0.59050  0.18880  0.85410  Biso   1.000  H
  C31      1.0000 0.46760  0.83894  0.36953  Biso   1.000  C
  C32      1.0000 0.53240  0.16106  0.63047  Biso   1.000  C
  H23      1.0000 0.56530  0.86010  0.38520  Biso   1.000  H
  H24      1.0000 0.43470  0.13990  0.61480  Biso   1.000  H
  H25      1.0000 0.43940  0.76340  0.34270  Biso   1.000  H
  H26      1.0000 0.56060  0.23660  0.65730  Biso   1.000  H
  H27      1.0000 0.44750  0.85810  0.43590  Biso   1.000  H
  H28      1.0000 0.55250  0.14190  0.56410  Biso   1.000  H
  N3       1.0000 0.41987  0.00926  0.33003  Biso   1.000  N
  N4       1.0000 0.58013  0.99074  0.66997  Biso   1.000  N
  O11      1.0000 0.54009  0.06117  0.38544  Biso   1.000  O
  O12      1.0000 0.45991  0.93883  0.61456  Biso   1.000  O
  C33      1.0000 0.30810  0.05095  0.29155  Biso   1.000  C
  C34      1.0000 0.69190  0.94905  0.70845  Biso   1.000  C
  C35      1.0000 0.30437  0.15948  0.31189  Biso   1.000  C
  C36      1.0000 0.69563  0.84052  0.68811  Biso   1.000  C
  C37      1.0000 0.41020  0.24399  0.37862  Biso   1.000  C
  C38      1.0000 0.58980  0.75601  0.62138  Biso   1.000  C
  H29      1.0000 0.49950  0.23710  0.41760  Biso   1.000  H
  H30      1.0000 0.50050  0.76290  0.58240  Biso   1.000  H
  N5       1.0000 0.36908  0.33398  0.37993  Biso   1.000  N
  N6       1.0000 0.63092  0.66602  0.62007  Biso   1.000  N
  N7       1.0000 0.23620  0.30896  0.31244  Biso   1.000  N
  N8       1.0000 0.76380  0.69104  0.68756  Biso   1.000  N
  C39      1.0000 0.16030  0.39304  0.29656  Biso   1.000  C
  C40      1.0000 0.83970  0.60696  0.70344  Biso   1.000  C
  H31      1.0000 0.22490  0.45880  0.30780  Biso   1.000  H
  H32      1.0000 0.77510  0.54120  0.69220  Biso   1.000  H
  H33      1.0000 0.11760  0.40180  0.35250  Biso   1.000  H
  H34      1.0000 0.88240  0.59820  0.64750  Biso   1.000  H
  C41      1.0000 0.05180  0.37512  0.18652  Biso   1.000  C
  C42      1.0000 0.94820  0.62488  0.81348  Biso   1.000  C
  H35      1.0000 0.98120  0.31350  0.17720  Biso   1.000  H
  H36      1.0000 0.01880  0.68650  0.82280  Biso   1.000  H
  H37      1.0000 0.09190  0.36110  0.12950  Biso   1.000  H
  H38      1.0000 0.90810  0.63890  0.87050  Biso   1.000  H
  C43      1.0000 0.98730  0.47095  0.17460  Biso   1.000  C
  C44      1.0000 0.01270  0.52905  0.82540  Biso   1.000  C
  H39      1.0000 0.95660  0.48890  0.23660  Biso   1.000  H
  H40      1.0000 0.04340  0.51110  0.76340  Biso   1.000  H
  H41      1.0000 0.05700  0.53060  0.17770  Biso   1.000  H
  H42      1.0000 0.94300  0.46940  0.82230  Biso   1.000  H
  C45      1.0000 0.86820  0.45490  0.07020  Biso   1.000  C
  C46      1.0000 0.13180  0.54510  0.92980  Biso   1.000  C
  H43      1.0000 0.83150  0.51860  0.06730  Biso   1.000  H
  H44      1.0000 0.16850  0.48140  0.93270  Biso   1.000  H
  H45      1.0000 0.79770  0.39700  0.06730  Biso   1.000  H
  H46      1.0000 0.20230  0.60300  0.93270  Biso   1.000  H
  H47      1.0000 0.89820  0.43880  0.00840  Biso   1.000  H
  H48      1.0000 0.10180  0.56120  0.99160  Biso   1.000  H
  C47      1.0000 0.19400  0.20680  0.27191  Biso   1.000  C
  C48      1.0000 0.80600  0.79320  0.72809  Biso   1.000  C
  H49      1.0000 0.10540  0.17240  0.22460  Biso   1.000  H
  H50      1.0000 0.89460  0.82760  0.77540  Biso   1.000  H
  I1       1.0000 0.15597  0.24919  0.55412  Biso   1.000  I
  I2       1.0000 0.84403  0.75081  0.44588  Biso   1.000  I
  C49      1.0000 0.00920  0.11190  0.46540  Biso   1.000  C
  C50      1.0000 0.99080  0.88810  0.53460  Biso   1.000  C
  H51      1.0000 0.01440  0.09480  0.39440  Biso   1.000  H
  H52      1.0000 0.98560  0.90520  0.60560  Biso   1.000  H
  H53      1.0000 0.92030  0.12510  0.45700  Biso   1.000  H
  H54      1.0000 0.07970  0.87490  0.54300  Biso   1.000  H
  C51      1.0000 0.02760  0.01860  0.51910  Biso   1.000  C
  C52      1.0000 0.97240  0.98140  0.48090  Biso   1.000  C
  H55      1.0000 0.02960  0.03750  0.59220  Biso   1.000  H
  H56      1.0000 0.97040  0.96250  0.40780  Biso   1.000  H
  H57      1.0000 0.11340  0.00160  0.52220  Biso   1.000  H
  H58      1.0000 0.88660  0.99840  0.47780  Biso   1.000  H
  C53      1.0000 0.08450  0.07790  0.54080  Biso   1.000  C
  C54      1.0000 0.91550  0.92210  0.45920  Biso   1.000  C
  H59      1.0000 0.90960  0.90660  0.38480  Biso   1.000  H
  H60      1.0000 0.09040  0.09340  0.61520  Biso   1.000  H
  H61      1.0000 0.16930  0.06180  0.53970  Biso   1.000  H
  H62      1.0000 0.83070  0.93820  0.46030  Biso   1.000  H
  C55      1.0000 0.06430  0.17460  0.49470  Biso   1.000  C
  C56      1.0000 0.93570  0.82540  0.50530  Biso   1.000  C
  H63      1.0000 0.93100  0.83610  0.57680  Biso   1.000  H
  H64      1.0000 0.06900  0.16390  0.42320  Biso   1.000  H
  H65      1.0000 0.02270  0.81040  0.50950  Biso   1.000  H
  H66      1.0000 0.97730  0.18960  0.49050  Biso   1.000  H
  C57      1.0000 0.17480  0.26550  0.56580  Biso   1.000  C
  C58      1.0000 0.82520  0.73450  0.43420  Biso   1.000  C
  H67      1.0000 0.83440  0.67180  0.46120  Biso   1.000  H
  H68      1.0000 0.16560  0.32820  0.53880  Biso   1.000  H
  H69      1.0000 0.73890  0.75060  0.43070  Biso   1.000  H
  H70      1.0000 0.26110  0.24940  0.56930  Biso   1.000  H
  H71      1.0000 0.83100  0.72480  0.36300  Biso   1.000  H
  H72      1.0000 0.16900  0.27520  0.63700  Biso   1.000  H
