data_image0
_cell_length_a       10.592
_cell_length_b       13.245
_cell_length_c       13.516
_cell_angle_alpha    98.845
_cell_angle_beta     111.732
_cell_angle_gamma    96.843

_symmetry_space_group_name_H-M    "P 1"
_symmetry_int_tables_number       1

loop_
  _symmetry_equiv_pos_as_xyz
  'x, y, z'

loop_
  _atom_site_label
  _atom_site_occupancy
  _atom_site_fract_x
  _atom_site_fract_y
  _atom_site_fract_z
  _atom_site_thermal_displace_type
  _atom_site_B_iso_or_equiv
  _atom_site_type_symbol
  Cu1      1.0000 0.00000  0.00000  0.00000  Biso   1.000  Cu
  O1       1.0000 0.13300  0.12829  0.02807  Biso   1.000  O
  O2       1.0000 0.86700  0.87171  0.97193  Biso   1.000  O
  C1       1.0000 0.30700  0.24790  0.02000  Biso   1.000  C
  C2       1.0000 0.69300  0.75210  0.98000  Biso   1.000  C
  F1       1.0000 0.36400  0.29030  0.13320  Biso   1.000  F
  F2       1.0000 0.63600  0.70970  0.86680  Biso   1.000  F
  F3       1.0000 0.21900  0.30550  0.96560  Biso   1.000  F
  F4       1.0000 0.78100  0.69450  0.03440  Biso   1.000  F
  F5       1.0000 0.41250  0.25400  0.99320  Biso   1.000  F
  F6       1.0000 0.58750  0.74600  0.00680  Biso   1.000  F
  F7       1.0000 0.35740  0.28500  0.11140  Biso   1.000  F
  F8       1.0000 0.64260  0.71500  0.88860  Biso   1.000  F
  F9       1.0000 0.22500  0.30830  0.98570  Biso   1.000  F
  F10      1.0000 0.77500  0.69170  0.01430  Biso   1.000  F
  F11      1.0000 0.39460  0.26070  0.97280  Biso   1.000  F
  F12      1.0000 0.60540  0.73930  0.02720  Biso   1.000  F
  C3       1.0000 0.22960  0.13570  0.99640  Biso   1.000  C
  C4       1.0000 0.77040  0.86430  0.00360  Biso   1.000  C
  C5       1.0000 0.27310  0.05780  0.94420  Biso   1.000  C
  C6       1.0000 0.72690  0.94220  0.05580  Biso   1.000  C
  H1       1.0000 0.34750  0.07530  0.92300  Biso   1.000  H
  H2       1.0000 0.65250  0.92470  0.07700  Biso   1.000  H
  C7       1.0000 0.21020  0.95460  0.92250  Biso   1.000  C
  C8       1.0000 0.78980  0.04540  0.07750  Biso   1.000  C
  C9       1.0000 0.26270  0.87330  0.86240  Biso   1.000  C
  C10      1.0000 0.73730  0.12670  0.13760  Biso   1.000  C
  F13      1.0000 0.26140  0.78900  0.89390  Biso   1.000  F
  F14      1.0000 0.73860  0.21100  0.10610  Biso   1.000  F
  F15      1.0000 0.39400  0.90450  0.88190  Biso   1.000  F
  F16      1.0000 0.60600  0.09550  0.11810  Biso   1.000  F
  F17      1.0000 0.19880  0.85610  0.76360  Biso   1.000  F
  F18      1.0000 0.80120  0.14390  0.23640  Biso   1.000  F
  F19      1.0000 0.30210  0.80190  0.92110  Biso   1.000  F
  F20      1.0000 0.69790  0.19810  0.07890  Biso   1.000  F
  F21      1.0000 0.35710  0.90750  0.83170  Biso   1.000  F
  F22      1.0000 0.64290  0.09250  0.16830  Biso   1.000  F
  F23      1.0000 0.15720  0.82060  0.77120  Biso   1.000  F
  F24      1.0000 0.84280  0.17940  0.22880  Biso   1.000  F
  O3       1.0000 0.11332  0.91643  0.94471  Biso   1.000  O
  O4       1.0000 0.88668  0.08357  0.05529  Biso   1.000  O
  Cu2      1.0000 0.50000  0.50000  0.50000  Biso   1.000  Cu
  O5       1.0000 0.48640  0.55048  0.36665  Biso   1.000  O
  O6       1.0000 0.51360  0.44952  0.63335  Biso   1.000  O
  C11      1.0000 0.51350  0.56180  0.20400  Biso   1.000  C
  C12      1.0000 0.48650  0.43820  0.79600  Biso   1.000  C
  F25      1.0000 0.37470  0.54610  0.15800  Biso   1.000  F
  F26      1.0000 0.62530  0.45390  0.84200  Biso   1.000  F
  F27      1.0000 0.55850  0.65320  0.21530  Biso   1.000  F
  F28      1.0000 0.44150  0.34680  0.78470  Biso   1.000  F
  F29      1.0000 0.53450  0.51300  0.13440  Biso   1.000  F
  F30      1.0000 0.46550  0.48700  0.86560  Biso   1.000  F
  F31      1.0000 0.60610  0.65180  0.22180  Biso   1.000  F
  F32      1.0000 0.39390  0.34820  0.77820  Biso   1.000  F
  F33      1.0000 0.39370  0.59150  0.17090  Biso   1.000  F
  F34      1.0000 0.60630  0.40850  0.82910  Biso   1.000  F
  F35      1.0000 0.53070  0.49240  0.12250  Biso   1.000  F
  F36      1.0000 0.46930  0.50760  0.87750  Biso   1.000  F
  C13      1.0000 0.55250  0.52330  0.31050  Biso   1.000  C
  C14      1.0000 0.44750  0.47670  0.68950  Biso   1.000  C
  C15      1.0000 0.65640  0.46580  0.33400  Biso   1.000  C
  C16      1.0000 0.34360  0.53420  0.66600  Biso   1.000  C
  H3       1.0000 0.69770  0.45070  0.28330  Biso   1.000  H
  H4       1.0000 0.30230  0.54930  0.71670  Biso   1.000  H
  C17      1.0000 0.70210  0.42950  0.42980  Biso   1.000  C
  C18      1.0000 0.29790  0.57050  0.57020  Biso   1.000  C
  C19      1.0000 0.81940  0.36880  0.45150  Biso   1.000  C
  C20      1.0000 0.18060  0.63120  0.54850  Biso   1.000  C
  F37      1.0000 0.87300  0.36090  0.37300  Biso   1.000  F
  F38      1.0000 0.12700  0.63910  0.62700  Biso   1.000  F
  F39      1.0000 0.78200  0.27320  0.46200  Biso   1.000  F
  F40      1.0000 0.21800  0.72680  0.53800  Biso   1.000  F
  F41      1.0000 0.92700  0.41870  0.54300  Biso   1.000  F
  F42      1.0000 0.07300  0.58130  0.45700  Biso   1.000  F
  F43      1.0000 0.90700  0.39440  0.55130  Biso   1.000  F
  F44      1.0000 0.09300  0.60560  0.44870  Biso   1.000  F
  F45      1.0000 0.76800  0.27090  0.43500  Biso   1.000  F
  F46      1.0000 0.23200  0.72910  0.56500  Biso   1.000  F
  F47      1.0000 0.88330  0.37610  0.38840  Biso   1.000  F
  F48      1.0000 0.11670  0.62390  0.61160  Biso   1.000  F
  O7       1.0000 0.65785  0.43851  0.50398  Biso   1.000  O
  O8       1.0000 0.34215  0.56149  0.49602  Biso   1.000  O
  O9       1.0000 0.08721  0.98153  0.17766  Biso   1.000  O
  O10      1.0000 0.91279  0.01847  0.82234  Biso   1.000  O
  N1       1.0000 0.21400  0.97232  0.23042  Biso   1.000  N
  N2       1.0000 0.78600  0.02768  0.76958  Biso   1.000  N
  C21      1.0000 0.25180  0.86910  0.24750  Biso   1.000  C
  C22      1.0000 0.74820  0.13090  0.75250  Biso   1.000  C
  C23      1.0000 0.20360  0.84200  0.33540  Biso   1.000  C
  C24      1.0000 0.79640  0.15800  0.66460  Biso   1.000  C
  H5       1.0000 0.10230  0.82440  0.30510  Biso   1.000  H
  H6       1.0000 0.89770  0.17560  0.69490  Biso   1.000  H
  H7       1.0000 0.23610  0.90180  0.39700  Biso   1.000  H
  H8       1.0000 0.76390  0.09820  0.60300  Biso   1.000  H
  H9       1.0000 0.24170  0.78220  0.36040  Biso   1.000  H
  H10      1.0000 0.75830  0.21780  0.63960  Biso   1.000  H
  C25      1.0000 0.18020  0.78680  0.14310  Biso   1.000  C
  C26      1.0000 0.81980  0.21320  0.85690  Biso   1.000  C
  H11      1.0000 0.08020  0.77350  0.12430  Biso   1.000  H
  H12      1.0000 0.91980  0.22650  0.87570  Biso   1.000  H
  H13      1.0000 0.21550  0.72240  0.15340  Biso   1.000  H
  H14      1.0000 0.78450  0.27760  0.84660  Biso   1.000  H
  H15      1.0000 0.19870  0.81130  0.08400  Biso   1.000  H
  H16      1.0000 0.80130  0.18870  0.91600  Biso   1.000  H
  C27      1.0000 0.41080  0.89870  0.28770  Biso   1.000  C
  C28      1.0000 0.58920  0.10130  0.71230  Biso   1.000  C
  C29      1.0000 0.49190  0.84580  0.37620  Biso   1.000  C
  C30      1.0000 0.50810  0.15420  0.62380  Biso   1.000  C
  H17      1.0000 0.59120  0.86860  0.39620  Biso   1.000  H
  H18      1.0000 0.40880  0.13140  0.60380  Biso   1.000  H
  H19      1.0000 0.46650  0.77010  0.34910  Biso   1.000  H
  H20      1.0000 0.53350  0.22990  0.65090  Biso   1.000  H
  H21      1.0000 0.47020  0.86450  0.44030  Biso   1.000  H
  H22      1.0000 0.52980  0.13550  0.55970  Biso   1.000  H
  C31      1.0000 0.46270  0.88960  0.19580  Biso   1.000  C
  C32      1.0000 0.53730  0.11040  0.80420  Biso   1.000  C
  H23      1.0000 0.56390  0.90910  0.22700  Biso   1.000  H
  H24      1.0000 0.43610  0.09090  0.77300  Biso   1.000  H
  H25      1.0000 0.42310  0.93620  0.14780  Biso   1.000  H
  H26      1.0000 0.57690  0.06380  0.85220  Biso   1.000  H
  H27      1.0000 0.43430  0.81770  0.15380  Biso   1.000  H
  H28      1.0000 0.56570  0.18230  0.84620  Biso   1.000  H
  N3       1.0000 0.43470  0.01266  0.33360  Biso   1.000  N
  N4       1.0000 0.56530  0.98734  0.66640  Biso   1.000  N
  O11      1.0000 0.55370  0.06640  0.39303  Biso   1.000  O
  O12      1.0000 0.44630  0.93360  0.60697  Biso   1.000  O
  C33      1.0000 0.31780  0.05190  0.29120  Biso   1.000  C
  C34      1.0000 0.68220  0.94810  0.70880  Biso   1.000  C
  C35      1.0000 0.30840  0.15918  0.31070  Biso   1.000  C
  C36      1.0000 0.69160  0.84082  0.68930  Biso   1.000  C
  C37      1.0000 0.41170  0.24480  0.37790  Biso   1.000  C
  C38      1.0000 0.58830  0.75520  0.62210  Biso   1.000  C
  H29      1.0000 0.50510  0.24060  0.41830  Biso   1.000  H
  H30      1.0000 0.49490  0.75940  0.58170  Biso   1.000  H
  N5       1.0000 0.36300  0.33252  0.37795  Biso   1.000  N
  N6       1.0000 0.63700  0.66748  0.62205  Biso   1.000  N
  N7       1.0000 0.22710  0.30345  0.30987  Biso   1.000  N
  N8       1.0000 0.77290  0.69655  0.69013  Biso   1.000  N
  C39      1.0000 0.13800  0.38070  0.28790  Biso   1.000  C
  C40      1.0000 0.86200  0.61930  0.71210  Biso   1.000  C
  H31      1.0000 0.06050  0.36210  0.31000  Biso   1.000  H
  H32      1.0000 0.93950  0.63790  0.69000  Biso   1.000  H
  H33      1.0000 0.19210  0.44940  0.33390  Biso   1.000  H
  H34      1.0000 0.80790  0.55060  0.66610  Biso   1.000  H
  C41      1.0000 0.08240  0.39000  0.17770  Biso   1.000  C
  C42      1.0000 0.91760  0.61000  0.82230  Biso   1.000  C
  H35      1.0000 0.01360  0.32650  0.13240  Biso   1.000  H
  H36      1.0000 0.98640  0.67350  0.86760  Biso   1.000  H
  H37      1.0000 0.15730  0.39730  0.15060  Biso   1.000  H
  H38      1.0000 0.84270  0.60270  0.84940  Biso   1.000  H
  C43      1.0000 0.01020  0.48950  0.16750  Biso   1.000  C
  C44      1.0000 0.98980  0.51050  0.83250  Biso   1.000  C
  H39      1.0000 0.03600  0.53340  0.24090  Biso   1.000  H
  H40      1.0000 0.96400  0.46660  0.75910  Biso   1.000  H
  H41      1.0000 0.04200  0.53170  0.12380  Biso   1.000  H
  H42      1.0000 0.95800  0.46830  0.87620  Biso   1.000  H
  C45      1.0000 0.88530  0.46080  0.12400  Biso   1.000  C
  C46      1.0000 0.11470  0.53920  0.87600  Biso   1.000  C
  H43      1.0000 0.84080  0.52160  0.11770  Biso   1.000  H
  H44      1.0000 0.15920  0.47840  0.88230  Biso   1.000  H
  H45      1.0000 0.85430  0.41960  0.16790  Biso   1.000  H
  H46      1.0000 0.14570  0.58040  0.83210  Biso   1.000  H
  H47      1.0000 0.86020  0.41800  0.05110  Biso   1.000  H
  H48      1.0000 0.13980  0.58200  0.94890  Biso   1.000  H
  C47      1.0000 0.19120  0.20170  0.26880  Biso   1.000  C
  C48      1.0000 0.80880  0.79830  0.73120  Biso   1.000  C
  H49      1.0000 0.10170  0.16470  0.21980  Biso   1.000  H
  H50      1.0000 0.89830  0.83530  0.78020  Biso   1.000  H
  Cl1      1.0000 0.84710  0.75700  0.47520  Biso   1.000  Cl
  Cl2      1.0000 0.15290  0.24300  0.52480  Biso   1.000  Cl
  C49      1.0000 0.91100  0.89200  0.52900  Biso   1.000  C
  C50      1.0000 0.08900  0.10800  0.47100  Biso   1.000  C
  H51      1.0000 0.98660  0.89980  0.59750  Biso   1.000  H
  H52      1.0000 0.01340  0.10020  0.40250  Biso   1.000  H
  H53      1.0000 0.84090  0.92480  0.54130  Biso   1.000  H
  H54      1.0000 0.15910  0.07520  0.45870  Biso   1.000  H
  C51      1.0000 0.93700  0.95300  0.44800  Biso   1.000  C
  C52      1.0000 0.06300  0.04700  0.55200  Biso   1.000  C
  H55      1.0000 0.86000  0.96300  0.38760  Biso   1.000  H
  H56      1.0000 0.14000  0.03700  0.61240  Biso   1.000  H
  H57      1.0000 0.98890  0.91040  0.41940  Biso   1.000  H
  H58      1.0000 0.01110  0.08960  0.58060  Biso   1.000  H
  C53      1.0000 0.94920  0.95470  0.47580  Biso   1.000  C
  C54      1.0000 0.05080  0.04530  0.52420  Biso   1.000  C
  H59      1.0000 0.85420  0.96080  0.45660  Biso   1.000  H
  H60      1.0000 0.14580  0.03920  0.54340  Biso   1.000  H
  H61      1.0000 0.03610  0.06100  0.59040  Biso   1.000  H
  H62      1.0000 0.96390  0.93900  0.40960  Biso   1.000  H
  C55      1.0000 0.96560  0.86300  0.52480  Biso   1.000  C
  C56      1.0000 0.03440  0.13700  0.47520  Biso   1.000  C
  H63      1.0000 0.93990  0.14560  0.45050  Biso   1.000  H
  H64      1.0000 0.06010  0.85440  0.54950  Biso   1.000  H
  H65      1.0000 0.93370  0.86610  0.58300  Biso   1.000  H
  H66      1.0000 0.06630  0.13390  0.41700  Biso   1.000  H
  C57      1.0000 0.87100  0.80000  0.40600  Biso   1.000  C
  C58      1.0000 0.12900  0.20000  0.59400  Biso   1.000  C
  H67      1.0000 0.13150  0.26860  0.57890  Biso   1.000  H
  H68      1.0000 0.86850  0.73140  0.42110  Biso   1.000  H
  H69      1.0000 0.90470  0.80310  0.34930  Biso   1.000  H
  H70      1.0000 0.09530  0.19690  0.65070  Biso   1.000  H
  H71      1.0000 0.22080  0.18530  0.61750  Biso   1.000  H
  H72      1.0000 0.77920  0.81470  0.38250  Biso   1.000  H
