data_image0
_cell_length_a       10.437
_cell_length_b       12.999
_cell_length_c       13.628
_cell_angle_alpha    97.653
_cell_angle_beta     109.454
_cell_angle_gamma    99.908

_symmetry_space_group_name_H-M    "P 1"
_symmetry_int_tables_number       1

loop_
  _symmetry_equiv_pos_as_xyz
  'x, y, z'

loop_
  _atom_site_label
  _atom_site_occupancy
  _atom_site_fract_x
  _atom_site_fract_y
  _atom_site_fract_z
  _atom_site_thermal_displace_type
  _atom_site_B_iso_or_equiv
  _atom_site_type_symbol
  Cu1      1.0000 0.50000  0.50000  0.00000  Biso   1.000  Cu
  O1       1.0000 0.36230  0.59629  0.05807  Biso   1.000  O
  O2       1.0000 0.63770  0.40371  0.94193  Biso   1.000  O
  C1       1.0000 0.22470  0.62380  0.16000  Biso   1.000  C
  C2       1.0000 0.77530  0.37620  0.84000  Biso   1.000  C
  F1       1.0000 0.32520  0.65720  0.25110  Biso   1.000  F
  F2       1.0000 0.67480  0.34280  0.74890  Biso   1.000  F
  F3       1.0000 0.20520  0.71230  0.12480  Biso   1.000  F
  F4       1.0000 0.79480  0.28770  0.87520  Biso   1.000  F
  F5       1.0000 0.10720  0.58390  0.16920  Biso   1.000  F
  F6       1.0000 0.89280  0.41610  0.83080  Biso   1.000  F
  C3       1.0000 0.26950  0.55040  0.08530  Biso   1.000  C
  C4       1.0000 0.73050  0.44960  0.91470  Biso   1.000  C
  C5       1.0000 0.20340  0.44050  0.05820  Biso   1.000  C
  C6       1.0000 0.79660  0.55950  0.94180  Biso   1.000  C
  H1       1.0000 0.12970  0.41710  0.08210  Biso   1.000  H
  H2       1.0000 0.87030  0.58290  0.91790  Biso   1.000  H
  C7       1.0000 0.24190  0.36600  0.99830  Biso   1.000  C
  C8       1.0000 0.75810  0.63400  0.00170  Biso   1.000  C
  C9       1.0000 0.15960  0.24910  0.96940  Biso   1.000  C
  C10      1.0000 0.84040  0.75090  0.03060  Biso   1.000  C
  F7       1.0000 0.24290  0.18670  0.00710  Biso   1.000  F
  F8       1.0000 0.75710  0.81330  0.99290  Biso   1.000  F
  F9       1.0000 0.09810  0.21600  0.86550  Biso   1.000  F
  F10      1.0000 0.90190  0.78400  0.13450  Biso   1.000  F
  F11      1.0000 0.05920  0.23248  0.00960  Biso   1.000  F
  F12      1.0000 0.94080  0.76752  0.99040  Biso   1.000  F
  O3       1.0000 0.33860  0.37856  0.96111  Biso   1.000  O
  O4       1.0000 0.66140  0.62144  0.03889  Biso   1.000  O
  Cu2      1.0000 0.00000  0.00000  0.50000  Biso   1.000  Cu
  O5       1.0000 0.00270  0.05520  0.37243  Biso   1.000  O
  O6       1.0000 0.99730  0.94480  0.62757  Biso   1.000  O
  C11      1.0000 0.04100  0.07000  0.21390  Biso   1.000  C
  C12      1.0000 0.95900  0.93000  0.78610  Biso   1.000  C
  F13      1.0000 0.10860  0.17220  0.23500  Biso   1.000  F
  F14      1.0000 0.89140  0.82780  0.76500  Biso   1.000  F
  F15      1.0000 0.90600  0.06770  0.16800  Biso   1.000  F
  F16      1.0000 0.09400  0.93230  0.83200  Biso   1.000  F
  F17      1.0000 0.07740  0.01550  0.14150  Biso   1.000  F
  F18      1.0000 0.92260  0.98450  0.85850  Biso   1.000  F
  C13      1.0000 0.07210  0.02740  0.31740  Biso   1.000  C
  C14      1.0000 0.92790  0.97260  0.68260  Biso   1.000  C
  C15      1.0000 0.17270  0.96650  0.34050  Biso   1.000  C
  C16      1.0000 0.82730  0.03350  0.65950  Biso   1.000  C
  H3       1.0000 0.21750  0.95150  0.29170  Biso   1.000  H
  H4       1.0000 0.78250  0.04850  0.70830  Biso   1.000  H
  C17      1.0000 0.20830  0.92720  0.43480  Biso   1.000  C
  C18      1.0000 0.79170  0.07280  0.56520  Biso   1.000  C
  C19      1.0000 0.32240  0.86280  0.45640  Biso   1.000  C
  C20      1.0000 0.67760  0.13720  0.54360  Biso   1.000  C
  F19      1.0000 0.41710  0.89970  0.55450  Biso   1.000  F
  F20      1.0000 0.58290  0.10030  0.44550  Biso   1.000  F
  F21      1.0000 0.26710  0.76053  0.44943  Biso   1.000  F
  F22      1.0000 0.73290  0.23947  0.55057  Biso   1.000  F
  F23      1.0000 0.39010  0.86580  0.38890  Biso   1.000  F
  F24      1.0000 0.60990  0.13420  0.61110  Biso   1.000  F
  O7       1.0000 0.15780  0.93531  0.50656  Biso   1.000  O
  O8       1.0000 0.84220  0.06469  0.49344  Biso   1.000  O
  O9       1.0000 0.55186  0.48184  0.15197  Biso   1.000  O
  O10      1.0000 0.44814  0.51816  0.84803  Biso   1.000  O
  N1       1.0000 0.67390  0.46574  0.20740  Biso   1.000  N
  N2       1.0000 0.32610  0.53426  0.79260  Biso   1.000  N
  C21      1.0000 0.69020  0.35660  0.22610  Biso   1.000  C
  C22      1.0000 0.30980  0.64340  0.77390  Biso   1.000  C
  C23      1.0000 0.62230  0.27260  0.12190  Biso   1.000  C
  C24      1.0000 0.37770  0.72740  0.87810  Biso   1.000  C
  H5       1.0000 0.52060  0.26340  0.09670  Biso   1.000  H
  H6       1.0000 0.47940  0.73660  0.90330  Biso   1.000  H
  H7       1.0000 0.64590  0.20450  0.13450  Biso   1.000  H
  H8       1.0000 0.35410  0.79550  0.86550  Biso   1.000  H
  H9       1.0000 0.65690  0.29620  0.06820  Biso   1.000  H
  H10      1.0000 0.34310  0.70380  0.93180  Biso   1.000  H
  C25      1.0000 0.61880  0.33200  0.30420  Biso   1.000  C
  C26      1.0000 0.38120  0.66800  0.69580  Biso   1.000  C
  H11      1.0000 0.51740  0.31990  0.26850  Biso   1.000  H
  H12      1.0000 0.48260  0.68010  0.73150  Biso   1.000  H
  H13      1.0000 0.65150  0.39250  0.36460  Biso   1.000  H
  H14      1.0000 0.34850  0.60750  0.63540  Biso   1.000  H
  H15      1.0000 0.64170  0.26800  0.32960  Biso   1.000  H
  H16      1.0000 0.35830  0.73200  0.67040  Biso   1.000  H
  C27      1.0000 0.85300  0.37760  0.27380  Biso   1.000  C
  C28      1.0000 0.14700  0.62240  0.72620  Biso   1.000  C
  C29      1.0000 0.91120  0.31750  0.36120  Biso   1.000  C
  C30      1.0000 0.08880  0.68250  0.63880  Biso   1.000  C
  H17      1.0000 0.01350  0.33540  0.38620  Biso   1.000  H
  H18      1.0000 0.98650  0.66460  0.61380  Biso   1.000  H
  H19      1.0000 0.87620  0.24050  0.33290  Biso   1.000  H
  H20      1.0000 0.12380  0.75950  0.66710  Biso   1.000  H
  H21      1.0000 0.88140  0.33790  0.42050  Biso   1.000  H
  H22      1.0000 0.11860  0.66210  0.57950  Biso   1.000  H
  C31      1.0000 0.92130  0.36640  0.19070  Biso   1.000  C
  C32      1.0000 0.07870  0.63360  0.80930  Biso   1.000  C
  H23      1.0000 0.02290  0.38070  0.22650  Biso   1.000  H
  H24      1.0000 0.97710  0.61930  0.77350  Biso   1.000  H
  H25      1.0000 0.89800  0.41740  0.14450  Biso   1.000  H
  H26      1.0000 0.10200  0.58260  0.85550  Biso   1.000  H
  H27      1.0000 0.88670  0.29370  0.14770  Biso   1.000  H
  H28      1.0000 0.11330  0.70630  0.85230  Biso   1.000  H
  N3       1.0000 0.88820  0.49600  0.32170  Biso   1.000  N
  N4       1.0000 0.11180  0.50400  0.67830  Biso   1.000  N
  O11      1.0000 0.00920  0.54568  0.38810  Biso   1.000  O
  O12      1.0000 0.99080  0.45432  0.61190  Biso   1.000  O
  C33      1.0000 0.78220  0.54350  0.27420  Biso   1.000  C
  C34      1.0000 0.21780  0.45650  0.72580  Biso   1.000  C
  C35      1.0000 0.78630  0.65470  0.29870  Biso   1.000  C
  C36      1.0000 0.21370  0.34530  0.70130  Biso   1.000  C
  C37      1.0000 0.89510  0.73770  0.37390  Biso   1.000  C
  C38      1.0000 0.10490  0.26230  0.62610  Biso   1.000  C
  H29      1.0000 0.98270  0.72760  0.41720  Biso   1.000  H
  H30      1.0000 0.01730  0.27240  0.58280  Biso   1.000  H
  N5       1.0000 0.85980  0.83060  0.37640  Biso   1.000  N
  N6       1.0000 0.14020  0.16940  0.62360  Biso   1.000  N
  N7       1.0000 0.72650  0.80920  0.30190  Biso   1.000  N
  N8       1.0000 0.27350  0.19080  0.69810  Biso   1.000  N
  C39      1.0000 0.65290  0.89700  0.28600  Biso   1.000  C
  C40      1.0000 0.34710  0.10300  0.71400  Biso   1.000  C
  H31      1.0000 0.72250  0.96450  0.29930  Biso   1.000  H
  H32      1.0000 0.27750  0.03550  0.70070  Biso   1.000  H
  H33      1.0000 0.60780  0.90490  0.33920  Biso   1.000  H
  H34      1.0000 0.39220  0.09510  0.66080  Biso   1.000  H
  C41      1.0000 0.54350  0.88030  0.17660  Biso   1.000  C
  C42      1.0000 0.45650  0.11970  0.82340  Biso   1.000  C
  H35      1.0000 0.47560  0.81140  0.16100  Biso   1.000  H
  H36      1.0000 0.52440  0.18860  0.83900  Biso   1.000  H
  H37      1.0000 0.58840  0.87770  0.12300  Biso   1.000  H
  H38      1.0000 0.41160  0.12230  0.87700  Biso   1.000  H
  C43      1.0000 0.46710  0.97160  0.16970  Biso   1.000  C
  C44      1.0000 0.53290  0.02840  0.83030  Biso   1.000  C
  H39      1.0000 0.42870  0.97680  0.22700  Biso   1.000  H
  H40      1.0000 0.57130  0.02320  0.77300  Biso   1.000  H
  H41      1.0000 0.53520  0.03950  0.18190  Biso   1.000  H
  H42      1.0000 0.46480  0.96050  0.81810  Biso   1.000  H
  C45      1.0000 0.34850  0.95730  0.06320  Biso   1.000  C
  C46      1.0000 0.65150  0.04270  0.93680  Biso   1.000  C
  H43      1.0000 0.30430  0.01790  0.06380  Biso   1.000  H
  H44      1.0000 0.69570  0.98210  0.93620  Biso   1.000  H
  H45      1.0000 0.27910  0.89110  0.05130  Biso   1.000  H
  H46      1.0000 0.72090  0.10890  0.94870  Biso   1.000  H
  H47      1.0000 0.38580  0.95360  0.00600  Biso   1.000  H
  H48      1.0000 0.61420  0.04640  0.99400  Biso   1.000  H
  C47      1.0000 0.67920  0.70550  0.25500  Biso   1.000  C
  C48      1.0000 0.32080  0.29450  0.74500  Biso   1.000  C
  H49      1.0000 0.58990  0.67280  0.20210  Biso   1.000  H
  H50      1.0000 0.41010  0.32720  0.79790  Biso   1.000  H
  C49      1.0000 0.35600  0.29300  0.48140  Biso   1.000  C
  C50      1.0000 0.64400  0.70700  0.51860  Biso   1.000  C
  H51      1.0000 0.26400  0.24880  0.44170  Biso   1.000  H
  H52      1.0000 0.73600  0.75120  0.55830  Biso   1.000  H
  H53      1.0000 0.42400  0.26030  0.46540  Biso   1.000  H
  H54      1.0000 0.57600  0.73970  0.53460  Biso   1.000  H
  H55      1.0000 0.37290  0.30120  0.55610  Biso   1.000  H
  H56      1.0000 0.62710  0.69880  0.44390  Biso   1.000  H
  C51      1.0000 0.36100  0.40240  0.44890  Biso   1.000  C
  C52      1.0000 0.63900  0.59760  0.55110  Biso   1.000  C
  H57      1.0000 0.26640  0.41210  0.42440  Biso   1.000  H
  H58      1.0000 0.73360  0.58790  0.57560  Biso   1.000  H
  H59      1.0000 0.38390  0.38240  0.38770  Biso   1.000  H
  H60      1.0000 0.61610  0.61760  0.61230  Biso   1.000  H
  C53      1.0000 0.50000  0.50000  0.50000  Biso   1.000  C
  H61      1.0000 0.58040  0.47840  0.54720  Biso   1.000  H
  H62      1.0000 0.41960  0.52160  0.45280  Biso   1.000  H
  H63      1.0000 0.45750  0.53360  0.54370  Biso   1.000  H
  H64      1.0000 0.54250  0.46640  0.45630  Biso   1.000  H
  C54      1.0000 0.48750  0.41470  0.54860  Biso   1.000  C
  C55      1.0000 0.51250  0.58530  0.45140  Biso   1.000  C
  H65      1.0000 0.56850  0.40240  0.60460  Biso   1.000  H
  H66      1.0000 0.43150  0.59760  0.39540  Biso   1.000  H
  H67      1.0000 0.43050  0.44340  0.58190  Biso   1.000  H
  H68      1.0000 0.56950  0.55660  0.41810  Biso   1.000  H
  C56      1.0000 0.34700  0.33900  0.47390  Biso   1.000  C
  C57      1.0000 0.65300  0.66100  0.52610  Biso   1.000  C
  H69      1.0000 0.65600  0.71740  0.48760  Biso   1.000  H
  H70      1.0000 0.34400  0.28260  0.51240  Biso   1.000  H
  H71      1.0000 0.65280  0.68830  0.59480  Biso   1.000  H
  H72      1.0000 0.34720  0.31170  0.40520  Biso   1.000  H
  H73      1.0000 0.73440  0.63220  0.53440  Biso   1.000  H
  H74      1.0000 0.26560  0.36780  0.46560  Biso   1.000  H
