data_image0
_cell_length_a       13.142
_cell_length_b       13.38
_cell_length_c       20.519
_cell_angle_alpha    74.166
_cell_angle_beta     77.2
_cell_angle_gamma    81.56

_symmetry_space_group_name_H-M    "P 1"
_symmetry_int_tables_number       1

loop_
  _symmetry_equiv_pos_as_xyz
  'x, y, z'

loop_
  _atom_site_label
  _atom_site_occupancy
  _atom_site_fract_x
  _atom_site_fract_y
  _atom_site_fract_z
  _atom_site_thermal_displace_type
  _atom_site_B_iso_or_equiv
  _atom_site_type_symbol
  Cu1      1.0000 0.00000  0.00000  0.00000  Biso   1.000  Cu
  O1       1.0000 0.91486  0.10617  0.94223  Biso   1.000  O
  O2       1.0000 0.08514  0.89383  0.05777  Biso   1.000  O
  C1       1.0000 0.86980  0.25550  0.86016  Biso   1.000  C
  C2       1.0000 0.13020  0.74450  0.13984  Biso   1.000  C
  F1       1.0000 0.78433  0.21520  0.85824  Biso   1.000  F
  F2       1.0000 0.21567  0.78480  0.14176  Biso   1.000  F
  F3       1.0000 0.90330  0.31208  0.79679  Biso   1.000  F
  F4       1.0000 0.09670  0.68792  0.20321  Biso   1.000  F
  F5       1.0000 0.83900  0.32030  0.90119  Biso   1.000  F
  F6       1.0000 0.16100  0.67970  0.09881  Biso   1.000  F
  C3       1.0000 0.95230  0.17130  0.88829  Biso   1.000  C
  C4       1.0000 0.04770  0.82870  0.11171  Biso   1.000  C
  C5       1.0000 0.05530  0.17600  0.85402  Biso   1.000  C
  C6       1.0000 0.94470  0.82400  0.14598  Biso   1.000  C
  H1       1.0000 0.07160  0.22860  0.81250  Biso   1.000  H
  H2       1.0000 0.92840  0.77140  0.18750  Biso   1.000  H
  C7       1.0000 0.13550  0.10620  0.87843  Biso   1.000  C
  C8       1.0000 0.86450  0.89380  0.12157  Biso   1.000  C
  C9       1.0000 0.24780  0.11800  0.83830  Biso   1.000  C
  C10      1.0000 0.75220  0.88200  0.16170  Biso   1.000  C
  F7       1.0000 0.30817  0.13290  0.87776  Biso   1.000  F
  F8       1.0000 0.69183  0.86710  0.12224  Biso   1.000  F
  F9       1.0000 0.28824  0.03421  0.81685  Biso   1.000  F
  F10      1.0000 0.71176  0.96579  0.18315  Biso   1.000  F
  F11      1.0000 0.25569  0.19805  0.78354  Biso   1.000  F
  F12      1.0000 0.74431  0.80195  0.21646  Biso   1.000  F
  O3       1.0000 0.12887  0.03199  0.93220  Biso   1.000  O
  O4       1.0000 0.87113  0.96801  0.06780  Biso   1.000  O
  Cu2      1.0000 0.00000  0.50000  0.50000  Biso   1.000  Cu
  O5       1.0000 0.12490  0.54594  0.42747  Biso   1.000  O
  O6       1.0000 0.87510  0.45406  0.57253  Biso   1.000  O
  C11      1.0000 0.25060  0.64920  0.35066  Biso   1.000  C
  C12      1.0000 0.74940  0.35080  0.64934  Biso   1.000  C
  F13      1.0000 0.29488  0.57066  0.32267  Biso   1.000  F
  F14      1.0000 0.70512  0.42934  0.67733  Biso   1.000  F
  F15      1.0000 0.26388  0.73641  0.30181  Biso   1.000  F
  F16      1.0000 0.73612  0.26359  0.69819  Biso   1.000  F
  F17      1.0000 0.30629  0.64905  0.39769  Biso   1.000  F
  F18      1.0000 0.69371  0.35095  0.60231  Biso   1.000  F
  C13      1.0000 0.13630  0.63380  0.38524  Biso   1.000  C
  C14      1.0000 0.86370  0.36620  0.61476  Biso   1.000  C
  C15      1.0000 0.06170  0.71450  0.36704  Biso   1.000  C
  C16      1.0000 0.93830  0.28550  0.63296  Biso   1.000  C
  H3       1.0000 0.08390  0.77680  0.33470  Biso   1.000  H
  H4       1.0000 0.91610  0.22320  0.66530  Biso   1.000  H
  C17      1.0000 0.95410  0.70840  0.39444  Biso   1.000  C
  C18      1.0000 0.04590  0.29160  0.60556  Biso   1.000  C
  C19      1.0000 0.88020  0.80600  0.37344  Biso   1.000  C
  C20      1.0000 0.11980  0.19400  0.62656  Biso   1.000  C
  F19      1.0000 0.79100  0.77880  0.37190  Biso   1.000  F
  F20      1.0000 0.20900  0.22120  0.62810  Biso   1.000  F
  F21      1.0000 0.91150  0.85770  0.30960  Biso   1.000  F
  F22      1.0000 0.08850  0.14230  0.69040  Biso   1.000  F
  F23      1.0000 0.87000  0.86970  0.41200  Biso   1.000  F
  F24      1.0000 0.13000  0.13030  0.58800  Biso   1.000  F
  F25      1.0000 0.82790  0.83000  0.43010  Biso   1.000  F
  F26      1.0000 0.17210  0.17000  0.56990  Biso   1.000  F
  F27      1.0000 0.80300  0.79190  0.34810  Biso   1.000  F
  F28      1.0000 0.19700  0.20810  0.65190  Biso   1.000  F
  F29      1.0000 0.92240  0.88770  0.33320  Biso   1.000  F
  F30      1.0000 0.07760  0.11230  0.66680  Biso   1.000  F
  O7       1.0000 0.91016  0.63269  0.43462  Biso   1.000  O
  O8       1.0000 0.08984  0.36731  0.56538  Biso   1.000  O
  Cu3      1.0000 0.49312  0.73144  0.74403  Biso   1.000  Cu
  Cu4      1.0000 0.50688  0.26856  0.25597  Biso   1.000  Cu
  O9       1.0000 0.55398  0.65634  0.82377  Biso   1.000  O
  O10      1.0000 0.44602  0.34366  0.17623  Biso   1.000  O
  C21      1.0000 0.62450  0.52330  0.90457  Biso   1.000  C
  C22      1.0000 0.37550  0.47670  0.09543  Biso   1.000  C
  F31      1.0000 0.62646  0.42138  0.93476  Biso   1.000  F
  F32      1.0000 0.37354  0.57862  0.06524  Biso   1.000  F
  F33      1.0000 0.58542  0.57384  0.95422  Biso   1.000  F
  F34      1.0000 0.41458  0.42616  0.04578  Biso   1.000  F
  F35      1.0000 0.72406  0.54496  0.88114  Biso   1.000  F
  F36      1.0000 0.27594  0.45504  0.11886  Biso   1.000  F
  C23      1.0000 0.56300  0.55870  0.84659  Biso   1.000  C
  C24      1.0000 0.43700  0.44130  0.15341  Biso   1.000  C
  C25      1.0000 0.52660  0.48400  0.82372  Biso   1.000  C
  C26      1.0000 0.47340  0.51600  0.17628  Biso   1.000  C
  H5       1.0000 0.54140  0.41210  0.84440  Biso   1.000  H
  H6       1.0000 0.45860  0.58790  0.15560  Biso   1.000  H
  C27      1.0000 0.46880  0.51310  0.77101  Biso   1.000  C
  C28      1.0000 0.53120  0.48690  0.22899  Biso   1.000  C
  C29      1.0000 0.42880  0.42310  0.75254  Biso   1.000  C
  C30      1.0000 0.57120  0.57690  0.24746  Biso   1.000  C
  F37      1.0000 0.49401  0.33740  0.75994  Biso   1.000  F
  F38      1.0000 0.50599  0.66260  0.24006  Biso   1.000  F
  F39      1.0000 0.41281  0.44957  0.68887  Biso   1.000  F
  F40      1.0000 0.58719  0.55043  0.31113  Biso   1.000  F
  F41      1.0000 0.33720  0.39899  0.79372  Biso   1.000  F
  F42      1.0000 0.66280  0.60101  0.20628  Biso   1.000  F
  O11      1.0000 0.44096  0.60239  0.73804  Biso   1.000  O
  O12      1.0000 0.55904  0.39761  0.26196  Biso   1.000  O
  O13      1.0000 0.43157  0.80901  0.66480  Biso   1.000  O
  O14      1.0000 0.56843  0.19099  0.33520  Biso   1.000  O
  C31      1.0000 0.36380  0.94740  0.58480  Biso   1.000  C
  C32      1.0000 0.63620  0.05260  0.41520  Biso   1.000  C
  F43      1.0000 0.40285  0.89891  0.53500  Biso   1.000  F
  F44      1.0000 0.59715  0.10109  0.46500  Biso   1.000  F
  F45      1.0000 0.36668  0.04913  0.55665  Biso   1.000  F
  F46      1.0000 0.63332  0.95087  0.44335  Biso   1.000  F
  F47      1.0000 0.26399  0.92955  0.60555  Biso   1.000  F
  F48      1.0000 0.73601  0.07045  0.39445  Biso   1.000  F
  C33      1.0000 0.42270  0.90780  0.64444  Biso   1.000  C
  C34      1.0000 0.57730  0.09220  0.35556  Biso   1.000  C
  C35      1.0000 0.45740  0.97930  0.67045  Biso   1.000  C
  C36      1.0000 0.54260  0.02070  0.32955  Biso   1.000  C
  H7       1.0000 0.44180  0.05170  0.65140  Biso   1.000  H
  H8       1.0000 0.55820  0.94830  0.34860  Biso   1.000  H
  C37      1.0000 0.51440  0.94890  0.72342  Biso   1.000  C
  C38      1.0000 0.48560  0.05110  0.27658  Biso   1.000  C
  C39      1.0000 0.54950  0.03450  0.74809  Biso   1.000  C
  C40      1.0000 0.45050  0.96550  0.25191  Biso   1.000  C
  F49      1.0000 0.48908  0.12382  0.73587  Biso   1.000  F
  F50      1.0000 0.51092  0.87618  0.26413  Biso   1.000  F
  F51      1.0000 0.54882  0.00531  0.81520  Biso   1.000  F
  F52      1.0000 0.45118  0.99469  0.18480  Biso   1.000  F
  F53      1.0000 0.64727  0.05481  0.71664  Biso   1.000  F
  F54      1.0000 0.35273  0.94519  0.28336  Biso   1.000  F
  O15      1.0000 0.54424  0.85753  0.75373  Biso   1.000  O
  O16      1.0000 0.45576  0.14247  0.24627  Biso   1.000  O
  O17      1.0000 0.98186  0.85258  0.96262  Biso   1.000  O
  O18      1.0000 0.01814  0.14742  0.03738  Biso   1.000  O
  N1       1.0000 0.96564  0.85836  0.90131  Biso   1.000  N
  N2       1.0000 0.03436  0.14164  0.09869  Biso   1.000  N
  C41      1.0000 0.85850  0.85560  0.88813  Biso   1.000  C
  C42      1.0000 0.14150  0.14440  0.11187  Biso   1.000  C
  C43      1.0000 0.77770  0.92600  0.92502  Biso   1.000  C
  C44      1.0000 0.22230  0.07400  0.07498  Biso   1.000  C
  H9       1.0000 0.79500  0.99850  0.90670  Biso   1.000  H
  H10      1.0000 0.20500  0.00150  0.09330  Biso   1.000  H
  H11      1.0000 0.77840  0.90440  0.97460  Biso   1.000  H
  H12      1.0000 0.22160  0.09560  0.02540  Biso   1.000  H
  H13      1.0000 0.70800  0.92050  0.91750  Biso   1.000  H
  H14      1.0000 0.29200  0.07950  0.08250  Biso   1.000  H
  C45      1.0000 0.83240  0.74150  0.91647  Biso   1.000  C
  C46      1.0000 0.16760  0.25850  0.08353  Biso   1.000  C
  H15      1.0000 0.81980  0.72370  0.96700  Biso   1.000  H
  H16      1.0000 0.18020  0.27630  0.03300  Biso   1.000  H
  H17      1.0000 0.89120  0.69540  0.89930  Biso   1.000  H
  H18      1.0000 0.10880  0.30460  0.10070  Biso   1.000  H
  H19      1.0000 0.76940  0.73270  0.90120  Biso   1.000  H
  H20      1.0000 0.23060  0.26730  0.09880  Biso   1.000  H
  C47      1.0000 0.87930  0.89190  0.80861  Biso   1.000  C
  C48      1.0000 0.12070  0.10810  0.19139  Biso   1.000  C
  C49      1.0000 0.81860  0.84010  0.77355  Biso   1.000  C
  C50      1.0000 0.18140  0.15990  0.22645  Biso   1.000  C
  H21      1.0000 0.83680  0.86730  0.72340  Biso   1.000  H
  H22      1.0000 0.16320  0.13270  0.27660  Biso   1.000  H
  H23      1.0000 0.74330  0.85520  0.78910  Biso   1.000  H
  H24      1.0000 0.25670  0.14480  0.21090  Biso   1.000  H
  H25      1.0000 0.83680  0.76450  0.78550  Biso   1.000  H
  H26      1.0000 0.16320  0.23550  0.21450  Biso   1.000  H
  C51      1.0000 0.86920  0.01040  0.78020  Biso   1.000  C
  C52      1.0000 0.13080  0.98960  0.21980  Biso   1.000  C
  H27      1.0000 0.88360  0.02740  0.72970  Biso   1.000  H
  H28      1.0000 0.11640  0.97260  0.27030  Biso   1.000  H
  H29      1.0000 0.91950  0.04110  0.79610  Biso   1.000  H
  H30      1.0000 0.08050  0.95890  0.20390  Biso   1.000  H
  H31      1.0000 0.79790  0.03870  0.79670  Biso   1.000  H
  H32      1.0000 0.20210  0.96130  0.20330  Biso   1.000  H
  N3       1.0000 0.99458  0.85793  0.79216  Biso   1.000  N
  N4       1.0000 0.00542  0.14207  0.20784  Biso   1.000  N
  O19      1.0000 0.04243  0.85481  0.73119  Biso   1.000  O
  O20      1.0000 0.95757  0.14519  0.26881  Biso   1.000  O
  C53      1.0000 0.04110  0.84764  0.84717  Biso   1.000  C
  C54      1.0000 0.95890  0.15236  0.15283  Biso   1.000  C
  C55      1.0000 0.15140  0.82751  0.84653  Biso   1.000  C
  C56      1.0000 0.84860  0.17249  0.15347  Biso   1.000  C
  C57      1.0000 0.23320  0.81130  0.79211  Biso   1.000  C
  C58      1.0000 0.76680  0.18870  0.20789  Biso   1.000  C
  H33      1.0000 0.22360  0.81400  0.74710  Biso   1.000  H
  H34      1.0000 0.77640  0.18600  0.25290  Biso   1.000  H
  N5       1.0000 0.32562  0.79178  0.81143  Biso   1.000  N
  N6       1.0000 0.67438  0.20822  0.18857  Biso   1.000  N
  N7       1.0000 0.30419  0.79684  0.87888  Biso   1.000  N
  N8       1.0000 0.69581  0.20316  0.12112  Biso   1.000  N
  C59      1.0000 0.39130  0.77750  0.91654  Biso   1.000  C
  C60      1.0000 0.60870  0.22250  0.08346  Biso   1.000  C
  H35      1.0000 0.45620  0.79750  0.88310  Biso   1.000  H
  H36      1.0000 0.54380  0.20250  0.11690  Biso   1.000  H
  H37      1.0000 0.40130  0.70180  0.93790  Biso   1.000  H
  H38      1.0000 0.59870  0.29820  0.06210  Biso   1.000  H
  C61      1.0000 0.37540  0.83560  0.97208  Biso   1.000  C
  C62      1.0000 0.62460  0.16440  0.02792  Biso   1.000  C
  H39      1.0000 0.31470  0.81120  0.00840  Biso   1.000  H
  H40      1.0000 0.68530  0.18880  0.99160  Biso   1.000  H
  H41      1.0000 0.36030  0.91110  0.95200  Biso   1.000  H
  H42      1.0000 0.63970  0.08890  0.04800  Biso   1.000  H
  C63      1.0000 0.47290  0.81780  0.00374  Biso   1.000  C
  C64      1.0000 0.52710  0.18220  0.99626  Biso   1.000  C
  H43      1.0000 0.53190  0.84730  0.96770  Biso   1.000  H
  H44      1.0000 0.46810  0.15270  0.03230  Biso   1.000  H
  H45      1.0000 0.49130  0.74180  0.01940  Biso   1.000  H
  H46      1.0000 0.50870  0.25820  0.98060  Biso   1.000  H
  C65      1.0000 0.46050  0.86630  0.06446  Biso   1.000  C
  C66      1.0000 0.53950  0.13370  0.93554  Biso   1.000  C
  H47      1.0000 0.52580  0.85170  0.08230  Biso   1.000  H
  H48      1.0000 0.47420  0.14830  0.91770  Biso   1.000  H
  H49      1.0000 0.40330  0.83650  0.10100  Biso   1.000  H
  H50      1.0000 0.59670  0.16350  0.89900  Biso   1.000  H
  H51      1.0000 0.44440  0.94190  0.04920  Biso   1.000  H
  H52      1.0000 0.55560  0.05810  0.95080  Biso   1.000  H
  C67      1.0000 0.20160  0.81670  0.90148  Biso   1.000  C
  C68      1.0000 0.79840  0.18330  0.09852  Biso   1.000  C
  H53      1.0000 0.16900  0.82240  0.94670  Biso   1.000  H
  H54      1.0000 0.83100  0.17760  0.05330  Biso   1.000  H
  O21      1.0000 0.01620  0.61721  0.53934  Biso   1.000  O
  O22      1.0000 0.98380  0.38279  0.46066  Biso   1.000  O
  N9       1.0000 0.02436  0.60284  0.60430  Biso   1.000  N
  N10      1.0000 0.97564  0.39716  0.39570  Biso   1.000  N
  C69      1.0000 0.12800  0.60370  0.62383  Biso   1.000  C
  C70      1.0000 0.87200  0.39630  0.37617  Biso   1.000  C
  C71      1.0000 0.21430  0.53880  0.58701  Biso   1.000  C
  C72      1.0000 0.78570  0.46120  0.41299  Biso   1.000  C
  H55      1.0000 0.22800  0.57240  0.53750  Biso   1.000  H
  H56      1.0000 0.77200  0.42760  0.46250  Biso   1.000  H
  H57      1.0000 0.19250  0.46900  0.59440  Biso   1.000  H
  H58      1.0000 0.80750  0.53100  0.40560  Biso   1.000  H
  H59      1.0000 0.27830  0.53310  0.60540  Biso   1.000  H
  H60      1.0000 0.72170  0.46690  0.39460  Biso   1.000  H
  C73      1.0000 0.15190  0.71820  0.60243  Biso   1.000  C
  C74      1.0000 0.84810  0.28180  0.39757  Biso   1.000  C
  H61      1.0000 0.17040  0.74090  0.55200  Biso   1.000  H
  H62      1.0000 0.82960  0.25910  0.44800  Biso   1.000  H
  H63      1.0000 0.21070  0.72540  0.62260  Biso   1.000  H
  H64      1.0000 0.78930  0.27460  0.37740  Biso   1.000  H
  H65      1.0000 0.09000  0.76150  0.61900  Biso   1.000  H
  H66      1.0000 0.91000  0.23850  0.38100  Biso   1.000  H
  C75      1.0000 0.09750  0.55960  0.70337  Biso   1.000  C
  C76      1.0000 0.90250  0.44040  0.29663  Biso   1.000  C
  C77      1.0000 0.14980  0.60600  0.74588  Biso   1.000  C
  C78      1.0000 0.85020  0.39400  0.25412  Biso   1.000  C
  H67      1.0000 0.12630  0.57410  0.79500  Biso   1.000  H
  H68      1.0000 0.87370  0.42590  0.20500  Biso   1.000  H
  H69      1.0000 0.13070  0.68150  0.73650  Biso   1.000  H
  H70      1.0000 0.86930  0.31850  0.26350  Biso   1.000  H
  H71      1.0000 0.22600  0.59240  0.73350  Biso   1.000  H
  H72      1.0000 0.77400  0.40760  0.26650  Biso   1.000  H
  C79      1.0000 0.10770  0.44060  0.72644  Biso   1.000  C
  C80      1.0000 0.89230  0.55940  0.27356  Biso   1.000  C
  H73      1.0000 0.08740  0.41840  0.77680  Biso   1.000  H
  H74      1.0000 0.91260  0.58160  0.22320  Biso   1.000  H
  H75      1.0000 0.18050  0.41400  0.71220  Biso   1.000  H
  H76      1.0000 0.81950  0.58600  0.28780  Biso   1.000  H
  H77      1.0000 0.06180  0.41300  0.70520  Biso   1.000  H
  H78      1.0000 0.93820  0.58700  0.29480  Biso   1.000  H
  N11      1.0000 0.98188  0.59296  0.71471  Biso   1.000  N
  N12      1.0000 0.01812  0.40704  0.28529  Biso   1.000  N
  O23      1.0000 0.92701  0.59316  0.77409  Biso   1.000  O
  O24      1.0000 0.07299  0.40684  0.22591  Biso   1.000  O
  C81      1.0000 0.94300  0.61123  0.65538  Biso   1.000  C
  C82      1.0000 0.05700  0.38877  0.34462  Biso   1.000  C
  C83      1.0000 0.83520  0.63860  0.64995  Biso   1.000  C
  C84      1.0000 0.16480  0.36140  0.35005  Biso   1.000  C
  C85      1.0000 0.74780  0.65100  0.70141  Biso   1.000  C
  C86      1.0000 0.25220  0.34900  0.29859  Biso   1.000  C
  H79      1.0000 0.75090  0.64080  0.74860  Biso   1.000  H
  H80      1.0000 0.24910  0.35920  0.25140  Biso   1.000  H
  N13      1.0000 0.65992  0.67900  0.67608  Biso   1.000  N
  N14      1.0000 0.34008  0.32100  0.32392  Biso   1.000  N
  N15      1.0000 0.69233  0.68459  0.60692  Biso   1.000  N
  N16      1.0000 0.30767  0.31541  0.39308  Biso   1.000  N
  C87      1.0000 0.61710  0.71090  0.56010  Biso   1.000  C
  C88      1.0000 0.38290  0.28910  0.43990  Biso   1.000  C
  H81      1.0000 0.55610  0.75420  0.57910  Biso   1.000  H
  H82      1.0000 0.44390  0.24580  0.42090  Biso   1.000  H
  H83      1.0000 0.65060  0.75330  0.51490  Biso   1.000  H
  H84      1.0000 0.34940  0.24670  0.48510  Biso   1.000  H
  C89      1.0000 0.57990  0.61990  0.54910  Biso   1.000  C
  C90      1.0000 0.42010  0.38010  0.45090  Biso   1.000  C
  H85      1.0000 0.54970  0.57550  0.59450  Biso   1.000  H
  H86      1.0000 0.45030  0.42450  0.40550  Biso   1.000  H
  H87      1.0000 0.64030  0.57850  0.52770  Biso   1.000  H
  H88      1.0000 0.35970  0.42150  0.47230  Biso   1.000  H
  C91      1.0000 0.49690  0.64860  0.50300  Biso   1.000  C
  C92      1.0000 0.50310  0.35140  0.49700  Biso   1.000  C
  H89      1.0000 0.47030  0.58380  0.50170  Biso   1.000  H
  H90      1.0000 0.52970  0.41620  0.49830  Biso   1.000  H
  H91      1.0000 0.43720  0.69160  0.52370  Biso   1.000  H
  H92      1.0000 0.56280  0.30840  0.47630  Biso   1.000  H
  C93      1.0000 0.53770  0.70660  0.43144  Biso   1.000  C
  C94      1.0000 0.46230  0.29340  0.56856  Biso   1.000  C
  H93      1.0000 0.48160  0.72280  0.40470  Biso   1.000  H
  H94      1.0000 0.51840  0.27720  0.59530  Biso   1.000  H
  H95      1.0000 0.59560  0.66370  0.41010  Biso   1.000  H
  H96      1.0000 0.40440  0.33630  0.58990  Biso   1.000  H
  H97      1.0000 0.56290  0.77160  0.43220  Biso   1.000  H
  H98      1.0000 0.43710  0.22840  0.56780  Biso   1.000  H
  C95      1.0000 0.79450  0.66140  0.58992  Biso   1.000  C
  C96      1.0000 0.20550  0.33860  0.41008  Biso   1.000  C
  H99      1.0000 0.83290  0.66040  0.54500  Biso   1.000  H
  H100     1.0000 0.16710  0.33960  0.45500  Biso   1.000  H
  Br1      1.0000 0.74679  0.47024  0.07608  Biso   1.000  Br
  Br2      1.0000 0.25321  0.52976  0.92392  Biso   1.000  Br
  C97      1.0000 0.86500  0.46010  0.01390  Biso   1.000  C
  C98      1.0000 0.13500  0.53990  0.98610  Biso   1.000  C
  H101     1.0000 0.85240  0.49380  0.96840  Biso   1.000  H
  H102     1.0000 0.14760  0.50620  0.03160  Biso   1.000  H
  H103     1.0000 0.88680  0.38790  0.01520  Biso   1.000  H
  H104     1.0000 0.11320  0.61210  0.98480  Biso   1.000  H
  C99      1.0000 0.94900  0.50080  0.02810  Biso   1.000  C
  C100     1.0000 0.05100  0.49920  0.97190  Biso   1.000  C
  H105     1.0000 0.97000  0.46140  0.07040  Biso   1.000  H
  H106     1.0000 0.03000  0.53860  0.92960  Biso   1.000  H
  H107     1.0000 0.92660  0.57080  0.03190  Biso   1.000  H
  H108     1.0000 0.07340  0.42920  0.96810  Biso   1.000  H
  C101     1.0000 0.04300  0.50160  0.96990  Biso   1.000  C
  C102     1.0000 0.95700  0.49840  0.03010  Biso   1.000  C
  H109     1.0000 0.02720  0.54980  0.92850  Biso   1.000  H
  H110     1.0000 0.97280  0.45020  0.07150  Biso   1.000  H
  H111     1.0000 0.06110  0.43340  0.96170  Biso   1.000  H
  H112     1.0000 0.93890  0.56660  0.03830  Biso   1.000  H
  C103     1.0000 0.14600  0.54090  0.98370  Biso   1.000  C
  C104     1.0000 0.85400  0.45910  0.01630  Biso   1.000  C
  H113     1.0000 0.15850  0.49800  0.02770  Biso   1.000  H
  H114     1.0000 0.84150  0.50200  0.97230  Biso   1.000  H
  H115     1.0000 0.13450  0.61270  0.98540  Biso   1.000  H
  H116     1.0000 0.86550  0.38730  0.01460  Biso   1.000  H
  C105     1.0000 0.25450  0.52980  0.92040  Biso   1.000  C
  C106     1.0000 0.74550  0.47020  0.07960  Biso   1.000  C
  H117     1.0000 0.31830  0.54840  0.92760  Biso   1.000  H
  H118     1.0000 0.68170  0.45160  0.07240  Biso   1.000  H
  H119     1.0000 0.26280  0.45770  0.91950  Biso   1.000  H
  H120     1.0000 0.73720  0.54230  0.08050  Biso   1.000  H
  H121     1.0000 0.23880  0.57240  0.87730  Biso   1.000  H
  H122     1.0000 0.76120  0.42760  0.12270  Biso   1.000  H
  Br3      1.0000 0.74962  0.93925  0.58641  Biso   1.000  Br
  Br4      1.0000 0.25038  0.06075  0.41359  Biso   1.000  Br
  C107     1.0000 0.89050  0.91580  0.56480  Biso   1.000  C
  C108     1.0000 0.10950  0.08420  0.43520  Biso   1.000  C
  H123     1.0000 0.90960  0.85730  0.54460  Biso   1.000  H
  H124     1.0000 0.09040  0.14270  0.45540  Biso   1.000  H
  H125     1.0000 0.92000  0.89990  0.60570  Biso   1.000  H
  H126     1.0000 0.08000  0.10010  0.39430  Biso   1.000  H
  C109     1.0000 0.94000  0.01040  0.51080  Biso   1.000  C
  C110     1.0000 0.06000  0.98960  0.48920  Biso   1.000  C
  H127     1.0000 0.92280  0.06940  0.53070  Biso   1.000  H
  H128     1.0000 0.07720  0.93060  0.46930  Biso   1.000  H
  H129     1.0000 0.91200  0.02670  0.46940  Biso   1.000  H
  H130     1.0000 0.08800  0.97330  0.53060  Biso   1.000  H
  C111     1.0000 0.05210  0.99270  0.48820  Biso   1.000  C
  C112     1.0000 0.94790  0.00730  0.51180  Biso   1.000  C
  H131     1.0000 0.07130  0.92940  0.47320  Biso   1.000  H
  H132     1.0000 0.92870  0.07060  0.52680  Biso   1.000  H
  H133     1.0000 0.08340  0.98800  0.52710  Biso   1.000  H
  H134     1.0000 0.91660  0.01200  0.47290  Biso   1.000  H
  C113     1.0000 0.09290  0.08400  0.43670  Biso   1.000  C
  C114     1.0000 0.90710  0.91600  0.56330  Biso   1.000  C
  H135     1.0000 0.08450  0.14770  0.45110  Biso   1.000  H
  H136     1.0000 0.91550  0.85230  0.54890  Biso   1.000  H
  H137     1.0000 0.06150  0.09260  0.39720  Biso   1.000  H
  H138     1.0000 0.93850  0.90740  0.60280  Biso   1.000  H
  C115     1.0000 0.21420  0.04900  0.41930  Biso   1.000  C
  C116     1.0000 0.78580  0.95100  0.58070  Biso   1.000  C
  H139     1.0000 0.25900  0.09320  0.38290  Biso   1.000  H
  H140     1.0000 0.74100  0.90680  0.61710  Biso   1.000  H
  H141     1.0000 0.23830  0.03780  0.46180  Biso   1.000  H
  H142     1.0000 0.76170  0.96220  0.53820  Biso   1.000  H
  H143     1.0000 0.21560  0.98330  0.40860  Biso   1.000  H
  H144     1.0000 0.78440  0.01670  0.59140  Biso   1.000  H
