data_image0
_cell_length_a       10.917
_cell_length_b       13.397
_cell_length_c       13.6
_cell_angle_alpha    98.592
_cell_angle_beta     112.227
_cell_angle_gamma    96.417

_symmetry_space_group_name_H-M    "P 1"
_symmetry_int_tables_number       1

loop_
  _symmetry_equiv_pos_as_xyz
  'x, y, z'

loop_
  _atom_site_label
  _atom_site_occupancy
  _atom_site_fract_x
  _atom_site_fract_y
  _atom_site_fract_z
  _atom_site_thermal_displace_type
  _atom_site_B_iso_or_equiv
  _atom_site_type_symbol
  Cu1      1.0000 0.00000  0.00000  0.00000  Biso   1.000  Cu
  O1       1.0000 0.09600  0.98320  0.18060  Biso   1.000  O
  O2       1.0000 0.90400  0.01680  0.81940  Biso   1.000  O
  O3       1.0000 0.10780  0.91790  0.94200  Biso   1.000  O
  O4       1.0000 0.89220  0.08210  0.05800  Biso   1.000  O
  N1       1.0000 0.21970  0.97560  0.23160  Biso   1.000  N
  N2       1.0000 0.78030  0.02440  0.76840  Biso   1.000  N
  C1       1.0000 0.25290  0.87680  0.86050  Biso   1.000  C
  C2       1.0000 0.74710  0.12320  0.13950  Biso   1.000  C
  C3       1.0000 0.26030  0.87410  0.24880  Biso   1.000  C
  C4       1.0000 0.73970  0.12590  0.75120  Biso   1.000  C
  F1       1.0000 0.29150  0.80870  0.91760  Biso   1.000  F
  F2       1.0000 0.70850  0.19130  0.08240  Biso   1.000  F
  F3       1.0000 0.21490  0.87620  0.76440  Biso   1.000  F
  F4       1.0000 0.78510  0.12380  0.23560  Biso   1.000  F
  O5       1.0000 0.12520  0.12710  0.02570  Biso   1.000  O
  O6       1.0000 0.87480  0.87290  0.97430  Biso   1.000  O
  N3       1.0000 0.43280  0.01690  0.33230  Biso   1.000  N
  N4       1.0000 0.56720  0.98310  0.66770  Biso   1.000  N
  O7       1.0000 0.54980  0.07000  0.39070  Biso   1.000  O
  O8       1.0000 0.45020  0.93000  0.60930  Biso   1.000  O
  C5       1.0000 0.20180  0.95620  0.91990  Biso   1.000  C
  C6       1.0000 0.79820  0.04380  0.08010  Biso   1.000  C
  C7       1.0000 0.18700  0.79260  0.14310  Biso   1.000  C
  C8       1.0000 0.81300  0.20740  0.85690  Biso   1.000  C
  H1       1.0000 0.09230  0.78000  0.12640  Biso   1.000  H
  H2       1.0000 0.90770  0.22000  0.87360  Biso   1.000  H
  H3       1.0000 0.22110  0.73010  0.15190  Biso   1.000  H
  H4       1.0000 0.77890  0.26990  0.84810  Biso   1.000  H
  H5       1.0000 0.20180  0.81700  0.08490  Biso   1.000  H
  H6       1.0000 0.79820  0.18300  0.91510  Biso   1.000  H
  F5       1.0000 0.14660  0.82440  0.77030  Biso   1.000  F
  F6       1.0000 0.85340  0.17560  0.22970  Biso   1.000  F
  F7       1.0000 0.23150  0.78600  0.87060  Biso   1.000  F
  F8       1.0000 0.76850  0.21400  0.12940  Biso   1.000  F
  N5       1.0000 0.35820  0.33070  0.38110  Biso   1.000  N
  N6       1.0000 0.64180  0.66930  0.61890  Biso   1.000  N
  C9       1.0000 0.26140  0.05750  0.94240  Biso   1.000  C
  C10      1.0000 0.73860  0.94250  0.05760  Biso   1.000  C
  H7       1.0000 0.33190  0.07450  0.92190  Biso   1.000  H
  H8       1.0000 0.66810  0.92550  0.07810  Biso   1.000  H
  C11      1.0000 0.21470  0.84510  0.33620  Biso   1.000  C
  C12      1.0000 0.78530  0.15490  0.66380  Biso   1.000  C
  H9       1.0000 0.11820  0.82860  0.30680  Biso   1.000  H
  H10      1.0000 0.88180  0.17140  0.69320  Biso   1.000  H
  H11      1.0000 0.24590  0.90190  0.39710  Biso   1.000  H
  H12      1.0000 0.75410  0.09810  0.60290  Biso   1.000  H
  H13      1.0000 0.25140  0.78670  0.35950  Biso   1.000  H
  H14      1.0000 0.74860  0.21330  0.64050  Biso   1.000  H
  F9       1.0000 0.33740  0.90840  0.82270  Biso   1.000  F
  F10      1.0000 0.66260  0.09160  0.17730  Biso   1.000  F
  F11      1.0000 0.38730  0.90360  0.89500  Biso   1.000  F
  F12      1.0000 0.61270  0.09640  0.10500  Biso   1.000  F
  N7       1.0000 0.22590  0.30180  0.31520  Biso   1.000  N
  N8       1.0000 0.77410  0.69820  0.68480  Biso   1.000  N
  C13      1.0000 0.41480  0.90280  0.28790  Biso   1.000  C
  C14      1.0000 0.58520  0.09720  0.71210  Biso   1.000  C
  C15      1.0000 0.22020  0.13530  0.99450  Biso   1.000  C
  C16      1.0000 0.77980  0.86470  0.00550  Biso   1.000  C
  F13      1.0000 0.23740  0.29450  0.98500  Biso   1.000  F
  F14      1.0000 0.76260  0.70550  0.01500  Biso   1.000  F
  F15      1.0000 0.32690  0.29400  0.11370  Biso   1.000  F
  F16      1.0000 0.67310  0.70600  0.88630  Biso   1.000  F
  F17      1.0000 0.38170  0.26880  0.12070  Biso   1.000  F
  F18      1.0000 0.61830  0.73120  0.87930  Biso   1.000  F
  C17      1.0000 0.29850  0.24530  0.02020  Biso   1.000  C
  C18      1.0000 0.70150  0.75470  0.97980  Biso   1.000  C
  C19      1.0000 0.49620  0.85260  0.37610  Biso   1.000  C
  C20      1.0000 0.50380  0.14740  0.62390  Biso   1.000  C
  H15      1.0000 0.59030  0.87440  0.39400  Biso   1.000  H
  H16      1.0000 0.40970  0.12560  0.60600  Biso   1.000  H
  H17      1.0000 0.47270  0.77930  0.35150  Biso   1.000  H
  H18      1.0000 0.52730  0.22070  0.64850  Biso   1.000  H
  H19      1.0000 0.47780  0.87190  0.43930  Biso   1.000  H
  H20      1.0000 0.52220  0.12810  0.56070  Biso   1.000  H
  F19      1.0000 0.19200  0.31250  0.97480  Biso   1.000  F
  F20      1.0000 0.80800  0.68750  0.02520  Biso   1.000  F
  F21      1.0000 0.40630  0.25130  0.99870  Biso   1.000  F
  F22      1.0000 0.59370  0.74870  0.00130  Biso   1.000  F
  C21      1.0000 0.46540  0.89710  0.19690  Biso   1.000  C
  C22      1.0000 0.53460  0.10290  0.80310  Biso   1.000  C
  H21      1.0000 0.56180  0.91610  0.22780  Biso   1.000  H
  H22      1.0000 0.43820  0.08390  0.77220  Biso   1.000  H
  H23      1.0000 0.42700  0.94340  0.15120  Biso   1.000  H
  H24      1.0000 0.57300  0.05660  0.84880  Biso   1.000  H
  H25      1.0000 0.43920  0.82830  0.15450  Biso   1.000  H
  H26      1.0000 0.56080  0.17170  0.84550  Biso   1.000  H
  F23      1.0000 0.35540  0.26320  0.95960  Biso   1.000  F
  F24      1.0000 0.64460  0.73680  0.04040  Biso   1.000  F
  C23      1.0000 0.32010  0.05380  0.29170  Biso   1.000  C
  C24      1.0000 0.67990  0.94620  0.70830  Biso   1.000  C
  C25      1.0000 0.30740  0.15990  0.31290  Biso   1.000  C
  C26      1.0000 0.69260  0.84010  0.68710  Biso   1.000  C
  C27      1.0000 0.40680  0.24460  0.37970  Biso   1.000  C
  C28      1.0000 0.59320  0.75540  0.62030  Biso   1.000  C
  H27      1.0000 0.49630  0.24080  0.41850  Biso   1.000  H
  H28      1.0000 0.50370  0.75920  0.58150  Biso   1.000  H
  C29      1.0000 0.19250  0.20180  0.27320  Biso   1.000  C
  C30      1.0000 0.80750  0.79820  0.72680  Biso   1.000  C
  H29      1.0000 0.10730  0.16620  0.22570  Biso   1.000  H
  H30      1.0000 0.89270  0.83380  0.77430  Biso   1.000  H
  C31      1.0000 0.13660  0.37730  0.29600  Biso   1.000  C
  C32      1.0000 0.86340  0.62270  0.70400  Biso   1.000  C
  H31      1.0000 0.06450  0.35740  0.31830  Biso   1.000  H
  H32      1.0000 0.93550  0.64260  0.68170  Biso   1.000  H
  H33      1.0000 0.18720  0.44350  0.34130  Biso   1.000  H
  H34      1.0000 0.81280  0.55650  0.65870  Biso   1.000  H
  C33      1.0000 0.08010  0.38810  0.18820  Biso   1.000  C
  C34      1.0000 0.91990  0.61190  0.81180  Biso   1.000  C
  H35      1.0000 0.01520  0.32680  0.14350  Biso   1.000  H
  H36      1.0000 0.98480  0.67320  0.85650  Biso   1.000  H
  H37      1.0000 0.14980  0.39740  0.16070  Biso   1.000  H
  H38      1.0000 0.85020  0.60260  0.83930  Biso   1.000  H
  C35      1.0000 0.00180  0.49370  0.18270  Biso   1.000  C
  C36      1.0000 0.99820  0.50630  0.81730  Biso   1.000  C
  H39      1.0000 0.00100  0.52260  0.25220  Biso   1.000  H
  H40      1.0000 0.99900  0.47740  0.74780  Biso   1.000  H
  H41      1.0000 0.04210  0.54670  0.15690  Biso   1.000  H
  H42      1.0000 0.95790  0.45330  0.84310  Biso   1.000  H
  C37      1.0000 0.90470  0.45680  0.12500  Biso   1.000  C
  C38      1.0000 0.09530  0.54320  0.87500  Biso   1.000  C
  H43      1.0000 0.84640  0.50630  0.11080  Biso   1.000  H
  H44      1.0000 0.15360  0.49370  0.88920  Biso   1.000  H
  H45      1.0000 0.86900  0.40440  0.15310  Biso   1.000  H
  H46      1.0000 0.13100  0.59560  0.84690  Biso   1.000  H
  H47      1.0000 0.91070  0.42630  0.05880  Biso   1.000  H
  H48      1.0000 0.08930  0.57370  0.94120  Biso   1.000  H
  Cu2      1.0000 0.50000  0.50000  0.50000  Biso   1.000  Cu
  O9       1.0000 0.48030  0.54740  0.36590  Biso   1.000  O
  O10      1.0000 0.51970  0.45260  0.63410  Biso   1.000  O
  O11      1.0000 0.65140  0.43600  0.50080  Biso   1.000  O
  O12      1.0000 0.34860  0.56400  0.49920  Biso   1.000  O
  C39      1.0000 0.49410  0.55710  0.20000  Biso   1.000  C
  C40      1.0000 0.50590  0.44290  0.80000  Biso   1.000  C
  C41      1.0000 0.54130  0.51990  0.30850  Biso   1.000  C
  C42      1.0000 0.45870  0.48010  0.69150  Biso   1.000  C
  F25      1.0000 0.36970  0.53410  0.15460  Biso   1.000  F
  F26      1.0000 0.63030  0.46590  0.84540  Biso   1.000  F
  F27      1.0000 0.52760  0.65070  0.20780  Biso   1.000  F
  F28      1.0000 0.47240  0.34930  0.79220  Biso   1.000  F
  F29      1.0000 0.59150  0.63740  0.21590  Biso   1.000  F
  F30      1.0000 0.40850  0.36260  0.78410  Biso   1.000  F
  F31      1.0000 0.52600  0.51620  0.13580  Biso   1.000  F
  F32      1.0000 0.47400  0.48380  0.86420  Biso   1.000  F
  C43      1.0000 0.64240  0.46300  0.33060  Biso   1.000  C
  C44      1.0000 0.35760  0.53700  0.66940  Biso   1.000  C
  H49      1.0000 0.67920  0.44860  0.27960  Biso   1.000  H
  H50      1.0000 0.32080  0.55140  0.72040  Biso   1.000  H
  F33      1.0000 0.51240  0.48700  0.11550  Biso   1.000  F
  F34      1.0000 0.48760  0.51300  0.88450  Biso   1.000  F
  F35      1.0000 0.38300  0.59200  0.17020  Biso   1.000  F
  F36      1.0000 0.61700  0.40800  0.82980  Biso   1.000  F
  C45      1.0000 0.69180  0.42620  0.42530  Biso   1.000  C
  C46      1.0000 0.30820  0.57380  0.57470  Biso   1.000  C
  C47      1.0000 0.80460  0.36590  0.44540  Biso   1.000  C
  C48      1.0000 0.19540  0.63410  0.55460  Biso   1.000  C
  F37      1.0000 0.76280  0.26860  0.42330  Biso   1.000  F
  F38      1.0000 0.23720  0.73140  0.57670  Biso   1.000  F
  F39      1.0000 0.88670  0.38790  0.54600  Biso   1.000  F
  F40      1.0000 0.11330  0.61210  0.45400  Biso   1.000  F
  F41      1.0000 0.87190  0.38510  0.38720  Biso   1.000  F
  F42      1.0000 0.12810  0.61490  0.61280  Biso   1.000  F
  F43      1.0000 0.84740  0.34590  0.36820  Biso   1.000  F
  F44      1.0000 0.15260  0.65410  0.63180  Biso   1.000  F
  F45      1.0000 0.91180  0.41740  0.52220  Biso   1.000  F
  F46      1.0000 0.08820  0.58260  0.47780  Biso   1.000  F
  F47      1.0000 0.77230  0.28290  0.46690  Biso   1.000  F
  F48      1.0000 0.22770  0.71710  0.53310  Biso   1.000  F
  Br1      1.0000 0.14970  0.23810  0.54640  Biso   1.000  Br
  Br2      1.0000 0.85030  0.76190  0.45360  Biso   1.000  Br
  C49      1.0000 0.02630  0.12080  0.49200  Biso   1.000  C
  C50      1.0000 0.97370  0.87920  0.50800  Biso   1.000  C
  H51      1.0000 0.02310  0.10090  0.41910  Biso   1.000  H
  H52      1.0000 0.97690  0.89910  0.58090  Biso   1.000  H
  H53      1.0000 0.93770  0.13190  0.48730  Biso   1.000  H
  H54      1.0000 0.06230  0.86810  0.51270  Biso   1.000  H
  C51      1.0000 0.07210  0.02220  0.51700  Biso   1.000  C
  C52      1.0000 0.92790  0.97780  0.48300  Biso   1.000  C
  H55      1.0000 0.07310  0.03940  0.58900  Biso   1.000  H
  H56      1.0000 0.92690  0.96060  0.41100  Biso   1.000  H
  H57      1.0000 0.15960  0.00860  0.52080  Biso   1.000  H
  H58      1.0000 0.84040  0.99140  0.47920  Biso   1.000  H
  C53      1.0000 0.05100  0.04920  0.57740  Biso   1.000  C
  C54      1.0000 0.94900  0.95080  0.42260  Biso   1.000  C
  H59      1.0000 0.03380  0.07000  0.64170  Biso   1.000  H
  H60      1.0000 0.96620  0.93000  0.35830  Biso   1.000  H
  H61      1.0000 0.86480  0.97600  0.40110  Biso   1.000  H
  H62      1.0000 0.13520  0.02400  0.59890  Biso   1.000  H
  C55      1.0000 0.10900  0.13420  0.54100  Biso   1.000  C
  C56      1.0000 0.89100  0.86580  0.45900  Biso   1.000  C
  H63      1.0000 0.82720  0.87310  0.49420  Biso   1.000  H
  H64      1.0000 0.17280  0.12690  0.50580  Biso   1.000  H
  H65      1.0000 0.97310  0.84990  0.50770  Biso   1.000  H
  H66      1.0000 0.02690  0.15010  0.49230  Biso   1.000  H
  C57      1.0000 0.14710  0.21250  0.64690  Biso   1.000  C
  C58      1.0000 0.85290  0.78750  0.35310  Biso   1.000  C
  H67      1.0000 0.82560  0.71920  0.36220  Biso   1.000  H
  H68      1.0000 0.17440  0.28080  0.63780  Biso   1.000  H
  H69      1.0000 0.22560  0.19020  0.69300  Biso   1.000  H
  H70      1.0000 0.77440  0.80980  0.30700  Biso   1.000  H
  H71      1.0000 0.08080  0.21320  0.67950  Biso   1.000  H
  H72      1.0000 0.91920  0.78680  0.32050  Biso   1.000  H
