data_image0
_cell_length_a       11.085
_cell_length_b       13.35
_cell_length_c       13.405
_cell_angle_alpha    98.26
_cell_angle_beta     96.986
_cell_angle_gamma    111.96

_symmetry_space_group_name_H-M    "P 1"
_symmetry_int_tables_number       1

loop_
  _symmetry_equiv_pos_as_xyz
  'x, y, z'

loop_
  _atom_site_label
  _atom_site_occupancy
  _atom_site_fract_x
  _atom_site_fract_y
  _atom_site_fract_z
  _atom_site_thermal_displace_type
  _atom_site_B_iso_or_equiv
  _atom_site_type_symbol
  Cu1      1.0000 0.00000  0.00000  0.50000  Biso   1.000  Cu
  O1       1.0000 0.10380  0.93920  0.41969  Biso   1.000  O
  O2       1.0000 0.89620  0.06080  0.58031  Biso   1.000  O
  C1       1.0000 0.24460  0.85400  0.37740  Biso   1.000  C
  C2       1.0000 0.75540  0.14600  0.62260  Biso   1.000  C
  F1       1.0000 0.13180  0.75840  0.32550  Biso   1.000  F
  F2       1.0000 0.86820  0.24160  0.67450  Biso   1.000  F
  F3       1.0000 0.32480  0.81530  0.41240  Biso   1.000  F
  F4       1.0000 0.67520  0.18470  0.58760  Biso   1.000  F
  F5       1.0000 0.27350  0.90220  0.30340  Biso   1.000  F
  F6       1.0000 0.72650  0.09780  0.69660  Biso   1.000  F
  F7       1.0000 0.19680  0.75530  0.37120  Biso   1.000  F
  F8       1.0000 0.80320  0.24470  0.62880  Biso   1.000  F
  F9       1.0000 0.23730  0.88000  0.29220  Biso   1.000  F
  F10      1.0000 0.76270  0.12000  0.70780  Biso   1.000  F
  F11      1.0000 0.38060  0.89010  0.40500  Biso   1.000  F
  F12      1.0000 0.61940  0.10990  0.59500  Biso   1.000  F
  C3       1.0000 0.19680  0.91730  0.45750  Biso   1.000  C
  C4       1.0000 0.80320  0.08270  0.54250  Biso   1.000  C
  C5       1.0000 0.25660  0.94040  0.55880  Biso   1.000  C
  C6       1.0000 0.74340  0.05960  0.44120  Biso   1.000  C
  H1       1.0000 0.32610  0.91930  0.57610  Biso   1.000  H
  H2       1.0000 0.67390  0.08070  0.42390  Biso   1.000  H
  C7       1.0000 0.21720  0.99370  0.63530  Biso   1.000  C
  C8       1.0000 0.78280  0.00630  0.36470  Biso   1.000  C
  C9       1.0000 0.29160  0.01860  0.74570  Biso   1.000  C
  C10      1.0000 0.70840  0.98140  0.25430  Biso   1.000  C
  F13      1.0000 0.33250  0.12350  0.78930  Biso   1.000  F
  F14      1.0000 0.66750  0.87650  0.21070  Biso   1.000  F
  F15      1.0000 0.40020  0.00030  0.75160  Biso   1.000  F
  F16      1.0000 0.59980  0.99970  0.24840  Biso   1.000  F
  F17      1.0000 0.21280  0.96480  0.80440  Biso   1.000  F
  F18      1.0000 0.78720  0.03520  0.19560  Biso   1.000  F
  F19      1.0000 0.36240  0.96550  0.75970  Biso   1.000  F
  F20      1.0000 0.63760  0.03450  0.24030  Biso   1.000  F
  F21      1.0000 0.37260  0.12030  0.76940  Biso   1.000  F
  F22      1.0000 0.62740  0.87970  0.23060  Biso   1.000  F
  F23      1.0000 0.21270  0.99680  0.80440  Biso   1.000  F
  F24      1.0000 0.78730  0.00320  0.19560  Biso   1.000  F
  O3       1.0000 0.12540  0.02690  0.62728  Biso   1.000  O
  O4       1.0000 0.87460  0.97310  0.37272  Biso   1.000  O
  Cu2      1.0000 0.50000  0.50000  0.00000  Biso   1.000  Cu
  O5       1.0000 0.53080  0.64000  0.95480  Biso   1.000  O
  O6       1.0000 0.46920  0.36000  0.04520  Biso   1.000  O
  C11      1.0000 0.53300  0.81190  0.94870  Biso   1.000  C
  C12      1.0000 0.46700  0.18810  0.05130  Biso   1.000  C
  F25      1.0000 0.50460  0.88900  0.00080  Biso   1.000  F
  F26      1.0000 0.49540  0.11100  0.99920  Biso   1.000  F
  F27      1.0000 0.48040  0.80060  0.85250  Biso   1.000  F
  F28      1.0000 0.51960  0.19940  0.14750  Biso   1.000  F
  F29      1.0000 0.66290  0.85110  0.95690  Biso   1.000  F
  F30      1.0000 0.33710  0.14890  0.04310  Biso   1.000  F
  F31      1.0000 0.45100  0.83550  0.91700  Biso   1.000  F
  F32      1.0000 0.54900  0.16450  0.08300  Biso   1.000  F
  F33      1.0000 0.56000  0.81240  0.87420  Biso   1.000  F
  F34      1.0000 0.44000  0.18760  0.12580  Biso   1.000  F
  F35      1.0000 0.58300  0.88900  0.00340  Biso   1.000  F
  F36      1.0000 0.41700  0.11100  0.99660  Biso   1.000  F
  C13      1.0000 0.47800  0.70390  0.98370  Biso   1.000  C
  C14      1.0000 0.52200  0.29610  0.01630  Biso   1.000  C
  C15      1.0000 0.37940  0.68600  0.04160  Biso   1.000  C
  C16      1.0000 0.62060  0.31400  0.95840  Biso   1.000  C
  H3       1.0000 0.34940  0.74150  0.05870  Biso   1.000  H
  H4       1.0000 0.65060  0.25850  0.94130  Biso   1.000  H
  C17      1.0000 0.32460  0.58880  0.07480  Biso   1.000  C
  C18      1.0000 0.67540  0.41120  0.92520  Biso   1.000  C
  C19      1.0000 0.21000  0.57190  0.13360  Biso   1.000  C
  C20      1.0000 0.79000  0.42810  0.86640  Biso   1.000  C
  F37      1.0000 0.19900  0.67090  0.15840  Biso   1.000  F
  F38      1.0000 0.80100  0.32910  0.84160  Biso   1.000  F
  F39      1.0000 0.22370  0.53290  0.20910  Biso   1.000  F
  F40      1.0000 0.77630  0.46710  0.79090  Biso   1.000  F
  F41      1.0000 0.10190  0.51000  0.07170  Biso   1.000  F
  F42      1.0000 0.89810  0.49000  0.92830  Biso   1.000  F
  F43      1.0000 0.24800  0.57860  0.22920  Biso   1.000  F
  F44      1.0000 0.75200  0.42140  0.77080  Biso   1.000  F
  F45      1.0000 0.11450  0.47050  0.10280  Biso   1.000  F
  F46      1.0000 0.88550  0.52950  0.89720  Biso   1.000  F
  F47      1.0000 0.15030  0.63370  0.12730  Biso   1.000  F
  F48      1.0000 0.84970  0.36630  0.87270  Biso   1.000  F
  O7       1.0000 0.35360  0.50620  0.06190  Biso   1.000  O
  O8       1.0000 0.64640  0.49380  0.93810  Biso   1.000  O
  O9       1.0000 0.09620  0.18260  0.48190  Biso   1.000  O
  O10      1.0000 0.90380  0.81740  0.51810  Biso   1.000  O
  N1       1.0000 0.21850  0.23290  0.47460  Biso   1.000  N
  N2       1.0000 0.78150  0.76710  0.52540  Biso   1.000  N
  C21      1.0000 0.25900  0.24880  0.37370  Biso   1.000  C
  C22      1.0000 0.74100  0.75120  0.62630  Biso   1.000  C
  C23      1.0000 0.22130  0.34080  0.34390  Biso   1.000  C
  C24      1.0000 0.77870  0.65920  0.65610  Biso   1.000  C
  H5       1.0000 0.12660  0.31420  0.32540  Biso   1.000  H
  H6       1.0000 0.87340  0.68580  0.67460  Biso   1.000  H
  H7       1.0000 0.26030  0.36390  0.28660  Biso   1.000  H
  H8       1.0000 0.73970  0.63610  0.71340  Biso   1.000  H
  H9       1.0000 0.25320  0.40220  0.40110  Biso   1.000  H
  H10      1.0000 0.74680  0.59780  0.59890  Biso   1.000  H
  C25      1.0000 0.18790  0.14300  0.29290  Biso   1.000  C
  C26      1.0000 0.81210  0.85700  0.70710  Biso   1.000  C
  H11      1.0000 0.09490  0.12720  0.27850  Biso   1.000  H
  H12      1.0000 0.90510  0.87280  0.72150  Biso   1.000  H
  H13      1.0000 0.20090  0.08320  0.31800  Biso   1.000  H
  H14      1.0000 0.79910  0.91680  0.68200  Biso   1.000  H
  H15      1.0000 0.22300  0.15170  0.23120  Biso   1.000  H
  H16      1.0000 0.77700  0.84830  0.76880  Biso   1.000  H
  C27      1.0000 0.41120  0.28470  0.40480  Biso   1.000  C
  C28      1.0000 0.58880  0.71530  0.59520  Biso   1.000  C
  C29      1.0000 0.45500  0.18940  0.39890  Biso   1.000  C
  C30      1.0000 0.54500  0.81060  0.60110  Biso   1.000  C
  H17      1.0000 0.54970  0.21780  0.41910  Biso   1.000  H
  H18      1.0000 0.45030  0.78220  0.58090  Biso   1.000  H
  H19      1.0000 0.42890  0.14740  0.32970  Biso   1.000  H
  H20      1.0000 0.57110  0.85260  0.67030  Biso   1.000  H
  H21      1.0000 0.41440  0.14280  0.44400  Biso   1.000  H
  H22      1.0000 0.58560  0.85720  0.55600  Biso   1.000  H
  C31      1.0000 0.49510  0.37360  0.35370  Biso   1.000  C
  C32      1.0000 0.50490  0.62640  0.64630  Biso   1.000  C
  H23      1.0000 0.58720  0.39060  0.37750  Biso   1.000  H
  H24      1.0000 0.41280  0.60940  0.62250  Biso   1.000  H
  H25      1.0000 0.47800  0.43870  0.37080  Biso   1.000  H
  H26      1.0000 0.52200  0.56130  0.62920  Biso   1.000  H
  H27      1.0000 0.47320  0.34760  0.28060  Biso   1.000  H
  H28      1.0000 0.52680  0.65240  0.71940  Biso   1.000  H
  N3       1.0000 0.43110  0.33120  0.51710  Biso   1.000  N
  N4       1.0000 0.56890  0.66880  0.48290  Biso   1.000  N
  O11      1.0000 0.54620  0.38940  0.57140  Biso   1.000  O
  O12      1.0000 0.45380  0.61060  0.42860  Biso   1.000  O
  C33      1.0000 0.31800  0.29300  0.55340  Biso   1.000  C
  C34      1.0000 0.68200  0.70700  0.44660  Biso   1.000  C
  C35      1.0000 0.30670  0.31550  0.65940  Biso   1.000  C
  C36      1.0000 0.69330  0.68450  0.34060  Biso   1.000  C
  C37      1.0000 0.40640  0.38040  0.74440  Biso   1.000  C
  C38      1.0000 0.59360  0.61960  0.25560  Biso   1.000  C
  H29      1.0000 0.49560  0.41540  0.74150  Biso   1.000  H
  H30      1.0000 0.50440  0.58460  0.25850  Biso   1.000  H
  N5       1.0000 0.35740  0.38540  0.82920  Biso   1.000  N
  N6       1.0000 0.64260  0.61460  0.17080  Biso   1.000  N
  N7       1.0000 0.22590  0.32060  0.80000  Biso   1.000  N
  N8       1.0000 0.77410  0.67940  0.20000  Biso   1.000  N
  C39      1.0000 0.13840  0.30290  0.87500  Biso   1.000  C
  C40      1.0000 0.86160  0.69710  0.12500  Biso   1.000  C
  H31      1.0000 0.18970  0.34720  0.94150  Biso   1.000  H
  H32      1.0000 0.81030  0.65280  0.05850  Biso   1.000  H
  H33      1.0000 0.07030  0.32940  0.85560  Biso   1.000  H
  H34      1.0000 0.92970  0.67060  0.14440  Biso   1.000  H
  C41      1.0000 0.07630  0.19230  0.88500  Biso   1.000  C
  C42      1.0000 0.92370  0.80770  0.11500  Biso   1.000  C
  H35      1.0000 0.14230  0.16170  0.89720  Biso   1.000  H
  H36      1.0000 0.85770  0.83830  0.10280  Biso   1.000  H
  H37      1.0000 0.01430  0.14860  0.82210  Biso   1.000  H
  H38      1.0000 0.98570  0.85140  0.17790  Biso   1.000  H
  C43      1.0000 0.99920  0.18740  0.97920  Biso   1.000  C
  C44      1.0000 0.00080  0.81260  0.02080  Biso   1.000  C
  H39      1.0000 0.05460  0.18580  0.04020  Biso   1.000  H
  H40      1.0000 0.94540  0.81420  0.95980  Biso   1.000  H
  H41      1.0000 0.98090  0.25310  0.99300  Biso   1.000  H
  H42      1.0000 0.01910  0.74690  0.00700  Biso   1.000  H
  C45      1.0000 0.88880  0.10070  0.95870  Biso   1.000  C
  C46      1.0000 0.11120  0.89930  0.04130  Biso   1.000  C
  H43      1.0000 0.84240  0.10120  0.01460  Biso   1.000  H
  H44      1.0000 0.15760  0.89880  0.98540  Biso   1.000  H
  H45      1.0000 0.90720  0.03550  0.94920  Biso   1.000  H
  H46      1.0000 0.09280  0.96450  0.05080  Biso   1.000  H
  H47      1.0000 0.83500  0.10100  0.89700  Biso   1.000  H
  H48      1.0000 0.16500  0.89900  0.10300  Biso   1.000  H
  C47      1.0000 0.19230  0.27880  0.70000  Biso   1.000  C
  C48      1.0000 0.80770  0.72120  0.30000  Biso   1.000  C
  H49      1.0000 0.10760  0.23320  0.66370  Biso   1.000  H
  H50      1.0000 0.89240  0.76680  0.33630  Biso   1.000  H
  C49      1.0000 0.15500  0.66070  0.78100  Biso   1.000  C
  C50      1.0000 0.84500  0.33930  0.21900  Biso   1.000  C
  C51      1.0000 0.13600  0.55900  0.70790  Biso   1.000  C
  C52      1.0000 0.86400  0.44100  0.29210  Biso   1.000  C
  C53      1.0000 0.09700  0.49800  0.59900  Biso   1.000  C
  C54      1.0000 0.90300  0.50200  0.40100  Biso   1.000  C
  C55      1.0000 0.02400  0.55900  0.55100  Biso   1.000  C
  C56      1.0000 0.97600  0.44100  0.44900  Biso   1.000  C
  C57      1.0000 0.01600  0.50900  0.55600  Biso   1.000  C
  C58      1.0000 0.98400  0.49100  0.44400  Biso   1.000  C
  C59      1.0000 0.13000  0.61600  0.60400  Biso   1.000  C
  C60      1.0000 0.87000  0.38400  0.39600  Biso   1.000  C
  C61      1.0000 0.88800  0.37400  0.28700  Biso   1.000  C
  C62      1.0000 0.11200  0.62600  0.71300  Biso   1.000  C
  C63      1.0000 0.83600  0.43800  0.22480  Biso   1.000  C
  C64      1.0000 0.16400  0.56200  0.77520  Biso   1.000  C
