data_image0
_cell_length_a       10.693
_cell_length_b       13.277
_cell_length_c       13.455
_cell_angle_alpha    98.556
_cell_angle_beta     111.59
_cell_angle_gamma    96.965

_symmetry_space_group_name_H-M    "P 1"
_symmetry_int_tables_number       1

loop_
  _symmetry_equiv_pos_as_xyz
  'x, y, z'

loop_
  _atom_site_label
  _atom_site_occupancy
  _atom_site_fract_x
  _atom_site_fract_y
  _atom_site_fract_z
  _atom_site_thermal_displace_type
  _atom_site_B_iso_or_equiv
  _atom_site_type_symbol
  Cu1      1.0000 0.00000  0.00000  0.00000  Biso   1.000  Cu
  O1       1.0000 0.08906  0.98203  0.17973  Biso   1.000  O
  O2       1.0000 0.91094  0.01797  0.82027  Biso   1.000  O
  O3       1.0000 0.11124  0.91688  0.94375  Biso   1.000  O
  O4       1.0000 0.88876  0.08312  0.05625  Biso   1.000  O
  N1       1.0000 0.21510  0.97322  0.23178  Biso   1.000  N
  N2       1.0000 0.78490  0.02678  0.76822  Biso   1.000  N
  C1       1.0000 0.26010  0.87400  0.86170  Biso   1.000  C
  C2       1.0000 0.73990  0.12600  0.13830  Biso   1.000  C
  C3       1.0000 0.25420  0.87050  0.24840  Biso   1.000  C
  C4       1.0000 0.74580  0.12950  0.75160  Biso   1.000  C
  F1       1.0000 0.29380  0.80280  0.91780  Biso   1.000  F
  F2       1.0000 0.70620  0.19720  0.08220  Biso   1.000  F
  F3       1.0000 0.20600  0.86500  0.76280  Biso   1.000  F
  F4       1.0000 0.79400  0.13500  0.23720  Biso   1.000  F
  O5       1.0000 0.13076  0.12791  0.02774  Biso   1.000  O
  O6       1.0000 0.86924  0.87209  0.97226  Biso   1.000  O
  N3       1.0000 0.43420  0.01379  0.33359  Biso   1.000  N
  N4       1.0000 0.56580  0.98621  0.66641  Biso   1.000  N
  O7       1.0000 0.55270  0.06779  0.39198  Biso   1.000  O
  O8       1.0000 0.44730  0.93221  0.60802  Biso   1.000  O
  C5       1.0000 0.20790  0.95500  0.92210  Biso   1.000  C
  C6       1.0000 0.79210  0.04500  0.07790  Biso   1.000  C
  C7       1.0000 0.18170  0.78840  0.14330  Biso   1.000  C
  C8       1.0000 0.81830  0.21160  0.85670  Biso   1.000  C
  H1       1.0000 0.08300  0.77500  0.12570  Biso   1.000  H
  H2       1.0000 0.91700  0.22500  0.87430  Biso   1.000  H
  H3       1.0000 0.21680  0.72410  0.15310  Biso   1.000  H
  H4       1.0000 0.78320  0.27590  0.84690  Biso   1.000  H
  H5       1.0000 0.19870  0.81310  0.08350  Biso   1.000  H
  H6       1.0000 0.80130  0.18690  0.91650  Biso   1.000  H
  F5       1.0000 0.15210  0.82020  0.76760  Biso   1.000  F
  F6       1.0000 0.84790  0.17980  0.23240  Biso   1.000  F
  F7       1.0000 0.25360  0.78670  0.88740  Biso   1.000  F
  F8       1.0000 0.74640  0.21330  0.11260  Biso   1.000  F
  N5       1.0000 0.36150  0.33192  0.37910  Biso   1.000  N
  N6       1.0000 0.63850  0.66808  0.62090  Biso   1.000  N
  C9       1.0000 0.27010  0.05780  0.94450  Biso   1.000  C
  C10      1.0000 0.72990  0.94220  0.05550  Biso   1.000  C
  H7       1.0000 0.34440  0.07520  0.92360  Biso   1.000  H
  H8       1.0000 0.65560  0.92480  0.07640  Biso   1.000  H
  C11      1.0000 0.20690  0.84290  0.33770  Biso   1.000  C
  C12      1.0000 0.79310  0.15710  0.66230  Biso   1.000  C
  H9       1.0000 0.10660  0.82560  0.30790  Biso   1.000  H
  H10      1.0000 0.89340  0.17440  0.69210  Biso   1.000  H
  H11      1.0000 0.23940  0.90240  0.39950  Biso   1.000  H
  H12      1.0000 0.76060  0.09760  0.60050  Biso   1.000  H
  H13      1.0000 0.24460  0.78320  0.36270  Biso   1.000  H
  H14      1.0000 0.75540  0.21680  0.63730  Biso   1.000  H
  F9       1.0000 0.35070  0.90700  0.82800  Biso   1.000  F
  F10      1.0000 0.64930  0.09300  0.17200  Biso   1.000  F
  F11      1.0000 0.39240  0.90390  0.88690  Biso   1.000  F
  F12      1.0000 0.60760  0.09610  0.11310  Biso   1.000  F
  N7       1.0000 0.22730  0.30352  0.31184  Biso   1.000  N
  N8       1.0000 0.77270  0.69648  0.68816  Biso   1.000  N
  C13      1.0000 0.41010  0.89990  0.28720  Biso   1.000  C
  C14      1.0000 0.58990  0.10010  0.71280  Biso   1.000  C
  C15      1.0000 0.22760  0.13560  0.99610  Biso   1.000  C
  C16      1.0000 0.77240  0.86440  0.00390  Biso   1.000  C
  F13      1.0000 0.23790  0.30250  0.98020  Biso   1.000  F
  F14      1.0000 0.76210  0.69750  0.01980  Biso   1.000  F
  F15      1.0000 0.34520  0.29400  0.12000  Biso   1.000  F
  F16      1.0000 0.65480  0.70600  0.88000  Biso   1.000  F
  F17      1.0000 0.37140  0.27910  0.12450  Biso   1.000  F
  F18      1.0000 0.62860  0.72090  0.87550  Biso   1.000  F
  C17      1.0000 0.30400  0.24710  0.01940  Biso   1.000  C
  C18      1.0000 0.69600  0.75290  0.98060  Biso   1.000  C
  C19      1.0000 0.49220  0.84810  0.37550  Biso   1.000  C
  C20      1.0000 0.50780  0.15190  0.62450  Biso   1.000  C
  H15      1.0000 0.59020  0.87100  0.39390  Biso   1.000  H
  H16      1.0000 0.40980  0.12900  0.60610  Biso   1.000  H
  H17      1.0000 0.46750  0.77260  0.34930  Biso   1.000  H
  H18      1.0000 0.53250  0.22740  0.65070  Biso   1.000  H
  H19      1.0000 0.47240  0.86700  0.44070  Biso   1.000  H
  H20      1.0000 0.52760  0.13300  0.55930  Biso   1.000  H
  F19      1.0000 0.20630  0.30870  0.97100  Biso   1.000  F
  F20      1.0000 0.79370  0.69130  0.02900  Biso   1.000  F
  F21      1.0000 0.41570  0.25620  0.99530  Biso   1.000  F
  F22      1.0000 0.58430  0.74380  0.00470  Biso   1.000  F
  C21      1.0000 0.46090  0.89170  0.19470  Biso   1.000  C
  C22      1.0000 0.53910  0.10830  0.80530  Biso   1.000  C
  H21      1.0000 0.56110  0.91120  0.22550  Biso   1.000  H
  H22      1.0000 0.43890  0.08880  0.77450  Biso   1.000  H
  H23      1.0000 0.42150  0.93850  0.14690  Biso   1.000  H
  H24      1.0000 0.57850  0.06150  0.85310  Biso   1.000  H
  H25      1.0000 0.43280  0.82020  0.15240  Biso   1.000  H
  H26      1.0000 0.56720  0.17980  0.84760  Biso   1.000  H
  F23      1.0000 0.37890  0.25730  0.96920  Biso   1.000  F
  F24      1.0000 0.62110  0.74270  0.03080  Biso   1.000  F
  C23      1.0000 0.31820  0.05270  0.29220  Biso   1.000  C
  C24      1.0000 0.68180  0.94730  0.70780  Biso   1.000  C
  C25      1.0000 0.30780  0.15930  0.31160  Biso   1.000  C
  C26      1.0000 0.69220  0.84070  0.68840  Biso   1.000  C
  C27      1.0000 0.40980  0.24470  0.37820  Biso   1.000  C
  C28      1.0000 0.59020  0.75530  0.62180  Biso   1.000  C
  H27      1.0000 0.50240  0.24060  0.41790  Biso   1.000  H
  H28      1.0000 0.49760  0.75940  0.58210  Biso   1.000  H
  C29      1.0000 0.19200  0.20170  0.27100  Biso   1.000  C
  C30      1.0000 0.80800  0.79830  0.72900  Biso   1.000  C
  H29      1.0000 0.10320  0.16490  0.22260  Biso   1.000  H
  H30      1.0000 0.89680  0.83510  0.77740  Biso   1.000  H
  C31      1.0000 0.13960  0.38050  0.29080  Biso   1.000  C
  C32      1.0000 0.86040  0.61950  0.70920  Biso   1.000  C
  H31      1.0000 0.06530  0.36310  0.31630  Biso   1.000  H
  H32      1.0000 0.93470  0.63690  0.68370  Biso   1.000  H
  H33      1.0000 0.19440  0.44920  0.33480  Biso   1.000  H
  H34      1.0000 0.80560  0.55080  0.66520  Biso   1.000  H
  C33      1.0000 0.08020  0.38800  0.18040  Biso   1.000  C
  C34      1.0000 0.91980  0.61200  0.81960  Biso   1.000  C
  H35      1.0000 0.01120  0.32440  0.13760  Biso   1.000  H
  H36      1.0000 0.98880  0.67560  0.86240  Biso   1.000  H
  H37      1.0000 0.15180  0.39390  0.15030  Biso   1.000  H
  H38      1.0000 0.84820  0.60610  0.84970  Biso   1.000  H
  C35      1.0000 0.00760  0.48860  0.16950  Biso   1.000  C
  C36      1.0000 0.99240  0.51140  0.83050  Biso   1.000  C
  H39      1.0000 0.03120  0.53160  0.24290  Biso   1.000  H
  H40      1.0000 0.96880  0.46840  0.75710  Biso   1.000  H
  H41      1.0000 0.04060  0.53140  0.12660  Biso   1.000  H
  H42      1.0000 0.95940  0.46860  0.87340  Biso   1.000  H
  C37      1.0000 0.88760  0.46010  0.12540  Biso   1.000  C
  C38      1.0000 0.11240  0.53990  0.87460  Biso   1.000  C
  H43      1.0000 0.84280  0.52040  0.11880  Biso   1.000  H
  H44      1.0000 0.15720  0.47960  0.88120  Biso   1.000  H
  H45      1.0000 0.85560  0.41790  0.16840  Biso   1.000  H
  H46      1.0000 0.14440  0.58210  0.83160  Biso   1.000  H
  H47      1.0000 0.86490  0.41840  0.05240  Biso   1.000  H
  H48      1.0000 0.13510  0.58160  0.94760  Biso   1.000  H
  Cu2      1.0000 0.50000  0.50000  0.50000  Biso   1.000  Cu
  O9       1.0000 0.48270  0.54930  0.36510  Biso   1.000  O
  O10      1.0000 0.51730  0.45070  0.63490  Biso   1.000  O
  O11      1.0000 0.65569  0.43832  0.50173  Biso   1.000  O
  O12      1.0000 0.34431  0.56168  0.49827  Biso   1.000  O
  C39      1.0000 0.50280  0.55910  0.19900  Biso   1.000  C
  C40      1.0000 0.49720  0.44090  0.80100  Biso   1.000  C
  C41      1.0000 0.54680  0.52160  0.30740  Biso   1.000  C
  C42      1.0000 0.45320  0.47840  0.69260  Biso   1.000  C
  F25      1.0000 0.36980  0.54010  0.15370  Biso   1.000  F
  F26      1.0000 0.63020  0.45990  0.84630  Biso   1.000  F
  F27      1.0000 0.54030  0.65120  0.21030  Biso   1.000  F
  F28      1.0000 0.45970  0.34880  0.78970  Biso   1.000  F
  F29      1.0000 0.59460  0.64880  0.21290  Biso   1.000  F
  F30      1.0000 0.40540  0.35120  0.78710  Biso   1.000  F
  F31      1.0000 0.52980  0.51470  0.13210  Biso   1.000  F
  F32      1.0000 0.47020  0.48530  0.86790  Biso   1.000  F
  C43      1.0000 0.64980  0.46470  0.33030  Biso   1.000  C
  C44      1.0000 0.35020  0.53530  0.66970  Biso   1.000  C
  H49      1.0000 0.68910  0.44930  0.27830  Biso   1.000  H
  H50      1.0000 0.31090  0.55070  0.72170  Biso   1.000  H
  F33      1.0000 0.52330  0.48970  0.11720  Biso   1.000  F
  F34      1.0000 0.47670  0.51030  0.88280  Biso   1.000  F
  F35      1.0000 0.38630  0.58940  0.16830  Biso   1.000  F
  F36      1.0000 0.61370  0.41060  0.83170  Biso   1.000  F
  C45      1.0000 0.69730  0.42930  0.42600  Biso   1.000  C
  C46      1.0000 0.30270  0.57070  0.57400  Biso   1.000  C
  C47      1.0000 0.81400  0.36960  0.44690  Biso   1.000  C
  C48      1.0000 0.18600  0.63040  0.55310  Biso   1.000  C
  F37      1.0000 0.77230  0.26730  0.43300  Biso   1.000  F
  F38      1.0000 0.22770  0.73270  0.56700  Biso   1.000  F
  F39      1.0000 0.90410  0.39280  0.54710  Biso   1.000  F
  F40      1.0000 0.09590  0.60720  0.45290  Biso   1.000  F
  F41      1.0000 0.87530  0.37960  0.37950  Biso   1.000  F
  F42      1.0000 0.12470  0.62040  0.62050  Biso   1.000  F
  F43      1.0000 0.86470  0.35670  0.37190  Biso   1.000  F
  F44      1.0000 0.13530  0.64330  0.62810  Biso   1.000  F
  F45      1.0000 0.91840  0.42100  0.53580  Biso   1.000  F
  F46      1.0000 0.08160  0.57900  0.46420  Biso   1.000  F
  F47      1.0000 0.77050  0.27950  0.46030  Biso   1.000  F
  F48      1.0000 0.22950  0.72050  0.53970  Biso   1.000  F
  Br1      1.0000 0.15154  0.24464  0.53919  Biso   1.000  Br
  Br2      1.0000 0.84846  0.75536  0.46081  Biso   1.000  Br
  C49      1.0000 0.02960  0.13030  0.47090  Biso   1.000  C
  C50      1.0000 0.97040  0.86970  0.52910  Biso   1.000  C
  H51      1.0000 0.02650  0.11040  0.39850  Biso   1.000  H
  H52      1.0000 0.97350  0.88960  0.60150  Biso   1.000  H
  H53      1.0000 0.94100  0.14150  0.46660  Biso   1.000  H
  H54      1.0000 0.05900  0.85850  0.53340  Biso   1.000  H
  C51      1.0000 0.05610  0.04050  0.52460  Biso   1.000  C
  C52      1.0000 0.94390  0.95950  0.47540  Biso   1.000  C
  H55      1.0000 0.05710  0.05780  0.59660  Biso   1.000  H
  H56      1.0000 0.94290  0.94220  0.40340  Biso   1.000  H
  H57      1.0000 0.14360  0.02690  0.52840  Biso   1.000  H
  H58      1.0000 0.85640  0.97310  0.47160  Biso   1.000  H
  C53      1.0000 0.94500  0.95570  0.43400  Biso   1.000  C
  C54      1.0000 0.05500  0.04430  0.56600  Biso   1.000  C
  H59      1.0000 0.96270  0.93490  0.37010  Biso   1.000  H
  H60      1.0000 0.03730  0.06510  0.62990  Biso   1.000  H
  H61      1.0000 0.86130  0.98080  0.41290  Biso   1.000  H
  H62      1.0000 0.13870  0.01920  0.58710  Biso   1.000  H
  C55      1.0000 0.09960  0.14200  0.52900  Biso   1.000  C
  C56      1.0000 0.90040  0.85800  0.47100  Biso   1.000  C
  H63      1.0000 0.83700  0.86530  0.50580  Biso   1.000  H
  H64      1.0000 0.16300  0.13470  0.49420  Biso   1.000  H
  H65      1.0000 0.98280  0.84210  0.51940  Biso   1.000  H
  H66      1.0000 0.01720  0.15790  0.48060  Biso   1.000  H
  C57      1.0000 0.15540  0.21910  0.64370  Biso   1.000  C
  C58      1.0000 0.84460  0.78090  0.35630  Biso   1.000  C
  H67      1.0000 0.81740  0.71250  0.36540  Biso   1.000  H
  H68      1.0000 0.18260  0.28750  0.63460  Biso   1.000  H
  H69      1.0000 0.23390  0.19680  0.68970  Biso   1.000  H
  H70      1.0000 0.76610  0.80320  0.31030  Biso   1.000  H
  H71      1.0000 0.08910  0.21980  0.67630  Biso   1.000  H
  H72      1.0000 0.91090  0.78020  0.32370  Biso   1.000  H
