data_image0
_cell_length_a       11.001
_cell_length_b       13.386
_cell_length_c       13.762
_cell_angle_alpha    76.25
_cell_angle_beta     64.14
_cell_angle_gamma    83.13

_symmetry_space_group_name_H-M    "P 1"
_symmetry_int_tables_number       1

loop_
  _symmetry_equiv_pos_as_xyz
  'x, y, z'

loop_
  _atom_site_label
  _atom_site_occupancy
  _atom_site_fract_x
  _atom_site_fract_y
  _atom_site_fract_z
  _atom_site_thermal_displace_type
  _atom_site_B_iso_or_equiv
  _atom_site_type_symbol
  Cu1      1.0000 0.00000  0.00000  0.00000  Biso   1.000  Cu
  O1       1.0000 0.09920  0.87302  0.02720  Biso   1.000  O
  O2       1.0000 0.90080  0.12698  0.97280  Biso   1.000  O
  C1       1.0000 0.27290  0.75490  0.02140  Biso   1.000  C
  C2       1.0000 0.72710  0.24510  0.97860  Biso   1.000  C
  F1       1.0000 0.25300  0.72670  0.12460  Biso   1.000  F
  F2       1.0000 0.74700  0.27330  0.87540  Biso   1.000  F
  F3       1.0000 0.24840  0.69960  0.98570  Biso   1.000  F
  F4       1.0000 0.75160  0.30040  0.01430  Biso   1.000  F
  F5       1.0000 0.40430  0.74400  0.98160  Biso   1.000  F
  F6       1.0000 0.59570  0.25600  0.01840  Biso   1.000  F
  F7       1.0000 0.21110  0.71050  0.12100  Biso   1.000  F
  F8       1.0000 0.78890  0.28950  0.87900  Biso   1.000  F
  F9       1.0000 0.22580  0.69330  0.96910  Biso   1.000  F
  F10      1.0000 0.77420  0.30670  0.03090  Biso   1.000  F
  C3       1.0000 0.22430  0.86520  0.99510  Biso   1.000  C
  C4       1.0000 0.77570  0.13480  0.00490  Biso   1.000  C
  C5       1.0000 0.31780  0.94140  0.94170  Biso   1.000  C
  C6       1.0000 0.68220  0.05860  0.05830  Biso   1.000  C
  H1       1.0000 0.40880  0.92390  0.92080  Biso   1.000  H
  H2       1.0000 0.59120  0.07610  0.07920  Biso   1.000  H
  C7       1.0000 0.28090  0.04360  0.91760  Biso   1.000  C
  C8       1.0000 0.71910  0.95640  0.08240  Biso   1.000  C
  C9       1.0000 0.39200  0.12260  0.85370  Biso   1.000  C
  C10      1.0000 0.60800  0.87740  0.14630  Biso   1.000  C
  F11      1.0000 0.37850  0.17550  0.75960  Biso   1.000  F
  F12      1.0000 0.62150  0.82450  0.24040  Biso   1.000  F
  F13      1.0000 0.51260  0.08900  0.81800  Biso   1.000  F
  F14      1.0000 0.48740  0.91100  0.18200  Biso   1.000  F
  F15      1.0000 0.37300  0.19110  0.88210  Biso   1.000  F
  F16      1.0000 0.62700  0.80890  0.11790  Biso   1.000  F
  F17      1.0000 0.43990  0.12890  0.75490  Biso   1.000  F
  F18      1.0000 0.56010  0.87110  0.24510  Biso   1.000  F
  F19      1.0000 0.49510  0.09550  0.88720  Biso   1.000  F
  F20      1.0000 0.50490  0.90450  0.11280  Biso   1.000  F
  F21      1.0000 0.35730  0.21430  0.90120  Biso   1.000  F
  F22      1.0000 0.64270  0.78570  0.09880  Biso   1.000  F
  O3       1.0000 0.16500  0.08121  0.93960  Biso   1.000  O
  O4       1.0000 0.83500  0.91879  0.06040  Biso   1.000  O
  Cu2      1.0000 0.00000  0.50000  0.50000  Biso   1.000  Cu
  O5       1.0000 0.15350  0.56163  0.49470  Biso   1.000  O
  O6       1.0000 0.84650  0.43837  0.50530  Biso   1.000  O
  C11      1.0000 0.36370  0.63180  0.43090  Biso   1.000  C
  C12      1.0000 0.63630  0.36820  0.56910  Biso   1.000  C
  F23      1.0000 0.48750  0.62930  0.36590  Biso   1.000  F
  F24      1.0000 0.51250  0.37070  0.63410  Biso   1.000  F
  F25      1.0000 0.35590  0.60050  0.53150  Biso   1.000  F
  F26      1.0000 0.64410  0.39950  0.46850  Biso   1.000  F
  F27      1.0000 0.32170  0.72300  0.44250  Biso   1.000  F
  F28      1.0000 0.67830  0.27700  0.55750  Biso   1.000  F
  F29      1.0000 0.40080  0.57740  0.50170  Biso   1.000  F
  F30      1.0000 0.59920  0.42260  0.49830  Biso   1.000  F
  F31      1.0000 0.47630  0.65150  0.33590  Biso   1.000  F
  F32      1.0000 0.52370  0.34850  0.66410  Biso   1.000  F
  C13      1.0000 0.26630  0.57420  0.41270  Biso   1.000  C
  C14      1.0000 0.73370  0.42580  0.58730  Biso   1.000  C
  C15      1.0000 0.30790  0.54200  0.31560  Biso   1.000  C
  C16      1.0000 0.69210  0.45800  0.68440  Biso   1.000  C
  H3       1.0000 0.39350  0.55950  0.26010  Biso   1.000  H
  H4       1.0000 0.60650  0.44050  0.73990  Biso   1.000  H
  C17      1.0000 0.22660  0.48430  0.29720  Biso   1.000  C
  C18      1.0000 0.77340  0.51570  0.70280  Biso   1.000  C
  C19      1.0000 0.28460  0.44830  0.18720  Biso   1.000  C
  C20      1.0000 0.71540  0.55170  0.81280  Biso   1.000  C
  F33      1.0000 0.34470  0.35540  0.19800  Biso   1.000  F
  F34      1.0000 0.65530  0.64460  0.80200  Biso   1.000  F
  F35      1.0000 0.38620  0.50180  0.10970  Biso   1.000  F
  F36      1.0000 0.61380  0.49820  0.89030  Biso   1.000  F
  F37      1.0000 0.19360  0.43260  0.15630  Biso   1.000  F
  F38      1.0000 0.80640  0.56740  0.84370  Biso   1.000  F
  F39      1.0000 0.20010  0.47740  0.14080  Biso   1.000  F
  F40      1.0000 0.79990  0.52260  0.85920  Biso   1.000  F
  F41      1.0000 0.30410  0.35460  0.19860  Biso   1.000  F
  F42      1.0000 0.69590  0.64540  0.80140  Biso   1.000  F
  O7       1.0000 0.10940  0.45508  0.36060  Biso   1.000  O
  O8       1.0000 0.89060  0.54492  0.63940  Biso   1.000  O
  O9       1.0000 0.91260  0.01890  0.18220  Biso   1.000  O
  O10      1.0000 0.08740  0.98110  0.81780  Biso   1.000  O
  N1       1.0000 0.98560  0.02630  0.23310  Biso   1.000  N
  N2       1.0000 0.01440  0.97370  0.76690  Biso   1.000  N
  C21      1.0000 0.00990  0.12720  0.24880  Biso   1.000  C
  C22      1.0000 0.99010  0.87280  0.75120  Biso   1.000  C
  C23      1.0000 0.04300  0.20840  0.14350  Biso   1.000  C
  C24      1.0000 0.95700  0.79160  0.85650  Biso   1.000  C
  H5       1.0000 0.96620  0.22010  0.12620  Biso   1.000  H
  H6       1.0000 0.03380  0.77990  0.87380  Biso   1.000  H
  H7       1.0000 0.11850  0.18520  0.08410  Biso   1.000  H
  H8       1.0000 0.88150  0.81480  0.91590  Biso   1.000  H
  H9       1.0000 0.06530  0.27130  0.15350  Biso   1.000  H
  H10      1.0000 0.93470  0.72870  0.84650  Biso   1.000  H
  C25      1.0000 0.87890  0.15620  0.34110  Biso   1.000  C
  C26      1.0000 0.12110  0.84380  0.65890  Biso   1.000  C
  H11      1.0000 0.80980  0.17310  0.31460  Biso   1.000  H
  H12      1.0000 0.19020  0.82690  0.68540  Biso   1.000  H
  H13      1.0000 0.89390  0.21450  0.36350  Biso   1.000  H
  H14      1.0000 0.10610  0.78550  0.63650  Biso   1.000  H
  H15      1.0000 0.85070  0.09910  0.40290  Biso   1.000  H
  H16      1.0000 0.14930  0.90090  0.59710  Biso   1.000  H
  C27      1.0000 0.12650  0.09620  0.28540  Biso   1.000  C
  C28      1.0000 0.87350  0.90380  0.71460  Biso   1.000  C
  C29      1.0000 0.26660  0.10280  0.19030  Biso   1.000  C
  C30      1.0000 0.73340  0.89720  0.80970  Biso   1.000  C
  H17      1.0000 0.33340  0.08480  0.21900  Biso   1.000  H
  H18      1.0000 0.66660  0.91520  0.78100  Biso   1.000  H
  H19      1.0000 0.28100  0.17170  0.14710  Biso   1.000  H
  H20      1.0000 0.71900  0.82830  0.85290  Biso   1.000  H
  H21      1.0000 0.27370  0.05610  0.14470  Biso   1.000  H
  H22      1.0000 0.72630  0.94390  0.85530  Biso   1.000  H
  C31      1.0000 0.12130  0.14780  0.37370  Biso   1.000  C
  C32      1.0000 0.87870  0.85220  0.62630  Biso   1.000  C
  H23      1.0000 0.19690  0.12460  0.39100  Biso   1.000  H
  H24      1.0000 0.80310  0.87540  0.60900  Biso   1.000  H
  H25      1.0000 0.03880  0.13040  0.43870  Biso   1.000  H
  H26      1.0000 0.96120  0.86960  0.56130  Biso   1.000  H
  H27      1.0000 0.12470  0.22100  0.34730  Biso   1.000  H
  H28      1.0000 0.87530  0.77900  0.65270  Biso   1.000  H
  N3       1.0000 0.10090  0.98380  0.33140  Biso   1.000  N
  N4       1.0000 0.89910  0.01620  0.66860  Biso   1.000  N
  O11      1.0000 0.15770  0.92950  0.39000  Biso   1.000  O
  O12      1.0000 0.84230  0.07050  0.61000  Biso   1.000  O
  C33      1.0000 0.02530  0.94670  0.29290  Biso   1.000  C
  C34      1.0000 0.97470  0.05330  0.70710  Biso   1.000  C
  C35      1.0000 0.99210  0.84140  0.31530  Biso   1.000  C
  C36      1.0000 0.00790  0.15860  0.68470  Biso   1.000  C
  C37      1.0000 0.02640  0.75610  0.38000  Biso   1.000  C
  C38      1.0000 0.97360  0.24390  0.62000  Biso   1.000  C
  H29      1.0000 0.08000  0.75920  0.41600  Biso   1.000  H
  H30      1.0000 0.92000  0.24080  0.58400  Biso   1.000  H
  N5       1.0000 0.97410  0.67050  0.38430  Biso   1.000  N
  N6       1.0000 0.02590  0.32950  0.61570  Biso   1.000  N
  N7       1.0000 0.90600  0.69980  0.31970  Biso   1.000  N
  N8       1.0000 0.09400  0.30020  0.68030  Biso   1.000  N
  C39      1.0000 0.83700  0.62480  0.30090  Biso   1.000  C
  C40      1.0000 0.16300  0.37520  0.69910  Biso   1.000  C
  H31      1.0000 0.84520  0.55800  0.34460  Biso   1.000  H
  H32      1.0000 0.15480  0.44200  0.65540  Biso   1.000  H
  H33      1.0000 0.74170  0.64330  0.32790  Biso   1.000  H
  H34      1.0000 0.25830  0.35670  0.67210  Biso   1.000  H
  C41      1.0000 0.88440  0.61530  0.18990  Biso   1.000  C
  C42      1.0000 0.11560  0.38470  0.81010  Biso   1.000  C
  H35      1.0000 0.98220  0.60960  0.15700  Biso   1.000  H
  H36      1.0000 0.01780  0.39040  0.84300  Biso   1.000  H
  H37      1.0000 0.85820  0.67600  0.14810  Biso   1.000  H
  H38      1.0000 0.14180  0.32400  0.85190  Biso   1.000  H
  C43      1.0000 0.82030  0.51320  0.18580  Biso   1.000  C
  C44      1.0000 0.17970  0.48680  0.81420  Biso   1.000  C
  H39      1.0000 0.88830  0.45910  0.16720  Biso   1.000  H
  H40      1.0000 0.11170  0.54090  0.83280  Biso   1.000  H
  H41      1.0000 0.74610  0.48740  0.25610  Biso   1.000  H
  H42      1.0000 0.25390  0.51260  0.74390  Biso   1.000  H
  C45      1.0000 0.77930  0.54520  0.11080  Biso   1.000  C
  C46      1.0000 0.22070  0.45480  0.88920  Biso   1.000  C
  H43      1.0000 0.74050  0.48940  0.10180  Biso   1.000  H
  H44      1.0000 0.25950  0.51060  0.89820  Biso   1.000  H
  H45      1.0000 0.85390  0.57190  0.04260  Biso   1.000  H
  H46      1.0000 0.14610  0.42810  0.95740  Biso   1.000  H
  H47      1.0000 0.71220  0.59860  0.13100  Biso   1.000  H
  H48      1.0000 0.28780  0.40140  0.86900  Biso   1.000  H
  C47      1.0000 0.91480  0.80040  0.27750  Biso   1.000  C
  C48      1.0000 0.08520  0.19960  0.72250  Biso   1.000  C
  H49      1.0000 0.87620  0.83670  0.23110  Biso   1.000  H
  H50      1.0000 0.12380  0.16330  0.76890  Biso   1.000  H
  C49      1.0000 0.50100  0.21910  0.37200  Biso   1.000  C
  C50      1.0000 0.49900  0.78090  0.62800  Biso   1.000  C
  C51      1.0000 0.44000  0.24140  0.38600  Biso   1.000  C
  C52      1.0000 0.56000  0.75860  0.61400  Biso   1.000  C
  C53      1.0000 0.49500  0.09900  0.39020  Biso   1.000  C
  C54      1.0000 0.50500  0.90100  0.60980  Biso   1.000  C
  C55      1.0000 0.46200  0.05600  0.51300  Biso   1.000  C
  C56      1.0000 0.53800  0.94400  0.48700  Biso   1.000  C
  C57      1.0000 0.51950  0.05820  0.48800  Biso   1.000  C
  C58      1.0000 0.48050  0.94180  0.51200  Biso   1.000  C
  C59      1.0000 0.38220  0.10400  0.50000  Biso   1.000  C
  C60      1.0000 0.61780  0.89600  0.50000  Biso   1.000  C
  C61      1.0000 0.41600  0.21860  0.46900  Biso   1.000  C
  C62      1.0000 0.58400  0.78140  0.53100  Biso   1.000  C
  C63      1.0000 0.49000  0.29620  0.36000  Biso   1.000  C
  C64      1.0000 0.51000  0.70380  0.64000  Biso   1.000  C
