data_image0
_cell_length_a       10.577
_cell_length_b       13.217
_cell_length_c       13.584
_cell_angle_alpha    98.705
_cell_angle_beta     112.082
_cell_angle_gamma    97.176

_symmetry_space_group_name_H-M    "P 1"
_symmetry_int_tables_number       1

loop_
  _symmetry_equiv_pos_as_xyz
  'x, y, z'

loop_
  _atom_site_label
  _atom_site_occupancy
  _atom_site_fract_x
  _atom_site_fract_y
  _atom_site_fract_z
  _atom_site_thermal_displace_type
  _atom_site_B_iso_or_equiv
  _atom_site_type_symbol
  Cu1      1.0000 0.50000  0.50000  0.00000  Biso   1.000  Cu
  O1       1.0000 0.38170  0.58456  0.05463  Biso   1.000  O
  O2       1.0000 0.61830  0.41544  0.94537  Biso   1.000  O
  C1       1.0000 0.23700  0.62590  0.14040  Biso   1.000  C
  C2       1.0000 0.76300  0.37410  0.85960  Biso   1.000  C
  F1       1.0000 0.32900  0.66660  0.23450  Biso   1.000  F
  F2       1.0000 0.67100  0.33340  0.76550  Biso   1.000  F
  F3       1.0000 0.21500  0.70570  0.09320  Biso   1.000  F
  F4       1.0000 0.78500  0.29430  0.90680  Biso   1.000  F
  F5       1.0000 0.12030  0.59260  0.14660  Biso   1.000  F
  F6       1.0000 0.87970  0.40740  0.85340  Biso   1.000  F
  C3       1.0000 0.28590  0.54530  0.07810  Biso   1.000  C
  C4       1.0000 0.71410  0.45470  0.92190  Biso   1.000  C
  C5       1.0000 0.22250  0.44130  0.05560  Biso   1.000  C
  C6       1.0000 0.77750  0.55870  0.94440  Biso   1.000  C
  H1       1.0000 0.14890  0.42320  0.07760  Biso   1.000  H
  H2       1.0000 0.85110  0.57680  0.92240  Biso   1.000  H
  C7       1.0000 0.26390  0.36290  0.00190  Biso   1.000  C
  C8       1.0000 0.73610  0.63710  0.99810  Biso   1.000  C
  C9       1.0000 0.18690  0.25030  0.97890  Biso   1.000  C
  C10      1.0000 0.81310  0.74970  0.02110  Biso   1.000  C
  F7       1.0000 0.27360  0.19120  0.02270  Biso   1.000  F
  F8       1.0000 0.72640  0.80880  0.97730  Biso   1.000  F
  F9       1.0000 0.12830  0.21044  0.87290  Biso   1.000  F
  F10      1.0000 0.87170  0.78956  0.12710  Biso   1.000  F
  F11      1.0000 0.08720  0.24021  0.01530  Biso   1.000  F
  F12      1.0000 0.91280  0.75979  0.98470  Biso   1.000  F
  O3       1.0000 0.35950  0.37124  0.96828  Biso   1.000  O
  O4       1.0000 0.64050  0.62876  0.03172  Biso   1.000  O
  Cu2      1.0000 0.00000  0.00000  0.50000  Biso   1.000  Cu
  O5       1.0000 0.99160  0.05140  0.36865  Biso   1.000  O
  O6       1.0000 0.00840  0.94860  0.63135  Biso   1.000  O
  C11      1.0000 0.02760  0.06720  0.21070  Biso   1.000  C
  C12      1.0000 0.97240  0.93280  0.78930  Biso   1.000  C
  F13      1.0000 0.10870  0.16011  0.23200  Biso   1.000  F
  F14      1.0000 0.89130  0.83989  0.76800  Biso   1.000  F
  F15      1.0000 0.89990  0.08220  0.16970  Biso   1.000  F
  F16      1.0000 0.10010  0.91780  0.83030  Biso   1.000  F
  F17      1.0000 0.04720  0.00558  0.13368  Biso   1.000  F
  F18      1.0000 0.95280  0.99442  0.86632  Biso   1.000  F
  C13      1.0000 0.06090  0.02540  0.31500  Biso   1.000  C
  C14      1.0000 0.93910  0.97460  0.68500  Biso   1.000  C
  C15      1.0000 0.16510  0.96670  0.34000  Biso   1.000  C
  C16      1.0000 0.83490  0.03330  0.66000  Biso   1.000  C
  H3       1.0000 0.20850  0.95240  0.29100  Biso   1.000  H
  H4       1.0000 0.79150  0.04760  0.70900  Biso   1.000  H
  C17      1.0000 0.20700  0.92860  0.43460  Biso   1.000  C
  C18      1.0000 0.79300  0.07140  0.56540  Biso   1.000  C
  C19      1.0000 0.32390  0.86660  0.45840  Biso   1.000  C
  C20      1.0000 0.67610  0.13340  0.54160  Biso   1.000  C
  F19      1.0000 0.41980  0.90160  0.55710  Biso   1.000  F
  F20      1.0000 0.58020  0.09840  0.44290  Biso   1.000  F
  F21      1.0000 0.27490  0.76815  0.45020  Biso   1.000  F
  F22      1.0000 0.72510  0.23185  0.54980  Biso   1.000  F
  F23      1.0000 0.38740  0.86940  0.39030  Biso   1.000  F
  F24      1.0000 0.61260  0.13060  0.60970  Biso   1.000  F
  O7       1.0000 0.15880  0.93656  0.50707  Biso   1.000  O
  O8       1.0000 0.84120  0.06344  0.49293  Biso   1.000  O
  O9       1.0000 0.58190  0.47965  0.17020  Biso   1.000  O
  O10      1.0000 0.41810  0.52035  0.82980  Biso   1.000  O
  N1       1.0000 0.70890  0.47015  0.22460  Biso   1.000  N
  N2       1.0000 0.29110  0.52985  0.77540  Biso   1.000  N
  C21      1.0000 0.74540  0.36620  0.24240  Biso   1.000  C
  C22      1.0000 0.25460  0.63380  0.75760  Biso   1.000  C
  C23      1.0000 0.67390  0.28330  0.13740  Biso   1.000  C
  C24      1.0000 0.32610  0.71670  0.86260  Biso   1.000  C
  H5       1.0000 0.57270  0.27490  0.11320  Biso   1.000  H
  H6       1.0000 0.42730  0.72510  0.88680  Biso   1.000  H
  H7       1.0000 0.70130  0.21670  0.15020  Biso   1.000  H
  H8       1.0000 0.29870  0.78330  0.84980  Biso   1.000  H
  H9       1.0000 0.70150  0.30480  0.08130  Biso   1.000  H
  H10      1.0000 0.29850  0.69520  0.91870  Biso   1.000  H
  C25      1.0000 0.69360  0.33890  0.32830  Biso   1.000  C
  C26      1.0000 0.30640  0.66110  0.67170  Biso   1.000  C
  H11      1.0000 0.59160  0.32530  0.29740  Biso   1.000  H
  H12      1.0000 0.40840  0.67470  0.70260  Biso   1.000  H
  H13      1.0000 0.72990  0.39750  0.39150  Biso   1.000  H
  H14      1.0000 0.27010  0.60250  0.60850  Biso   1.000  H
  H15      1.0000 0.72610  0.27660  0.35090  Biso   1.000  H
  H16      1.0000 0.27390  0.72340  0.64910  Biso   1.000  H
  C27      1.0000 0.90650  0.39560  0.28540  Biso   1.000  C
  C28      1.0000 0.09350  0.60440  0.71460  Biso   1.000  C
  C29      1.0000 0.98670  0.34210  0.37490  Biso   1.000  C
  C30      1.0000 0.01330  0.65790  0.62510  Biso   1.000  C
  H17      1.0000 0.08690  0.36380  0.39520  Biso   1.000  H
  H18      1.0000 0.91310  0.63620  0.60480  Biso   1.000  H
  H19      1.0000 0.95930  0.26610  0.34820  Biso   1.000  H
  H20      1.0000 0.04070  0.73390  0.65180  Biso   1.000  H
  H21      1.0000 0.96550  0.36190  0.43860  Biso   1.000  H
  H22      1.0000 0.03450  0.63810  0.56140  Biso   1.000  H
  C31      1.0000 0.96140  0.38680  0.19600  Biso   1.000  C
  C32      1.0000 0.03860  0.61320  0.80400  Biso   1.000  C
  H23      1.0000 0.06340  0.40080  0.22900  Biso   1.000  H
  H24      1.0000 0.93660  0.59920  0.77100  Biso   1.000  H
  H25      1.0000 0.92950  0.43770  0.15140  Biso   1.000  H
  H26      1.0000 0.07050  0.56230  0.84860  Biso   1.000  H
  H27      1.0000 0.92660  0.31620  0.15020  Biso   1.000  H
  H28      1.0000 0.07340  0.68380  0.84980  Biso   1.000  H
  N3       1.0000 0.93060  0.51062  0.33200  Biso   1.000  N
  N4       1.0000 0.06940  0.48938  0.66800  Biso   1.000  N
  O11      1.0000 0.05110  0.56452  0.39412  Biso   1.000  O
  O12      1.0000 0.94890  0.43548  0.60588  Biso   1.000  O
  C33      1.0000 0.81410  0.54990  0.28800  Biso   1.000  C
  C34      1.0000 0.18590  0.45010  0.71200  Biso   1.000  C
  C35      1.0000 0.80470  0.65760  0.30860  Biso   1.000  C
  C36      1.0000 0.19530  0.34240  0.69140  Biso   1.000  C
  C37      1.0000 0.90900  0.74360  0.37660  Biso   1.000  C
  C38      1.0000 0.09100  0.25640  0.62340  Biso   1.000  C
  H29      1.0000 0.00290  0.73960  0.41700  Biso   1.000  H
  H30      1.0000 0.99710  0.26040  0.58300  Biso   1.000  H
  N5       1.0000 0.85980  0.83150  0.37750  Biso   1.000  N
  N6       1.0000 0.14020  0.16850  0.62250  Biso   1.000  N
  N7       1.0000 0.72300  0.80226  0.30931  Biso   1.000  N
  N8       1.0000 0.27700  0.19774  0.69069  Biso   1.000  N
  C39      1.0000 0.63440  0.87940  0.28540  Biso   1.000  C
  C40      1.0000 0.36560  0.12060  0.71460  Biso   1.000  C
  H31      1.0000 0.54700  0.85410  0.29280  Biso   1.000  H
  H32      1.0000 0.45300  0.14590  0.70720  Biso   1.000  H
  H33      1.0000 0.68210  0.94530  0.34040  Biso   1.000  H
  H34      1.0000 0.31790  0.05470  0.65960  Biso   1.000  H
  C41      1.0000 0.59980  0.90150  0.17810  Biso   1.000  C
  C42      1.0000 0.40020  0.09850  0.82190  Biso   1.000  C
  H35      1.0000 0.53870  0.83870  0.12300  Biso   1.000  H
  H36      1.0000 0.46130  0.16130  0.87700  Biso   1.000  H
  H37      1.0000 0.68630  0.91600  0.16600  Biso   1.000  H
  H38      1.0000 0.31370  0.08400  0.83400  Biso   1.000  H
  C43      1.0000 0.52540  0.99560  0.16100  Biso   1.000  C
  C44      1.0000 0.47460  0.00440  0.83900  Biso   1.000  C
  H39      1.0000 0.56360  0.04940  0.22950  Biso   1.000  H
  H40      1.0000 0.43640  0.95060  0.77050  Biso   1.000  H
  H41      1.0000 0.54230  0.02710  0.10430  Biso   1.000  H
  H42      1.0000 0.45770  0.97290  0.89570  Biso   1.000  H
  C45      1.0000 0.38430  0.96270  0.12970  Biso   1.000  C
  C46      1.0000 0.61570  0.03730  0.87030  Biso   1.000  C
  H43      1.0000 0.34020  0.02350  0.13030  Biso   1.000  H
  H44      1.0000 0.65980  0.97650  0.86970  Biso   1.000  H
  H45      1.0000 0.36860  0.92240  0.18040  Biso   1.000  H
  H46      1.0000 0.63140  0.07760  0.81960  Biso   1.000  H
  H47      1.0000 0.34410  0.91860  0.05620  Biso   1.000  H
  H48      1.0000 0.65590  0.08140  0.94380  Biso   1.000  H
  C47      1.0000 0.68600  0.69950  0.26660  Biso   1.000  C
  C48      1.0000 0.31400  0.30050  0.73340  Biso   1.000  C
  H49      1.0000 0.59590  0.66220  0.21710  Biso   1.000  H
  H50      1.0000 0.40410  0.33780  0.78290  Biso   1.000  H
  C49      1.0000 0.39600  0.31300  0.50200  Biso   1.000  C
  C50      1.0000 0.60400  0.68700  0.49800  Biso   1.000  C
  H51      1.0000 0.30410  0.26910  0.46190  Biso   1.000  H
  H52      1.0000 0.69590  0.73090  0.53810  Biso   1.000  H
  H53      1.0000 0.46420  0.28060  0.48560  Biso   1.000  H
  H54      1.0000 0.53580  0.71940  0.51440  Biso   1.000  H
  H55      1.0000 0.41310  0.32150  0.57630  Biso   1.000  H
  H56      1.0000 0.58690  0.67850  0.42370  Biso   1.000  H
  C51      1.0000 0.41300  0.39290  0.43400  Biso   1.000  C
  C52      1.0000 0.58700  0.60710  0.56600  Biso   1.000  C
  H57      1.0000 0.31870  0.40260  0.41000  Biso   1.000  H
  H58      1.0000 0.68130  0.59740  0.59000  Biso   1.000  H
  H59      1.0000 0.43620  0.37290  0.37320  Biso   1.000  H
  H60      1.0000 0.56380  0.62710  0.62680  Biso   1.000  H
  C53      1.0000 0.50000  0.50000  0.50000  Biso   1.000  C
  H61      1.0000 0.58040  0.47840  0.54720  Biso   1.000  H
  H62      1.0000 0.41960  0.52160  0.45280  Biso   1.000  H
  H63      1.0000 0.45750  0.53360  0.54370  Biso   1.000  H
  H64      1.0000 0.54250  0.46640  0.45630  Biso   1.000  H
  C54      1.0000 0.45700  0.42200  0.55900  Biso   1.000  C
  C55      1.0000 0.54300  0.57800  0.44100  Biso   1.000  C
  H65      1.0000 0.53850  0.40970  0.61450  Biso   1.000  H
  H66      1.0000 0.46150  0.59030  0.38550  Biso   1.000  H
  H67      1.0000 0.40050  0.45070  0.59180  Biso   1.000  H
  H68      1.0000 0.59950  0.54930  0.40820  Biso   1.000  H
  C56      1.0000 0.39800  0.32800  0.46300  Biso   1.000  C
  C57      1.0000 0.60200  0.67200  0.53700  Biso   1.000  C
  H69      1.0000 0.39590  0.27130  0.50180  Biso   1.000  H
  H70      1.0000 0.60410  0.72870  0.49820  Biso   1.000  H
  H71      1.0000 0.39920  0.30030  0.39450  Biso   1.000  H
  H72      1.0000 0.60080  0.69970  0.60550  Biso   1.000  H
  H73      1.0000 0.31750  0.35650  0.45490  Biso   1.000  H
  H74      1.0000 0.68250  0.64350  0.54510  Biso   1.000  H
