data_image0
_cell_length_a       10.7789
_cell_length_b       13.2943
_cell_length_c       13.3103
_cell_angle_alpha    98.388
_cell_angle_beta     111.212
_cell_angle_gamma    97.299

_symmetry_space_group_name_H-M    "P 1"
_symmetry_int_tables_number       1

loop_
  _symmetry_equiv_pos_as_xyz
  'x, y, z'

loop_
  _atom_site_label
  _atom_site_occupancy
  _atom_site_fract_x
  _atom_site_fract_y
  _atom_site_fract_z
  _atom_site_thermal_displace_type
  _atom_site_B_iso_or_equiv
  _atom_site_type_symbol
  Cu1      1.0000 0.00000  0.00000  0.00000  Biso   1.000  Cu
  O1       1.0000 0.10870  0.91807  0.94245  Biso   1.000  O
  O2       1.0000 0.89130  0.08193  0.05755  Biso   1.000  O
  C1       1.0000 0.25660  0.87650  0.85970  Biso   1.000  C
  C2       1.0000 0.74340  0.12350  0.14030  Biso   1.000  C
  F1       1.0000 0.15080  0.82360  0.76530  Biso   1.000  F
  F2       1.0000 0.84920  0.17640  0.23470  Biso   1.000  F
  F3       1.0000 0.35130  0.90840  0.82990  Biso   1.000  F
  F4       1.0000 0.64870  0.09160  0.17010  Biso   1.000  F
  F5       1.0000 0.26830  0.78690  0.91270  Biso   1.000  F
  F6       1.0000 0.73170  0.21310  0.08730  Biso   1.000  F
  F7       1.0000 0.26770  0.80490  0.88720  Biso   1.000  F
  F8       1.0000 0.73230  0.19510  0.11280  Biso   1.000  F
  F9       1.0000 0.20880  0.87050  0.76010  Biso   1.000  F
  F10      1.0000 0.79120  0.12950  0.23990  Biso   1.000  F
  F11      1.0000 0.39170  0.90490  0.89200  Biso   1.000  F
  F12      1.0000 0.60830  0.09510  0.10800  Biso   1.000  F
  C3       1.0000 0.20580  0.95610  0.92090  Biso   1.000  C
  C4       1.0000 0.79420  0.04390  0.07910  Biso   1.000  C
  C5       1.0000 0.26760  0.05820  0.94370  Biso   1.000  C
  C6       1.0000 0.73240  0.94180  0.05630  Biso   1.000  C
  H1       1.0000 0.34230  0.07580  0.92340  Biso   1.000  H
  H2       1.0000 0.65770  0.92420  0.07660  Biso   1.000  H
  C7       1.0000 0.22460  0.13620  0.99510  Biso   1.000  C
  C8       1.0000 0.77540  0.86380  0.00490  Biso   1.000  C
  C9       1.0000 0.30040  0.24690  0.01840  Biso   1.000  C
  C10      1.0000 0.69960  0.75310  0.98160  Biso   1.000  C
  F13      1.0000 0.21930  0.30710  0.98170  Biso   1.000  F
  F14      1.0000 0.78070  0.69290  0.01830  Biso   1.000  F
  F15      1.0000 0.36310  0.28180  0.12320  Biso   1.000  F
  F16      1.0000 0.63690  0.71820  0.87680  Biso   1.000  F
  F17      1.0000 0.38090  0.25570  0.98770  Biso   1.000  F
  F18      1.0000 0.61910  0.74430  0.01230  Biso   1.000  F
  F19      1.0000 0.21930  0.30240  0.96130  Biso   1.000  F
  F20      1.0000 0.78070  0.69760  0.03870  Biso   1.000  F
  F21      1.0000 0.33780  0.29350  0.11920  Biso   1.000  F
  F22      1.0000 0.66220  0.70650  0.88080  Biso   1.000  F
  F23      1.0000 0.41090  0.25750  0.97870  Biso   1.000  F
  F24      1.0000 0.58910  0.74250  0.02130  Biso   1.000  F
  O3       1.0000 0.12890  0.12783  0.02686  Biso   1.000  O
  O4       1.0000 0.87110  0.87217  0.97314  Biso   1.000  O
  Cu2      1.0000 0.50000  0.50000  0.50000  Biso   1.000  Cu
  O5       1.0000 0.65230  0.43920  0.49780  Biso   1.000  O
  O6       1.0000 0.34770  0.56080  0.50220  Biso   1.000  O
  C11      1.0000 0.80530  0.37000  0.43800  Biso   1.000  C
  C12      1.0000 0.19470  0.63000  0.56200  Biso   1.000  C
  F25      1.0000 0.85760  0.36840  0.36360  Biso   1.000  F
  F26      1.0000 0.14240  0.63160  0.63640  Biso   1.000  F
  F27      1.0000 0.89720  0.39690  0.53970  Biso   1.000  F
  F28      1.0000 0.10280  0.60310  0.46030  Biso   1.000  F
  F29      1.0000 0.76590  0.27450  0.44050  Biso   1.000  F
  F30      1.0000 0.23410  0.72550  0.55950  Biso   1.000  F
  F31      1.0000 0.91000  0.42250  0.52120  Biso   1.000  F
  F32      1.0000 0.09000  0.57750  0.47880  Biso   1.000  F
  C13      1.0000 0.69020  0.42950  0.41920  Biso   1.000  C
  C14      1.0000 0.30980  0.57050  0.58080  Biso   1.000  C
  C15      1.0000 0.63940  0.46370  0.32240  Biso   1.000  C
  C16      1.0000 0.36060  0.53630  0.67760  Biso   1.000  C
  H3       1.0000 0.67570  0.44800  0.26800  Biso   1.000  H
  H4       1.0000 0.32430  0.55200  0.73200  Biso   1.000  H
  C17      1.0000 0.53750  0.52030  0.30190  Biso   1.000  C
  C18      1.0000 0.46250  0.47970  0.69810  Biso   1.000  C
  C19      1.0000 0.49060  0.55650  0.19230  Biso   1.000  C
  C20      1.0000 0.50940  0.44350  0.80770  Biso   1.000  C
  F33      1.0000 0.49650  0.49520  0.11260  Biso   1.000  F
  F34      1.0000 0.50350  0.50480  0.88740  Biso   1.000  F
  F35      1.0000 0.53280  0.63450  0.19530  Biso   1.000  F
  F36      1.0000 0.46720  0.36550  0.80470  Biso   1.000  F
  F37      1.0000 0.37060  0.57950  0.16340  Biso   1.000  F
  F38      1.0000 0.62940  0.42050  0.83660  Biso   1.000  F
  F39      1.0000 0.53460  0.51120  0.12250  Biso   1.000  F
  F40      1.0000 0.46540  0.48880  0.87750  Biso   1.000  F
  F41      1.0000 0.55820  0.66450  0.21330  Biso   1.000  F
  F42      1.0000 0.44180  0.33550  0.78670  Biso   1.000  F
  F43      1.0000 0.35410  0.52660  0.14410  Biso   1.000  F
  F44      1.0000 0.64590  0.47340  0.85590  Biso   1.000  F
  O7       1.0000 0.47760  0.54813  0.36250  Biso   1.000  O
  O8       1.0000 0.52240  0.45187  0.63750  Biso   1.000  O
  O9       1.0000 0.08980  0.98189  0.18270  Biso   1.000  O
  O10      1.0000 0.91020  0.01811  0.81730  Biso   1.000  O
  N1       1.0000 0.21400  0.97360  0.23350  Biso   1.000  N
  N2       1.0000 0.78600  0.02640  0.76650  Biso   1.000  N
  C21      1.0000 0.25250  0.87120  0.24990  Biso   1.000  C
  C22      1.0000 0.74750  0.12880  0.75010  Biso   1.000  C
  C23      1.0000 0.20830  0.84370  0.34080  Biso   1.000  C
  C24      1.0000 0.79170  0.15630  0.65920  Biso   1.000  C
  H5       1.0000 0.10900  0.82830  0.31320  Biso   1.000  H
  H6       1.0000 0.89100  0.17170  0.68680  Biso   1.000  H
  H7       1.0000 0.24390  0.90230  0.40400  Biso   1.000  H
  H8       1.0000 0.75610  0.09770  0.59600  Biso   1.000  H
  H9       1.0000 0.24360  0.78280  0.36380  Biso   1.000  H
  H10      1.0000 0.75640  0.21720  0.63620  Biso   1.000  H
  C25      1.0000 0.17930  0.78930  0.14510  Biso   1.000  C
  C26      1.0000 0.82070  0.21070  0.85490  Biso   1.000  C
  H11      1.0000 0.08160  0.77660  0.12860  Biso   1.000  H
  H12      1.0000 0.91840  0.22340  0.87140  Biso   1.000  H
  H13      1.0000 0.21310  0.72490  0.15490  Biso   1.000  H
  H14      1.0000 0.78690  0.27510  0.84510  Biso   1.000  H
  H15      1.0000 0.19570  0.81330  0.08400  Biso   1.000  H
  H16      1.0000 0.80430  0.18670  0.91600  Biso   1.000  H
  C27      1.0000 0.40760  0.90090  0.28630  Biso   1.000  C
  C28      1.0000 0.59240  0.09910  0.71370  Biso   1.000  C
  C29      1.0000 0.45500  0.89270  0.19150  Biso   1.000  C
  C30      1.0000 0.54500  0.10730  0.80850  Biso   1.000  C
  H17      1.0000 0.55430  0.91060  0.22080  Biso   1.000  H
  H18      1.0000 0.44570  0.08940  0.77920  Biso   1.000  H
  H19      1.0000 0.41690  0.94060  0.14470  Biso   1.000  H
  H20      1.0000 0.58310  0.05940  0.85530  Biso   1.000  H
  H21      1.0000 0.42430  0.82160  0.14790  Biso   1.000  H
  H22      1.0000 0.57570  0.17840  0.85210  Biso   1.000  H
  C31      1.0000 0.49010  0.84870  0.37430  Biso   1.000  C
  C32      1.0000 0.50990  0.15130  0.62570  Biso   1.000  C
  H23      1.0000 0.58670  0.86990  0.38950  Biso   1.000  H
  H24      1.0000 0.41330  0.13010  0.61050  Biso   1.000  H
  H25      1.0000 0.46290  0.77330  0.34870  Biso   1.000  H
  H26      1.0000 0.53710  0.22670  0.65130  Biso   1.000  H
  H27      1.0000 0.47420  0.86910  0.44170  Biso   1.000  H
  H28      1.0000 0.52580  0.13090  0.55830  Biso   1.000  H
  N3       1.0000 0.43110  0.01470  0.33250  Biso   1.000  N
  N4       1.0000 0.56890  0.98530  0.66750  Biso   1.000  N
  O11      1.0000 0.54840  0.06850  0.38930  Biso   1.000  O
  O12      1.0000 0.45160  0.93150  0.61070  Biso   1.000  O
  C33      1.0000 0.31620  0.05310  0.29260  Biso   1.000  C
  C34      1.0000 0.68380  0.94690  0.70740  Biso   1.000  C
  C35      1.0000 0.30670  0.15950  0.31300  Biso   1.000  C
  C36      1.0000 0.69330  0.84050  0.68700  Biso   1.000  C
  C37      1.0000 0.40820  0.24500  0.37880  Biso   1.000  C
  C38      1.0000 0.59180  0.75500  0.62120  Biso   1.000  C
  H29      1.0000 0.50010  0.24090  0.41750  Biso   1.000  H
  H30      1.0000 0.49990  0.75910  0.58250  Biso   1.000  H
  N5       1.0000 0.36130  0.33150  0.38090  Biso   1.000  N
  N6       1.0000 0.63870  0.66850  0.61910  Biso   1.000  N
  N7       1.0000 0.22710  0.30230  0.31460  Biso   1.000  N
  N8       1.0000 0.77290  0.69770  0.68540  Biso   1.000  N
  C39      1.0000 0.14070  0.37970  0.29480  Biso   1.000  C
  C40      1.0000 0.85930  0.62030  0.70520  Biso   1.000  C
  H31      1.0000 0.07100  0.36490  0.32570  Biso   1.000  H
  H32      1.0000 0.92900  0.63510  0.67430  Biso   1.000  H
  H33      1.0000 0.19700  0.44880  0.33540  Biso   1.000  H
  H34      1.0000 0.80300  0.55120  0.66460  Biso   1.000  H
  C41      1.0000 0.07440  0.38400  0.18280  Biso   1.000  C
  C42      1.0000 0.92560  0.61600  0.81720  Biso   1.000  C
  H35      1.0000 0.00290  0.32130  0.14400  Biso   1.000  H
  H36      1.0000 0.99710  0.67870  0.85600  Biso   1.000  H
  H37      1.0000 0.14040  0.38670  0.14690  Biso   1.000  H
  H38      1.0000 0.85960  0.61330  0.85310  Biso   1.000  H
  C43      1.0000 0.00590  0.48900  0.17550  Biso   1.000  C
  C44      1.0000 0.99410  0.51100  0.82450  Biso   1.000  C
  H39      1.0000 0.01680  0.52510  0.24950  Biso   1.000  H
  H40      1.0000 0.98320  0.47490  0.75050  Biso   1.000  H
  H41      1.0000 0.04830  0.53760  0.14210  Biso   1.000  H
  H42      1.0000 0.95170  0.46240  0.85790  Biso   1.000  H
  C45      1.0000 0.89650  0.45890  0.12220  Biso   1.000  C
  C46      1.0000 0.10350  0.54110  0.87780  Biso   1.000  C
  H43      1.0000 0.84870  0.51700  0.11260  Biso   1.000  H
  H44      1.0000 0.15130  0.48300  0.88740  Biso   1.000  H
  H45      1.0000 0.85640  0.41150  0.15710  Biso   1.000  H
  H46      1.0000 0.14360  0.58850  0.84290  Biso   1.000  H
  H47      1.0000 0.88830  0.42180  0.05010  Biso   1.000  H
  H48      1.0000 0.11170  0.57820  0.94990  Biso   1.000  H
  C47      1.0000 0.19190  0.20180  0.27430  Biso   1.000  C
  C48      1.0000 0.80810  0.79820  0.72570  Biso   1.000  C
  H49      1.0000 0.10340  0.16500  0.22700  Biso   1.000  H
  H50      1.0000 0.89660  0.83500  0.77300  Biso   1.000  H
  I1       1.0000 0.14958  0.24468  0.56410  Biso   1.000  I
  I2       1.0000 0.85042  0.75532  0.43590  Biso   1.000  I
  C49      1.0000 0.02110  0.11950  0.47700  Biso   1.000  C
  C50      1.0000 0.97890  0.88050  0.52300  Biso   1.000  C
  H51      1.0000 0.02630  0.10240  0.40600  Biso   1.000  H
  H52      1.0000 0.97370  0.89760  0.59400  Biso   1.000  H
  H53      1.0000 0.93220  0.13280  0.46860  Biso   1.000  H
  H54      1.0000 0.06780  0.86720  0.53140  Biso   1.000  H
  C51      1.0000 0.03200  0.02660  0.53090  Biso   1.000  C
  C52      1.0000 0.96800  0.97340  0.46910  Biso   1.000  C
  H55      1.0000 0.03400  0.04550  0.60400  Biso   1.000  H
  H56      1.0000 0.96600  0.95450  0.39600  Biso   1.000  H
  H57      1.0000 0.11780  0.00960  0.53400  Biso   1.000  H
  H58      1.0000 0.88220  0.99040  0.46600  Biso   1.000  H
  C53      1.0000 0.08910  0.05980  0.54400  Biso   1.000  C
  C54      1.0000 0.91090  0.94020  0.45600  Biso   1.000  C
  H59      1.0000 0.90500  0.92480  0.38110  Biso   1.000  H
  H60      1.0000 0.09500  0.07520  0.61890  Biso   1.000  H
  H61      1.0000 0.17390  0.04370  0.54340  Biso   1.000  H
  H62      1.0000 0.82610  0.95630  0.45660  Biso   1.000  H
  C55      1.0000 0.09460  0.17140  0.53550  Biso   1.000  C
  C56      1.0000 0.90540  0.82860  0.46450  Biso   1.000  C
  H63      1.0000 0.90070  0.83920  0.53610  Biso   1.000  H
  H64      1.0000 0.09930  0.16080  0.46390  Biso   1.000  H
  H65      1.0000 0.99240  0.81360  0.46880  Biso   1.000  H
  H66      1.0000 0.00760  0.18640  0.53120  Biso   1.000  H
  C57      1.0000 0.15990  0.23100  0.65160  Biso   1.000  C
  C58      1.0000 0.84010  0.76900  0.34840  Biso   1.000  C
  H67      1.0000 0.84930  0.70630  0.37540  Biso   1.000  H
  H68      1.0000 0.15070  0.29370  0.62460  Biso   1.000  H
  H69      1.0000 0.75380  0.78510  0.34490  Biso   1.000  H
  H70      1.0000 0.24620  0.21490  0.65510  Biso   1.000  H
  H71      1.0000 0.15410  0.24060  0.72280  Biso   1.000  H
  H72      1.0000 0.84590  0.75940  0.27720  Biso   1.000  H
