data_image0
_cell_length_a       9.103
_cell_length_b       18.4793
_cell_length_c       7.056
_cell_angle_alpha    90
_cell_angle_beta     92.287
_cell_angle_gamma    90

_symmetry_space_group_name_H-M    "P 1"
_symmetry_int_tables_number       1

loop_
  _symmetry_equiv_pos_as_xyz
  'x, y, z'

loop_
  _atom_site_label
  _atom_site_occupancy
  _atom_site_fract_x
  _atom_site_fract_y
  _atom_site_fract_z
  _atom_site_thermal_displace_type
  _atom_site_B_iso_or_equiv
  _atom_site_type_symbol
  Cu1      1.0000 0.51926  0.29435  0.21911  Biso   1.000  Cu
  Cu2      1.0000 0.48074  0.79435  0.28089  Biso   1.000  Cu
  Cu3      1.0000 0.48074  0.70565  0.78089  Biso   1.000  Cu
  Cu4      1.0000 0.51926  0.20565  0.71911  Biso   1.000  Cu
  N1       1.0000 0.38420  0.21021  0.18090  Biso   1.000  N
  N2       1.0000 0.61580  0.71021  0.31910  Biso   1.000  N
  N3       1.0000 0.61580  0.78979  0.81910  Biso   1.000  N
  N4       1.0000 0.38420  0.28979  0.68090  Biso   1.000  N
  N5       1.0000 0.34770  0.36293  0.15860  Biso   1.000  N
  N6       1.0000 0.65230  0.86293  0.34140  Biso   1.000  N
  N7       1.0000 0.65230  0.63707  0.84140  Biso   1.000  N
  N8       1.0000 0.34770  0.13707  0.65860  Biso   1.000  N
  C1       1.0000 0.23740  0.21101  0.18560  Biso   1.000  C
  C2       1.0000 0.76260  0.71101  0.31440  Biso   1.000  C
  C3       1.0000 0.76260  0.78899  0.81440  Biso   1.000  C
  C4       1.0000 0.23740  0.28899  0.68560  Biso   1.000  C
  N9       1.0000 0.62590  0.26170  0.93040  Biso   1.000  N
  N10      1.0000 0.37410  0.76170  0.56960  Biso   1.000  N
  N11      1.0000 0.37410  0.73830  0.06960  Biso   1.000  N
  N12      1.0000 0.62590  0.23830  0.43040  Biso   1.000  N
  N13      1.0000 0.75700  0.26988  0.92460  Biso   1.000  N
  N14      1.0000 0.24300  0.76988  0.57540  Biso   1.000  N
  N15      1.0000 0.24300  0.73012  0.07540  Biso   1.000  N
  N16      1.0000 0.75700  0.23012  0.42460  Biso   1.000  N
  C5       1.0000 0.20700  0.34643  0.18100  Biso   1.000  C
  C6       1.0000 0.79300  0.84643  0.31900  Biso   1.000  C
  C7       1.0000 0.79300  0.65357  0.81900  Biso   1.000  C
  C8       1.0000 0.20700  0.15357  0.68100  Biso   1.000  C
  N17      1.0000 0.16460  0.27552  0.20800  Biso   1.000  N
  N18      1.0000 0.83540  0.77552  0.29200  Biso   1.000  N
  N19      1.0000 0.83540  0.72448  0.79200  Biso   1.000  N
  N20      1.0000 0.16460  0.22448  0.70800  Biso   1.000  N
  H1       1.0000 0.07650  0.27080  0.24580  Biso   1.000  H
  H2       1.0000 0.92350  0.77080  0.25420  Biso   1.000  H
  H3       1.0000 0.92350  0.72920  0.75420  Biso   1.000  H
  H4       1.0000 0.07650  0.22920  0.74580  Biso   1.000  H
  N21      1.0000 0.73390  0.38862  0.37550  Biso   1.000  N
  N22      1.0000 0.26610  0.88862  0.12450  Biso   1.000  N
  N23      1.0000 0.26610  0.61138  0.62450  Biso   1.000  N
  N24      1.0000 0.73390  0.11138  0.87550  Biso   1.000  N
  N25      1.0000 0.66290  0.37338  0.23590  Biso   1.000  N
  N26      1.0000 0.33710  0.87338  0.26410  Biso   1.000  N
  N27      1.0000 0.33710  0.62662  0.76410  Biso   1.000  N
  N28      1.0000 0.66290  0.12662  0.73590  Biso   1.000  N
  C9       1.0000 0.15290  0.14814  0.17030  Biso   1.000  C
  C10      1.0000 0.84710  0.64814  0.32970  Biso   1.000  C
  C11      1.0000 0.84710  0.85186  0.82970  Biso   1.000  C
  C12      1.0000 0.15290  0.35186  0.67030  Biso   1.000  C
  H5       1.0000 0.05120  0.15040  0.17750  Biso   1.000  H
  H6       1.0000 0.94880  0.65040  0.32250  Biso   1.000  H
  H7       1.0000 0.94880  0.84960  0.82250  Biso   1.000  H
  H8       1.0000 0.05120  0.34960  0.67750  Biso   1.000  H
  N29      1.0000 0.88230  0.27808  0.92290  Biso   1.000  N
  N30      1.0000 0.11770  0.77808  0.57710  Biso   1.000  N
  N31      1.0000 0.11770  0.72192  0.07710  Biso   1.000  N
  N32      1.0000 0.88230  0.22192  0.42290  Biso   1.000  N
  C13      1.0000 0.22080  0.08363  0.14480  Biso   1.000  C
  C14      1.0000 0.77920  0.58363  0.35520  Biso   1.000  C
  C15      1.0000 0.77920  0.91637  0.85520  Biso   1.000  C
  C16      1.0000 0.22080  0.41637  0.64480  Biso   1.000  C
  H9       1.0000 0.16590  0.04140  0.13180  Biso   1.000  H
  H10      1.0000 0.83410  0.54140  0.36820  Biso   1.000  H
  H11      1.0000 0.83410  0.95860  0.86820  Biso   1.000  H
  H12      1.0000 0.16590  0.45860  0.63180  Biso   1.000  H
  C17      1.0000 0.37710  0.43387  0.12620  Biso   1.000  C
  C18      1.0000 0.62290  0.93387  0.37380  Biso   1.000  C
  C19      1.0000 0.62290  0.56613  0.87380  Biso   1.000  C
  C20      1.0000 0.37710  0.06613  0.62620  Biso   1.000  C
  H13      1.0000 0.47350  0.44630  0.10180  Biso   1.000  H
  H14      1.0000 0.52650  0.94630  0.39820  Biso   1.000  H
  H15      1.0000 0.52650  0.55370  0.89820  Biso   1.000  H
  H16      1.0000 0.47350  0.05370  0.60180  Biso   1.000  H
  C21      1.0000 0.09640  0.39920  0.18430  Biso   1.000  C
  C22      1.0000 0.90360  0.89920  0.31570  Biso   1.000  C
  C23      1.0000 0.90360  0.60080  0.81570  Biso   1.000  C
  C24      1.0000 0.09640  0.10080  0.68430  Biso   1.000  C
  H17      1.0000 0.99940  0.38600  0.20250  Biso   1.000  H
  H18      1.0000 0.00060  0.88600  0.29750  Biso   1.000  H
  H19      1.0000 0.00060  0.61400  0.79750  Biso   1.000  H
  H20      1.0000 0.99940  0.11400  0.70250  Biso   1.000  H
  C25      1.0000 0.44880  0.14468  0.15750  Biso   1.000  C
  C26      1.0000 0.55120  0.64468  0.34250  Biso   1.000  C
  C27      1.0000 0.55120  0.85532  0.84250  Biso   1.000  C
  C28      1.0000 0.44880  0.35532  0.65750  Biso   1.000  C
  H21      1.0000 0.55080  0.14300  0.15450  Biso   1.000  H
  H22      1.0000 0.44920  0.64300  0.34550  Biso   1.000  H
  H23      1.0000 0.44920  0.85700  0.84550  Biso   1.000  H
  H24      1.0000 0.55080  0.35700  0.65450  Biso   1.000  H
  C29      1.0000 0.37310  0.08135  0.13830  Biso   1.000  C
  C30      1.0000 0.62690  0.58135  0.36170  Biso   1.000  C
  C31      1.0000 0.62690  0.91865  0.86170  Biso   1.000  C
  C32      1.0000 0.37310  0.41865  0.63830  Biso   1.000  C
  H25      1.0000 0.42200  0.03780  0.12140  Biso   1.000  H
  H26      1.0000 0.57800  0.53780  0.37860  Biso   1.000  H
  H27      1.0000 0.57800  0.96220  0.87860  Biso   1.000  H
  H28      1.0000 0.42200  0.46220  0.62140  Biso   1.000  H
  C33      1.0000 0.13260  0.46960  0.16060  Biso   1.000  C
  C34      1.0000 0.86740  0.96960  0.33940  Biso   1.000  C
  C35      1.0000 0.86740  0.53040  0.83940  Biso   1.000  C
  C36      1.0000 0.13260  0.03040  0.66060  Biso   1.000  C
  H29      1.0000 0.06110  0.50530  0.16690  Biso   1.000  H
  H30      1.0000 0.93890  0.00530  0.33310  Biso   1.000  H
  H31      1.0000 0.93890  0.49470  0.83310  Biso   1.000  H
  H32      1.0000 0.06110  0.99470  0.66690  Biso   1.000  H
  C37      1.0000 0.27620  0.48798  0.12700  Biso   1.000  C
  C38      1.0000 0.72380  0.98798  0.37300  Biso   1.000  C
  C39      1.0000 0.72380  0.51202  0.87300  Biso   1.000  C
  C40      1.0000 0.27620  0.01202  0.62700  Biso   1.000  C
  H33      1.0000 0.30290  0.53580  0.10550  Biso   1.000  H
  H34      1.0000 0.69710  0.03580  0.39450  Biso   1.000  H
  H35      1.0000 0.69710  0.46420  0.89450  Biso   1.000  H
  H36      1.0000 0.30290  0.96420  0.60550  Biso   1.000  H
  N33      1.0000 0.80570  0.40508  0.50800  Biso   1.000  N
  N34      1.0000 0.19430  0.90508  0.99200  Biso   1.000  N
  N35      1.0000 0.19430  0.59492  0.49200  Biso   1.000  N
  N36      1.0000 0.80570  0.09492  0.00800  Biso   1.000  N
