data_image0
_cell_length_a       9.1089
_cell_length_b       18.3449
_cell_length_c       6.9901
_cell_angle_alpha    90
_cell_angle_beta     92.207
_cell_angle_gamma    90

_symmetry_space_group_name_H-M    "P 1"
_symmetry_int_tables_number       1

loop_
  _symmetry_equiv_pos_as_xyz
  'x, y, z'

loop_
  _atom_site_label
  _atom_site_occupancy
  _atom_site_fract_x
  _atom_site_fract_y
  _atom_site_fract_z
  _atom_site_thermal_displace_type
  _atom_site_B_iso_or_equiv
  _atom_site_type_symbol
  Cu1      1.0000 0.47999  0.29437  0.28083  Biso   1.000  Cu
  Cu2      1.0000 0.52001  0.79437  0.21917  Biso   1.000  Cu
  Cu3      1.0000 0.52001  0.70563  0.71917  Biso   1.000  Cu
  Cu4      1.0000 0.47999  0.20563  0.78083  Biso   1.000  Cu
  N1       1.0000 0.61480  0.20906  0.31780  Biso   1.000  N
  N2       1.0000 0.38520  0.70906  0.18220  Biso   1.000  N
  N3       1.0000 0.38520  0.79094  0.68220  Biso   1.000  N
  N4       1.0000 0.61480  0.29094  0.81780  Biso   1.000  N
  N5       1.0000 0.65220  0.36344  0.34190  Biso   1.000  N
  N6       1.0000 0.34780  0.86344  0.15810  Biso   1.000  N
  N7       1.0000 0.34780  0.63656  0.65810  Biso   1.000  N
  N8       1.0000 0.65220  0.13656  0.84190  Biso   1.000  N
  N9       1.0000 0.83550  0.27479  0.28710  Biso   1.000  N
  N10      1.0000 0.16450  0.77479  0.21290  Biso   1.000  N
  N11      1.0000 0.16450  0.72521  0.71290  Biso   1.000  N
  N12      1.0000 0.83550  0.22521  0.78710  Biso   1.000  N
  H1       1.0000 0.92500  0.26970  0.24590  Biso   1.000  H
  H2       1.0000 0.07500  0.76970  0.25410  Biso   1.000  H
  H3       1.0000 0.07500  0.73030  0.75410  Biso   1.000  H
  H4       1.0000 0.92500  0.23030  0.74590  Biso   1.000  H
  N13      1.0000 0.33710  0.37482  0.26250  Biso   1.000  N
  N14      1.0000 0.66290  0.87482  0.23750  Biso   1.000  N
  N15      1.0000 0.66290  0.62518  0.73750  Biso   1.000  N
  N16      1.0000 0.33710  0.12518  0.76250  Biso   1.000  N
  N17      1.0000 0.26420  0.38830  0.11940  Biso   1.000  N
  N18      1.0000 0.73580  0.88830  0.38060  Biso   1.000  N
  N19      1.0000 0.73580  0.61170  0.88060  Biso   1.000  N
  N20      1.0000 0.26420  0.11170  0.61940  Biso   1.000  N
  N21      1.0000 0.19220  0.40324  0.98470  Biso   1.000  N
  N22      1.0000 0.80780  0.90324  0.51530  Biso   1.000  N
  N23      1.0000 0.80780  0.59676  0.01530  Biso   1.000  N
  N24      1.0000 0.19220  0.09676  0.48470  Biso   1.000  N
  N25      1.0000 0.37237  0.23780  0.06780  Biso   1.000  N
  N26      1.0000 0.62763  0.73780  0.43220  Biso   1.000  N
  N27      1.0000 0.62763  0.76220  0.93220  Biso   1.000  N
  N28      1.0000 0.37237  0.26220  0.56780  Biso   1.000  N
  N29      1.0000 0.24070  0.23015  0.07360  Biso   1.000  N
  N30      1.0000 0.75930  0.73015  0.42640  Biso   1.000  N
  N31      1.0000 0.75930  0.76985  0.92640  Biso   1.000  N
  N32      1.0000 0.24070  0.26985  0.57360  Biso   1.000  N
  N33      1.0000 0.11580  0.22247  0.07520  Biso   1.000  N
  N34      1.0000 0.88420  0.72247  0.42480  Biso   1.000  N
  N35      1.0000 0.88420  0.77753  0.92480  Biso   1.000  N
  N36      1.0000 0.11580  0.27753  0.57520  Biso   1.000  N
  C1       1.0000 0.54930  0.14297  0.34190  Biso   1.000  C
  C2       1.0000 0.45070  0.64297  0.15810  Biso   1.000  C
  C3       1.0000 0.45070  0.85703  0.65810  Biso   1.000  C
  C4       1.0000 0.54930  0.35703  0.84190  Biso   1.000  C
  H5       1.0000 0.44510  0.14140  0.34480  Biso   1.000  H
  H6       1.0000 0.55490  0.64140  0.15520  Biso   1.000  H
  H7       1.0000 0.55490  0.85860  0.65520  Biso   1.000  H
  H8       1.0000 0.44510  0.35860  0.84480  Biso   1.000  H
  C5       1.0000 0.62450  0.07938  0.36200  Biso   1.000  C
  C6       1.0000 0.37550  0.57938  0.13800  Biso   1.000  C
  C7       1.0000 0.37550  0.92062  0.63800  Biso   1.000  C
  C8       1.0000 0.62450  0.42062  0.86200  Biso   1.000  C
  H9       1.0000 0.57420  0.03480  0.38160  Biso   1.000  H
  H10      1.0000 0.42580  0.53480  0.11840  Biso   1.000  H
  H11      1.0000 0.42580  0.96520  0.61840  Biso   1.000  H
  H12      1.0000 0.57420  0.46520  0.88160  Biso   1.000  H
  C9       1.0000 0.77840  0.08101  0.35310  Biso   1.000  C
  C10      1.0000 0.22160  0.58101  0.14690  Biso   1.000  C
  C11      1.0000 0.22160  0.91899  0.64690  Biso   1.000  C
  C12      1.0000 0.77840  0.41899  0.85310  Biso   1.000  C
  H13      1.0000 0.83400  0.03730  0.36470  Biso   1.000  H
  H14      1.0000 0.16600  0.53730  0.13530  Biso   1.000  H
  H15      1.0000 0.16600  0.96270  0.63530  Biso   1.000  H
  H16      1.0000 0.83400  0.46270  0.86470  Biso   1.000  H
  C13      1.0000 0.84680  0.14624  0.32760  Biso   1.000  C
  C14      1.0000 0.15320  0.64624  0.17240  Biso   1.000  C
  C15      1.0000 0.15320  0.85376  0.67240  Biso   1.000  C
  C16      1.0000 0.84680  0.35376  0.82760  Biso   1.000  C
  H17      1.0000 0.95070  0.14840  0.32070  Biso   1.000  H
  H18      1.0000 0.04930  0.64840  0.17930  Biso   1.000  H
  H19      1.0000 0.04930  0.85160  0.67930  Biso   1.000  H
  H20      1.0000 0.95070  0.35160  0.82070  Biso   1.000  H
  C17      1.0000 0.76210  0.21021  0.31140  Biso   1.000  C
  C18      1.0000 0.23790  0.71021  0.18860  Biso   1.000  C
  C19      1.0000 0.23790  0.78979  0.68860  Biso   1.000  C
  C20      1.0000 0.76210  0.28979  0.81140  Biso   1.000  C
  C21      1.0000 0.79420  0.34622  0.31550  Biso   1.000  C
  C22      1.0000 0.20580  0.84622  0.18450  Biso   1.000  C
  C23      1.0000 0.20580  0.65378  0.68450  Biso   1.000  C
  C24      1.0000 0.79420  0.15378  0.81550  Biso   1.000  C
  C25      1.0000 0.90540  0.39898  0.31240  Biso   1.000  C
  C26      1.0000 0.09460  0.89898  0.18760  Biso   1.000  C
  C27      1.0000 0.09460  0.60102  0.68760  Biso   1.000  C
  C28      1.0000 0.90540  0.10102  0.81240  Biso   1.000  C
  H21      1.0000 0.00420  0.38510  0.29310  Biso   1.000  H
  H22      1.0000 0.99580  0.88510  0.20690  Biso   1.000  H
  H23      1.0000 0.99580  0.61490  0.70690  Biso   1.000  H
  H24      1.0000 0.00420  0.11490  0.79310  Biso   1.000  H
  C29      1.0000 0.86950  0.47091  0.33750  Biso   1.000  C
  C30      1.0000 0.13050  0.97091  0.16250  Biso   1.000  C
  C31      1.0000 0.13050  0.52909  0.66250  Biso   1.000  C
  C32      1.0000 0.86950  0.02909  0.83750  Biso   1.000  C
  H25      1.0000 0.94250  0.50770  0.33010  Biso   1.000  H
  H26      1.0000 0.05750  0.00770  0.16990  Biso   1.000  H
  H27      1.0000 0.05750  0.49230  0.66990  Biso   1.000  H
  H28      1.0000 0.94250  0.99230  0.83010  Biso   1.000  H
  C33      1.0000 0.72450  0.48961  0.37420  Biso   1.000  C
  C34      1.0000 0.27550  0.98961  0.12580  Biso   1.000  C
  C35      1.0000 0.27550  0.51039  0.62580  Biso   1.000  C
  C36      1.0000 0.72450  0.01039  0.87420  Biso   1.000  C
  H29      1.0000 0.69750  0.53870  0.39770  Biso   1.000  H
  H30      1.0000 0.30250  0.03870  0.10230  Biso   1.000  H
  H31      1.0000 0.30250  0.46130  0.60230  Biso   1.000  H
  H32      1.0000 0.69750  0.96130  0.89770  Biso   1.000  H
  C37      1.0000 0.62250  0.43470  0.37520  Biso   1.000  C
  C38      1.0000 0.37750  0.93470  0.12480  Biso   1.000  C
  C39      1.0000 0.37750  0.56530  0.62480  Biso   1.000  C
  C40      1.0000 0.62250  0.06530  0.87520  Biso   1.000  C
  H33      1.0000 0.52410  0.44740  0.40110  Biso   1.000  H
  H34      1.0000 0.47590  0.94740  0.09890  Biso   1.000  H
  H35      1.0000 0.47590  0.55260  0.59890  Biso   1.000  H
  H36      1.0000 0.52410  0.05260  0.90110  Biso   1.000  H
