data_image0
_cell_length_a       9.7436
_cell_length_b       12.6106
_cell_length_c       7.7482
_cell_angle_alpha    90
_cell_angle_beta     90
_cell_angle_gamma    90

_symmetry_space_group_name_H-M    "P 1"
_symmetry_int_tables_number       1

loop_
  _symmetry_equiv_pos_as_xyz
  'x, y, z'

loop_
  _atom_site_label
  _atom_site_occupancy
  _atom_site_fract_x
  _atom_site_fract_y
  _atom_site_fract_z
  _atom_site_thermal_displace_type
  _atom_site_B_iso_or_equiv
  _atom_site_type_symbol
  Cu1      1.0000 0.50000  0.00000  0.25000  Biso   1.000  Cu
  Cu2      1.0000 0.00000  0.50000  0.75000  Biso   1.000  Cu
  Cu3      1.0000 0.50000  0.00000  0.75000  Biso   1.000  Cu
  Cu4      1.0000 0.00000  0.50000  0.25000  Biso   1.000  Cu
  N1       1.0000 0.36230  0.05350  0.08710  Biso   1.000  N
  N2       1.0000 0.86230  0.55350  0.58710  Biso   1.000  N
  N3       1.0000 0.63770  0.94650  0.08710  Biso   1.000  N
  N4       1.0000 0.13770  0.44650  0.58710  Biso   1.000  N
  N5       1.0000 0.86230  0.44650  0.91290  Biso   1.000  N
  N6       1.0000 0.36230  0.94650  0.41290  Biso   1.000  N
  N7       1.0000 0.13770  0.55350  0.91290  Biso   1.000  N
  N8       1.0000 0.63770  0.05350  0.41290  Biso   1.000  N
  N9       1.0000 0.63770  0.94650  0.91290  Biso   1.000  N
  N10      1.0000 0.13770  0.44650  0.41290  Biso   1.000  N
  N11      1.0000 0.36230  0.05350  0.91290  Biso   1.000  N
  N12      1.0000 0.86230  0.55350  0.41290  Biso   1.000  N
  N13      1.0000 0.13770  0.55350  0.08710  Biso   1.000  N
  N14      1.0000 0.63770  0.05350  0.58710  Biso   1.000  N
  N15      1.0000 0.86230  0.44650  0.08710  Biso   1.000  N
  N16      1.0000 0.36230  0.94650  0.58710  Biso   1.000  N
  C1       1.0000 0.25340  0.11040  0.13880  Biso   1.000  C
  C2       1.0000 0.75340  0.61040  0.63880  Biso   1.000  C
  C3       1.0000 0.74660  0.88960  0.13880  Biso   1.000  C
  C4       1.0000 0.24660  0.38960  0.63880  Biso   1.000  C
  C5       1.0000 0.75340  0.38960  0.86120  Biso   1.000  C
  C6       1.0000 0.25340  0.88960  0.36120  Biso   1.000  C
  C7       1.0000 0.24660  0.61040  0.86120  Biso   1.000  C
  C8       1.0000 0.74660  0.11040  0.36120  Biso   1.000  C
  C9       1.0000 0.74660  0.88960  0.86120  Biso   1.000  C
  C10      1.0000 0.24660  0.38960  0.36120  Biso   1.000  C
  C11      1.0000 0.25340  0.11040  0.86120  Biso   1.000  C
  C12      1.0000 0.75340  0.61040  0.36120  Biso   1.000  C
  C13      1.0000 0.24660  0.61040  0.13880  Biso   1.000  C
  C14      1.0000 0.74660  0.11040  0.63880  Biso   1.000  C
  C15      1.0000 0.75340  0.38960  0.13880  Biso   1.000  C
  C16      1.0000 0.25340  0.88960  0.63880  Biso   1.000  C
  C17      1.0000 0.18260  0.14930  0.00000  Biso   1.000  C
  C18      1.0000 0.68260  0.64930  0.50000  Biso   1.000  C
  C19      1.0000 0.81740  0.85070  0.00000  Biso   1.000  C
  C20      1.0000 0.31740  0.35070  0.50000  Biso   1.000  C
  C21      1.0000 0.68260  0.35070  0.00000  Biso   1.000  C
  C22      1.0000 0.18260  0.85070  0.50000  Biso   1.000  C
  C23      1.0000 0.31740  0.64930  0.00000  Biso   1.000  C
  C24      1.0000 0.81740  0.14930  0.50000  Biso   1.000  C
  C25      1.0000 0.05420  0.21650  0.00000  Biso   1.000  C
  C26      1.0000 0.55420  0.71650  0.50000  Biso   1.000  C
  C27      1.0000 0.94580  0.78350  0.00000  Biso   1.000  C
  C28      1.0000 0.44580  0.28350  0.50000  Biso   1.000  C
  C29      1.0000 0.55420  0.28350  0.00000  Biso   1.000  C
  C30      1.0000 0.05420  0.78350  0.50000  Biso   1.000  C
  C31      1.0000 0.44580  0.71650  0.00000  Biso   1.000  C
  C32      1.0000 0.94580  0.21650  0.50000  Biso   1.000  C
  H1       1.0000 0.24300  0.12500  0.25000  Biso   1.000  H
  H2       1.0000 0.74300  0.62500  0.75000  Biso   1.000  H
  H3       1.0000 0.75700  0.87500  0.25000  Biso   1.000  H
  H4       1.0000 0.25700  0.37500  0.75000  Biso   1.000  H
  H5       1.0000 0.74300  0.37500  0.75000  Biso   1.000  H
  H6       1.0000 0.24300  0.87500  0.25000  Biso   1.000  H
  H7       1.0000 0.25700  0.62500  0.75000  Biso   1.000  H
  H8       1.0000 0.75700  0.12500  0.25000  Biso   1.000  H
  H9       1.0000 0.75700  0.87500  0.75000  Biso   1.000  H
  H10      1.0000 0.25700  0.37500  0.25000  Biso   1.000  H
  H11      1.0000 0.24300  0.12500  0.75000  Biso   1.000  H
  H12      1.0000 0.74300  0.62500  0.25000  Biso   1.000  H
  H13      1.0000 0.25700  0.62500  0.25000  Biso   1.000  H
  H14      1.0000 0.75700  0.12500  0.75000  Biso   1.000  H
  H15      1.0000 0.74300  0.37500  0.25000  Biso   1.000  H
  H16      1.0000 0.24300  0.87500  0.75000  Biso   1.000  H
  H17      1.0000 0.07200  0.28310  0.06140  Biso   1.000  H
  H18      1.0000 0.57200  0.78310  0.56140  Biso   1.000  H
  H19      1.0000 0.92800  0.71690  0.06140  Biso   1.000  H
  H20      1.0000 0.42800  0.21690  0.56140  Biso   1.000  H
  H21      1.0000 0.57200  0.21690  0.93860  Biso   1.000  H
  H22      1.0000 0.07200  0.71690  0.43860  Biso   1.000  H
  H23      1.0000 0.42800  0.78310  0.93860  Biso   1.000  H
  H24      1.0000 0.92800  0.28310  0.43860  Biso   1.000  H
  H25      1.0000 0.92800  0.71690  0.93860  Biso   1.000  H
  H26      1.0000 0.42800  0.21690  0.43860  Biso   1.000  H
  H27      1.0000 0.07200  0.28310  0.93860  Biso   1.000  H
  H28      1.0000 0.57200  0.78310  0.43860  Biso   1.000  H
  H29      1.0000 0.42800  0.78310  0.06140  Biso   1.000  H
  H30      1.0000 0.92800  0.28310  0.56140  Biso   1.000  H
  H31      1.0000 0.57200  0.21690  0.06140  Biso   1.000  H
  H32      1.0000 0.07200  0.71690  0.56140  Biso   1.000  H
  H33      1.0000 0.02740  0.23210  0.88080  Biso   1.000  H
  H34      1.0000 0.52740  0.73210  0.38080  Biso   1.000  H
  H35      1.0000 0.97260  0.76790  0.88080  Biso   1.000  H
  H36      1.0000 0.47260  0.26790  0.38080  Biso   1.000  H
  H37      1.0000 0.52740  0.26790  0.11920  Biso   1.000  H
  H38      1.0000 0.02740  0.76790  0.61920  Biso   1.000  H
  H39      1.0000 0.47260  0.73210  0.11920  Biso   1.000  H
  H40      1.0000 0.97260  0.23210  0.61920  Biso   1.000  H
  H41      1.0000 0.97260  0.76790  0.11920  Biso   1.000  H
  H42      1.0000 0.47260  0.26790  0.61920  Biso   1.000  H
  H43      1.0000 0.02740  0.23210  0.11920  Biso   1.000  H
  H44      1.0000 0.52740  0.73210  0.61920  Biso   1.000  H
  H45      1.0000 0.47260  0.73210  0.88080  Biso   1.000  H
  H46      1.0000 0.97260  0.23210  0.38080  Biso   1.000  H
  H47      1.0000 0.52740  0.26790  0.88080  Biso   1.000  H
  H48      1.0000 0.02740  0.76790  0.38080  Biso   1.000  H
  H49      1.0000 0.97990  0.17800  0.05780  Biso   1.000  H
  H50      1.0000 0.47990  0.67800  0.55780  Biso   1.000  H
  H51      1.0000 0.02010  0.82200  0.05780  Biso   1.000  H
  H52      1.0000 0.52010  0.32200  0.55780  Biso   1.000  H
  H53      1.0000 0.47990  0.32200  0.94220  Biso   1.000  H
  H54      1.0000 0.97990  0.82200  0.44220  Biso   1.000  H
  H55      1.0000 0.52010  0.67800  0.94220  Biso   1.000  H
  H56      1.0000 0.02010  0.17800  0.44220  Biso   1.000  H
  H57      1.0000 0.02010  0.82200  0.94220  Biso   1.000  H
  H58      1.0000 0.52010  0.32200  0.44220  Biso   1.000  H
  H59      1.0000 0.97990  0.17800  0.94220  Biso   1.000  H
  H60      1.0000 0.47990  0.67800  0.44220  Biso   1.000  H
  H61      1.0000 0.52010  0.67800  0.05780  Biso   1.000  H
  H62      1.0000 0.02010  0.17800  0.55780  Biso   1.000  H
  H63      1.0000 0.47990  0.32200  0.05780  Biso   1.000  H
  H64      1.0000 0.97990  0.82200  0.55780  Biso   1.000  H
