data_image0
_cell_length_a       9.155
_cell_length_b       12.968
_cell_length_c       7.717
_cell_angle_alpha    90
_cell_angle_beta     90
_cell_angle_gamma    90

_symmetry_space_group_name_H-M    "P 1"
_symmetry_int_tables_number       1

loop_
  _symmetry_equiv_pos_as_xyz
  'x, y, z'

loop_
  _atom_site_label
  _atom_site_occupancy
  _atom_site_fract_x
  _atom_site_fract_y
  _atom_site_fract_z
  _atom_site_thermal_displace_type
  _atom_site_B_iso_or_equiv
  _atom_site_type_symbol
  Cu1      1.0000 0.50000  0.00000  0.25000  Biso   1.000  Cu
  Cu2      1.0000 0.00000  0.50000  0.75000  Biso   1.000  Cu
  Cu3      1.0000 0.50000  0.00000  0.75000  Biso   1.000  Cu
  Cu4      1.0000 0.00000  0.50000  0.25000  Biso   1.000  Cu
  Cl1      1.0000 0.01970  0.22790  0.00000  Biso   1.000  Cl
  Cl2      1.0000 0.51970  0.72790  0.50000  Biso   1.000  Cl
  Cl3      1.0000 0.98030  0.77210  0.00000  Biso   1.000  Cl
  Cl4      1.0000 0.51970  0.27210  0.00000  Biso   1.000  Cl
  Cl5      1.0000 0.48030  0.27210  0.50000  Biso   1.000  Cl
  Cl6      1.0000 0.01970  0.77210  0.50000  Biso   1.000  Cl
  Cl7      1.0000 0.48030  0.72790  0.00000  Biso   1.000  Cl
  Cl8      1.0000 0.98030  0.22790  0.50000  Biso   1.000  Cl
  N1       1.0000 0.35180  0.05080  0.08760  Biso   1.000  N
  N2       1.0000 0.85180  0.55080  0.58760  Biso   1.000  N
  N3       1.0000 0.64820  0.94920  0.08760  Biso   1.000  N
  N4       1.0000 0.85180  0.44920  0.91240  Biso   1.000  N
  N5       1.0000 0.14820  0.44920  0.58760  Biso   1.000  N
  N6       1.0000 0.35180  0.94920  0.41240  Biso   1.000  N
  N7       1.0000 0.14820  0.55080  0.91240  Biso   1.000  N
  N8       1.0000 0.64820  0.05080  0.41240  Biso   1.000  N
  N9       1.0000 0.64820  0.94920  0.91240  Biso   1.000  N
  N10      1.0000 0.14820  0.44920  0.41240  Biso   1.000  N
  N11      1.0000 0.35180  0.05080  0.91240  Biso   1.000  N
  N12      1.0000 0.14820  0.55080  0.08760  Biso   1.000  N
  N13      1.0000 0.85180  0.55080  0.41240  Biso   1.000  N
  N14      1.0000 0.64820  0.05080  0.58760  Biso   1.000  N
  N15      1.0000 0.85180  0.44920  0.08760  Biso   1.000  N
  N16      1.0000 0.35180  0.94920  0.58760  Biso   1.000  N
  C1       1.0000 0.24010  0.10940  0.14000  Biso   1.000  C
  C2       1.0000 0.74010  0.60940  0.64000  Biso   1.000  C
  C3       1.0000 0.75990  0.89060  0.14000  Biso   1.000  C
  C4       1.0000 0.74010  0.39060  0.86000  Biso   1.000  C
  C5       1.0000 0.25990  0.39060  0.64000  Biso   1.000  C
  C6       1.0000 0.24010  0.89060  0.36000  Biso   1.000  C
  C7       1.0000 0.25990  0.60940  0.86000  Biso   1.000  C
  C8       1.0000 0.75990  0.10940  0.36000  Biso   1.000  C
  C9       1.0000 0.75990  0.89060  0.86000  Biso   1.000  C
  C10      1.0000 0.25990  0.39060  0.36000  Biso   1.000  C
  C11      1.0000 0.24010  0.10940  0.86000  Biso   1.000  C
  C12      1.0000 0.25990  0.60940  0.14000  Biso   1.000  C
  C13      1.0000 0.74010  0.60940  0.36000  Biso   1.000  C
  C14      1.0000 0.75990  0.10940  0.64000  Biso   1.000  C
  C15      1.0000 0.74010  0.39060  0.14000  Biso   1.000  C
  C16      1.0000 0.24010  0.89060  0.64000  Biso   1.000  C
  C17      1.0000 0.16800  0.14850  0.00000  Biso   1.000  C
  C18      1.0000 0.66800  0.64850  0.50000  Biso   1.000  C
  C19      1.0000 0.83200  0.85150  0.00000  Biso   1.000  C
  C20      1.0000 0.66800  0.35150  0.00000  Biso   1.000  C
  C21      1.0000 0.33200  0.35150  0.50000  Biso   1.000  C
  C22      1.0000 0.16800  0.85150  0.50000  Biso   1.000  C
  C23      1.0000 0.33200  0.64850  0.00000  Biso   1.000  C
  C24      1.0000 0.83200  0.14850  0.50000  Biso   1.000  C
  H1       1.0000 0.21380  0.12240  0.26080  Biso   1.000  H
  H2       1.0000 0.71380  0.62240  0.76080  Biso   1.000  H
  H3       1.0000 0.78620  0.87760  0.26080  Biso   1.000  H
  H4       1.0000 0.71380  0.37760  0.73920  Biso   1.000  H
  H5       1.0000 0.28620  0.37760  0.76080  Biso   1.000  H
  H6       1.0000 0.21380  0.87760  0.23920  Biso   1.000  H
  H7       1.0000 0.28620  0.62240  0.73920  Biso   1.000  H
  H8       1.0000 0.78620  0.12240  0.23920  Biso   1.000  H
  H9       1.0000 0.78620  0.87760  0.73920  Biso   1.000  H
  H10      1.0000 0.28620  0.37760  0.23920  Biso   1.000  H
  H11      1.0000 0.21380  0.12240  0.73920  Biso   1.000  H
  H12      1.0000 0.28620  0.62240  0.26080  Biso   1.000  H
  H13      1.0000 0.71380  0.62240  0.23920  Biso   1.000  H
  H14      1.0000 0.78620  0.12240  0.76080  Biso   1.000  H
  H15      1.0000 0.71380  0.37760  0.26080  Biso   1.000  H
  H16      1.0000 0.21380  0.87760  0.76080  Biso   1.000  H
