data_image0
_cell_length_a       13.1767
_cell_length_b       9.7141
_cell_length_c       25.671
_cell_angle_alpha    90
_cell_angle_beta     90
_cell_angle_gamma    90

_symmetry_space_group_name_H-M    "P 1"
_symmetry_int_tables_number       1

loop_
  _symmetry_equiv_pos_as_xyz
  'x, y, z'

loop_
  _atom_site_label
  _atom_site_occupancy
  _atom_site_fract_x
  _atom_site_fract_y
  _atom_site_fract_z
  _atom_site_thermal_displace_type
  _atom_site_B_iso_or_equiv
  _atom_site_type_symbol
  Cu1      1.0000 0.38889  0.10026  0.26152  Biso   1.000  Cu
  Cu2      1.0000 0.11111  0.89974  0.76152  Biso   1.000  Cu
  Cu3      1.0000 0.61111  0.60026  0.23848  Biso   1.000  Cu
  Cu4      1.0000 0.88889  0.39974  0.73848  Biso   1.000  Cu
  Cu5      1.0000 0.61111  0.89974  0.73848  Biso   1.000  Cu
  Cu6      1.0000 0.88889  0.10026  0.23848  Biso   1.000  Cu
  Cu7      1.0000 0.38889  0.39974  0.76152  Biso   1.000  Cu
  Cu8      1.0000 0.11111  0.60026  0.26152  Biso   1.000  Cu
  O1       1.0000 0.35322  0.05290  0.19205  Biso   1.000  O
  O2       1.0000 0.14678  0.94710  0.69205  Biso   1.000  O
  O3       1.0000 0.64678  0.55290  0.30795  Biso   1.000  O
  O4       1.0000 0.85322  0.44710  0.80795  Biso   1.000  O
  O5       1.0000 0.64678  0.94710  0.80795  Biso   1.000  O
  O6       1.0000 0.85322  0.05290  0.30795  Biso   1.000  O
  O7       1.0000 0.35322  0.44710  0.69205  Biso   1.000  O
  O8       1.0000 0.14678  0.55290  0.19205  Biso   1.000  O
  O9       1.0000 0.25590  0.02120  0.09846  Biso   1.000  O
  O10      1.0000 0.24410  0.97880  0.59846  Biso   1.000  O
  O11      1.0000 0.74410  0.52120  0.40154  Biso   1.000  O
  O12      1.0000 0.75590  0.47880  0.90154  Biso   1.000  O
  O13      1.0000 0.74410  0.97880  0.90154  Biso   1.000  O
  O14      1.0000 0.75590  0.02120  0.40154  Biso   1.000  O
  O15      1.0000 0.25590  0.47880  0.59846  Biso   1.000  O
  O16      1.0000 0.24410  0.52120  0.09846  Biso   1.000  O
  N1       1.0000 0.52536  0.15710  0.24267  Biso   1.000  N
  N2       1.0000 0.97464  0.84290  0.74267  Biso   1.000  N
  N3       1.0000 0.47464  0.65710  0.25733  Biso   1.000  N
  N4       1.0000 0.02536  0.34290  0.75733  Biso   1.000  N
  N5       1.0000 0.47464  0.84290  0.75733  Biso   1.000  N
  N6       1.0000 0.02536  0.15710  0.25733  Biso   1.000  N
  N7       1.0000 0.52536  0.34290  0.74267  Biso   1.000  N
  N8       1.0000 0.97464  0.65710  0.24267  Biso   1.000  N
  N9       1.0000 0.43174  0.15440  0.33662  Biso   1.000  N
  N10      1.0000 0.06826  0.84560  0.83662  Biso   1.000  N
  N11      1.0000 0.56826  0.65440  0.16338  Biso   1.000  N
  N12      1.0000 0.93174  0.34560  0.66338  Biso   1.000  N
  N13      1.0000 0.56826  0.84560  0.66338  Biso   1.000  N
  N14      1.0000 0.93174  0.15440  0.16338  Biso   1.000  N
  N15      1.0000 0.43174  0.34560  0.83662  Biso   1.000  N
  N16      1.0000 0.06826  0.65440  0.33662  Biso   1.000  N
  N17      1.0000 0.26880  0.00420  0.28872  Biso   1.000  N
  N18      1.0000 0.23120  0.99580  0.78872  Biso   1.000  N
  N19      1.0000 0.73120  0.50420  0.21128  Biso   1.000  N
  N20      1.0000 0.76880  0.49580  0.71128  Biso   1.000  N
  N21      1.0000 0.73120  0.99580  0.71128  Biso   1.000  N
  N22      1.0000 0.76880  0.00420  0.21128  Biso   1.000  N
  N23      1.0000 0.26880  0.49580  0.78872  Biso   1.000  N
  N24      1.0000 0.23120  0.50420  0.28872  Biso   1.000  N
  N25      1.0000 0.21678  0.92920  0.26374  Biso   1.000  N
  N26      1.0000 0.28322  0.07080  0.76374  Biso   1.000  N
  N27      1.0000 0.78322  0.42920  0.23626  Biso   1.000  N
  N28      1.0000 0.71678  0.57080  0.73626  Biso   1.000  N
  N29      1.0000 0.78322  0.07080  0.73626  Biso   1.000  N
  N30      1.0000 0.71678  0.92920  0.23626  Biso   1.000  N
  N31      1.0000 0.21678  0.57080  0.76374  Biso   1.000  N
  N32      1.0000 0.28322  0.42920  0.26374  Biso   1.000  N
  N33      1.0000 0.16250  0.85550  0.24170  Biso   1.000  N
  N34      1.0000 0.33750  0.14450  0.74170  Biso   1.000  N
  N35      1.0000 0.83750  0.35550  0.25830  Biso   1.000  N
  N36      1.0000 0.66250  0.64450  0.75830  Biso   1.000  N
  N37      1.0000 0.83750  0.14450  0.75830  Biso   1.000  N
  N38      1.0000 0.66250  0.85550  0.25830  Biso   1.000  N
  N39      1.0000 0.16250  0.64450  0.74170  Biso   1.000  N
  N40      1.0000 0.33750  0.35550  0.24170  Biso   1.000  N
  C1       1.0000 0.50360  0.13820  0.14944  Biso   1.000  C
  C2       1.0000 0.99640  0.86180  0.64944  Biso   1.000  C
  C3       1.0000 0.49640  0.63820  0.35056  Biso   1.000  C
  C4       1.0000 0.00360  0.36180  0.85056  Biso   1.000  C
  C5       1.0000 0.49640  0.86180  0.85056  Biso   1.000  C
  C6       1.0000 0.00360  0.13820  0.35056  Biso   1.000  C
  C7       1.0000 0.50360  0.36180  0.64944  Biso   1.000  C
  C8       1.0000 0.99640  0.63820  0.14944  Biso   1.000  C
  C9       1.0000 0.40370  0.08300  0.15011  Biso   1.000  C
  C10      1.0000 0.09630  0.91700  0.65011  Biso   1.000  C
  C11      1.0000 0.59630  0.58300  0.34989  Biso   1.000  C
  C12      1.0000 0.90370  0.41700  0.84989  Biso   1.000  C
  C13      1.0000 0.59630  0.91700  0.84989  Biso   1.000  C
  C14      1.0000 0.90370  0.08300  0.34989  Biso   1.000  C
  C15      1.0000 0.40370  0.41700  0.65011  Biso   1.000  C
  C16      1.0000 0.09630  0.58300  0.15011  Biso   1.000  C
  C17      1.0000 0.35730  0.06040  0.10074  Biso   1.000  C
  C18      1.0000 0.14270  0.93960  0.60074  Biso   1.000  C
  C19      1.0000 0.64270  0.56040  0.39926  Biso   1.000  C
  C20      1.0000 0.85730  0.43960  0.89926  Biso   1.000  C
  C21      1.0000 0.64270  0.93960  0.89926  Biso   1.000  C
  C22      1.0000 0.85730  0.06040  0.39926  Biso   1.000  C
  C23      1.0000 0.35730  0.43960  0.60074  Biso   1.000  C
  C24      1.0000 0.14270  0.56040  0.10074  Biso   1.000  C
  C25      1.0000 0.40820  0.08480  0.05503  Biso   1.000  C
  C26      1.0000 0.09180  0.91520  0.55503  Biso   1.000  C
  C27      1.0000 0.59180  0.58480  0.44497  Biso   1.000  C
  C28      1.0000 0.90820  0.41520  0.94497  Biso   1.000  C
  C29      1.0000 0.59180  0.91520  0.94497  Biso   1.000  C
  C30      1.0000 0.90820  0.08480  0.44497  Biso   1.000  C
  C31      1.0000 0.40820  0.41520  0.55503  Biso   1.000  C
  C32      1.0000 0.09180  0.58480  0.05503  Biso   1.000  C
  H1       1.0000 0.37640  0.06650  0.02340  Biso   1.000  H
  H2       1.0000 0.12360  0.93350  0.52340  Biso   1.000  H
  H3       1.0000 0.62360  0.56650  0.47660  Biso   1.000  H
  H4       1.0000 0.87640  0.43350  0.97660  Biso   1.000  H
  H5       1.0000 0.62360  0.93350  0.97660  Biso   1.000  H
  H6       1.0000 0.87640  0.06650  0.47660  Biso   1.000  H
  H7       1.0000 0.37640  0.43350  0.52340  Biso   1.000  H
  H8       1.0000 0.12360  0.56650  0.02340  Biso   1.000  H
  C33      1.0000 0.50620  0.13650  0.05540  Biso   1.000  C
  C34      1.0000 0.99380  0.86350  0.55540  Biso   1.000  C
  C35      1.0000 0.49380  0.63650  0.44460  Biso   1.000  C
  C36      1.0000 0.00620  0.36350  0.94460  Biso   1.000  C
  C37      1.0000 0.49380  0.86350  0.94460  Biso   1.000  C
  C38      1.0000 0.00620  0.13650  0.44460  Biso   1.000  C
  C39      1.0000 0.50620  0.36350  0.55540  Biso   1.000  C
  C40      1.0000 0.99380  0.63650  0.05540  Biso   1.000  C
  H9       1.0000 0.54010  0.15270  0.02420  Biso   1.000  H
  H10      1.0000 0.95990  0.84730  0.52420  Biso   1.000  H
  H11      1.0000 0.45990  0.65270  0.47580  Biso   1.000  H
  H12      1.0000 0.04010  0.34730  0.97580  Biso   1.000  H
  H13      1.0000 0.45990  0.84730  0.97580  Biso   1.000  H
  H14      1.0000 0.04010  0.15270  0.47580  Biso   1.000  H
  H15      1.0000 0.54010  0.34730  0.52420  Biso   1.000  H
  H16      1.0000 0.95990  0.65270  0.02420  Biso   1.000  H
  C41      1.0000 0.55250  0.16320  0.10162  Biso   1.000  C
  C42      1.0000 0.94750  0.83680  0.60162  Biso   1.000  C
  C43      1.0000 0.44750  0.66320  0.39838  Biso   1.000  C
  C44      1.0000 0.05250  0.33680  0.89838  Biso   1.000  C
  C45      1.0000 0.44750  0.83680  0.89838  Biso   1.000  C
  C46      1.0000 0.05250  0.16320  0.39838  Biso   1.000  C
  C47      1.0000 0.55250  0.33680  0.60162  Biso   1.000  C
  C48      1.0000 0.94750  0.66320  0.10162  Biso   1.000  C
  H17      1.0000 0.61800  0.19900  0.10170  Biso   1.000  H
  H18      1.0000 0.88200  0.80100  0.60170  Biso   1.000  H
  H19      1.0000 0.38200  0.69900  0.39830  Biso   1.000  H
  H20      1.0000 0.11800  0.30100  0.89830  Biso   1.000  H
  H21      1.0000 0.38200  0.80100  0.89830  Biso   1.000  H
  H22      1.0000 0.11800  0.19900  0.39830  Biso   1.000  H
  H23      1.0000 0.61800  0.30100  0.60170  Biso   1.000  H
  H24      1.0000 0.88200  0.69900  0.10170  Biso   1.000  H
  C49      1.0000 0.55820  0.17140  0.19620  Biso   1.000  C
  C50      1.0000 0.94180  0.82860  0.69620  Biso   1.000  C
  C51      1.0000 0.44180  0.67140  0.30380  Biso   1.000  C
  C52      1.0000 0.05820  0.32860  0.80380  Biso   1.000  C
  C53      1.0000 0.44180  0.82860  0.80380  Biso   1.000  C
  C54      1.0000 0.05820  0.17140  0.30380  Biso   1.000  C
  C55      1.0000 0.55820  0.32860  0.69620  Biso   1.000  C
  C56      1.0000 0.94180  0.67140  0.19620  Biso   1.000  C
  H25      1.0000 0.62340  0.20660  0.19230  Biso   1.000  H
  H26      1.0000 0.87660  0.79340  0.69230  Biso   1.000  H
  H27      1.0000 0.37660  0.70660  0.30770  Biso   1.000  H
  H28      1.0000 0.12340  0.29340  0.80770  Biso   1.000  H
  H29      1.0000 0.37660  0.79340  0.80770  Biso   1.000  H
  H30      1.0000 0.12340  0.20660  0.30770  Biso   1.000  H
  H31      1.0000 0.62340  0.29340  0.69230  Biso   1.000  H
  H32      1.0000 0.87660  0.70660  0.19230  Biso   1.000  H
  C57      1.0000 0.58810  0.19550  0.28742  Biso   1.000  C
  C58      1.0000 0.91190  0.80450  0.78742  Biso   1.000  C
  C59      1.0000 0.41190  0.69550  0.21258  Biso   1.000  C
  C60      1.0000 0.08810  0.30450  0.71258  Biso   1.000  C
  C61      1.0000 0.41190  0.80450  0.71258  Biso   1.000  C
  C62      1.0000 0.08810  0.19550  0.21258  Biso   1.000  C
  C63      1.0000 0.58810  0.30450  0.78742  Biso   1.000  C
  C64      1.0000 0.91190  0.69550  0.28742  Biso   1.000  C
  H33      1.0000 0.63670  0.26570  0.27750  Biso   1.000  H
  H34      1.0000 0.86330  0.73430  0.77750  Biso   1.000  H
  H35      1.0000 0.36330  0.76570  0.22250  Biso   1.000  H
  H36      1.0000 0.13670  0.23430  0.72250  Biso   1.000  H
  H37      1.0000 0.36330  0.73430  0.72250  Biso   1.000  H
  H38      1.0000 0.13670  0.26570  0.22250  Biso   1.000  H
  H39      1.0000 0.63670  0.23430  0.77750  Biso   1.000  H
  H40      1.0000 0.86330  0.76570  0.27750  Biso   1.000  H
  H41      1.0000 0.62510  0.11590  0.30010  Biso   1.000  H
  H42      1.0000 0.87490  0.88410  0.80010  Biso   1.000  H
  H43      1.0000 0.37490  0.61590  0.19990  Biso   1.000  H
  H44      1.0000 0.12510  0.38410  0.69990  Biso   1.000  H
  H45      1.0000 0.37490  0.88410  0.69990  Biso   1.000  H
  H46      1.0000 0.12510  0.11590  0.19990  Biso   1.000  H
  H47      1.0000 0.62510  0.38410  0.80010  Biso   1.000  H
  H48      1.0000 0.87490  0.61590  0.30010  Biso   1.000  H
  C65      1.0000 0.51830  0.24950  0.32922  Biso   1.000  C
  C66      1.0000 0.98170  0.75050  0.82922  Biso   1.000  C
  C67      1.0000 0.48170  0.74950  0.17078  Biso   1.000  C
  C68      1.0000 0.01830  0.25050  0.67078  Biso   1.000  C
  C69      1.0000 0.48170  0.75050  0.67078  Biso   1.000  C
  C70      1.0000 0.01830  0.24950  0.17078  Biso   1.000  C
  C71      1.0000 0.51830  0.25050  0.82922  Biso   1.000  C
  C72      1.0000 0.98170  0.74950  0.32922  Biso   1.000  C
  H49      1.0000 0.55550  0.25880  0.36170  Biso   1.000  H
  H50      1.0000 0.94450  0.74120  0.86170  Biso   1.000  H
  H51      1.0000 0.44450  0.75880  0.13830  Biso   1.000  H
  H52      1.0000 0.05550  0.24120  0.63830  Biso   1.000  H
  H53      1.0000 0.44450  0.74120  0.63830  Biso   1.000  H
  H54      1.0000 0.05550  0.25880  0.13830  Biso   1.000  H
  H55      1.0000 0.55550  0.24120  0.86170  Biso   1.000  H
  H56      1.0000 0.94450  0.75880  0.36170  Biso   1.000  H
  H57      1.0000 0.49340  0.33980  0.31940  Biso   1.000  H
  H58      1.0000 0.00660  0.66020  0.81940  Biso   1.000  H
  H59      1.0000 0.50660  0.83980  0.18060  Biso   1.000  H
  H60      1.0000 0.99340  0.16020  0.68060  Biso   1.000  H
  H61      1.0000 0.50660  0.66020  0.68060  Biso   1.000  H
  H62      1.0000 0.99340  0.33980  0.18060  Biso   1.000  H
  H63      1.0000 0.49340  0.16020  0.81940  Biso   1.000  H
  H64      1.0000 0.00660  0.83980  0.31940  Biso   1.000  H
  C73      1.0000 0.45850  0.02600  0.36467  Biso   1.000  C
  C74      1.0000 0.04150  0.97400  0.86467  Biso   1.000  C
  C75      1.0000 0.54150  0.52600  0.13533  Biso   1.000  C
  C76      1.0000 0.95850  0.47400  0.63533  Biso   1.000  C
  C77      1.0000 0.54150  0.97400  0.63533  Biso   1.000  C
  C78      1.0000 0.95850  0.02600  0.13533  Biso   1.000  C
  C79      1.0000 0.45850  0.47400  0.86467  Biso   1.000  C
  C80      1.0000 0.04150  0.52600  0.36467  Biso   1.000  C
  H65      1.0000 0.51720  0.98490  0.34800  Biso   1.000  H
  H66      1.0000 0.98280  0.01510  0.84800  Biso   1.000  H
  H67      1.0000 0.48280  0.48490  0.15200  Biso   1.000  H
  H68      1.0000 0.01720  0.51510  0.65200  Biso   1.000  H
  H69      1.0000 0.48280  0.01510  0.65200  Biso   1.000  H
  H70      1.0000 0.01720  0.98490  0.15200  Biso   1.000  H
  H71      1.0000 0.51720  0.51510  0.84800  Biso   1.000  H
  H72      1.0000 0.98280  0.48490  0.34800  Biso   1.000  H
  H73      1.0000 0.40260  0.96160  0.36150  Biso   1.000  H
  H74      1.0000 0.09740  0.03840  0.86150  Biso   1.000  H
  H75      1.0000 0.59740  0.46160  0.13850  Biso   1.000  H
  H76      1.0000 0.90260  0.53840  0.63850  Biso   1.000  H
  H77      1.0000 0.59740  0.03840  0.63850  Biso   1.000  H
  H78      1.0000 0.90260  0.96160  0.13850  Biso   1.000  H
  H79      1.0000 0.40260  0.53840  0.86150  Biso   1.000  H
  H80      1.0000 0.09740  0.46160  0.36150  Biso   1.000  H
  C81      1.0000 0.48200  0.04720  0.42217  Biso   1.000  C
  C82      1.0000 0.01800  0.95280  0.92217  Biso   1.000  C
  C83      1.0000 0.51800  0.54720  0.07783  Biso   1.000  C
  C84      1.0000 0.98200  0.45280  0.57783  Biso   1.000  C
  C85      1.0000 0.51800  0.95280  0.57783  Biso   1.000  C
  C86      1.0000 0.98200  0.04720  0.07783  Biso   1.000  C
  C87      1.0000 0.48200  0.45280  0.92217  Biso   1.000  C
  C88      1.0000 0.01800  0.54720  0.42217  Biso   1.000  C
  H81      1.0000 0.49390  0.95860  0.43850  Biso   1.000  H
  H82      1.0000 0.00610  0.04140  0.93850  Biso   1.000  H
  H83      1.0000 0.50610  0.45860  0.06150  Biso   1.000  H
  H84      1.0000 0.99390  0.54140  0.56150  Biso   1.000  H
  H85      1.0000 0.50610  0.04140  0.56150  Biso   1.000  H
  H86      1.0000 0.99390  0.95860  0.06150  Biso   1.000  H
  H87      1.0000 0.49390  0.54140  0.93850  Biso   1.000  H
  H88      1.0000 0.00610  0.45860  0.43850  Biso   1.000  H
  H89      1.0000 0.54330  0.10170  0.42560  Biso   1.000  H
  H90      1.0000 0.95670  0.89830  0.92560  Biso   1.000  H
  H91      1.0000 0.45670  0.60170  0.07440  Biso   1.000  H
  H92      1.0000 0.04330  0.39830  0.57440  Biso   1.000  H
  H93      1.0000 0.45670  0.89830  0.57440  Biso   1.000  H
  H94      1.0000 0.04330  0.10170  0.07440  Biso   1.000  H
  H95      1.0000 0.54330  0.39830  0.92560  Biso   1.000  H
  H96      1.0000 0.95670  0.60170  0.42560  Biso   1.000  H
  C89      1.0000 0.39550  0.11940  0.44976  Biso   1.000  C
  C90      1.0000 0.10450  0.88060  0.94976  Biso   1.000  C
  C91      1.0000 0.60450  0.61940  0.05024  Biso   1.000  C
  C92      1.0000 0.89550  0.38060  0.55024  Biso   1.000  C
  C93      1.0000 0.60450  0.88060  0.55024  Biso   1.000  C
  C94      1.0000 0.89550  0.11940  0.05024  Biso   1.000  C
  C95      1.0000 0.39550  0.38060  0.94976  Biso   1.000  C
  C96      1.0000 0.10450  0.61940  0.44976  Biso   1.000  C
  H97      1.0000 0.33610  0.06030  0.45010  Biso   1.000  H
  H98      1.0000 0.16390  0.93970  0.95010  Biso   1.000  H
  H99      1.0000 0.66390  0.56030  0.04990  Biso   1.000  H
  H100     1.0000 0.83610  0.43970  0.54990  Biso   1.000  H
  H101     1.0000 0.66390  0.93970  0.54990  Biso   1.000  H
  H102     1.0000 0.83610  0.06030  0.04990  Biso   1.000  H
  H103     1.0000 0.33610  0.43970  0.95010  Biso   1.000  H
  H104     1.0000 0.16390  0.56030  0.45010  Biso   1.000  H
  H105     1.0000 0.41450  0.13830  0.48560  Biso   1.000  H
  H106     1.0000 0.08550  0.86170  0.98560  Biso   1.000  H
  H107     1.0000 0.58550  0.63830  0.01440  Biso   1.000  H
  H108     1.0000 0.91450  0.36170  0.51440  Biso   1.000  H
  H109     1.0000 0.58550  0.86170  0.51440  Biso   1.000  H
  H110     1.0000 0.91450  0.13830  0.01440  Biso   1.000  H
  H111     1.0000 0.41450  0.36170  0.98560  Biso   1.000  H
  H112     1.0000 0.08550  0.63830  0.48560  Biso   1.000  H
  C97      1.0000 0.37080  0.25260  0.42221  Biso   1.000  C
  C98      1.0000 0.12920  0.74740  0.92221  Biso   1.000  C
  C99      1.0000 0.62920  0.75260  0.07779  Biso   1.000  C
  C100     1.0000 0.87080  0.24740  0.57779  Biso   1.000  C
  C101     1.0000 0.62920  0.74740  0.57779  Biso   1.000  C
  C102     1.0000 0.87080  0.25260  0.07779  Biso   1.000  C
  C103     1.0000 0.37080  0.24740  0.92221  Biso   1.000  C
  C104     1.0000 0.12920  0.75260  0.42221  Biso   1.000  C
  H113     1.0000 0.42780  0.31530  0.42510  Biso   1.000  H
  H114     1.0000 0.07220  0.68470  0.92510  Biso   1.000  H
  H115     1.0000 0.57220  0.81530  0.07490  Biso   1.000  H
  H116     1.0000 0.92780  0.18470  0.57490  Biso   1.000  H
  H117     1.0000 0.57220  0.68470  0.57490  Biso   1.000  H
  H118     1.0000 0.92780  0.31530  0.07490  Biso   1.000  H
  H119     1.0000 0.42780  0.18470  0.92510  Biso   1.000  H
  H120     1.0000 0.07220  0.81530  0.42510  Biso   1.000  H
  H121     1.0000 0.31240  0.29540  0.43860  Biso   1.000  H
  H122     1.0000 0.18760  0.70460  0.93860  Biso   1.000  H
  H123     1.0000 0.68760  0.79540  0.06140  Biso   1.000  H
  H124     1.0000 0.81240  0.20460  0.56140  Biso   1.000  H
  H125     1.0000 0.68760  0.70460  0.56140  Biso   1.000  H
  H126     1.0000 0.81240  0.29540  0.06140  Biso   1.000  H
  H127     1.0000 0.31240  0.20460  0.93860  Biso   1.000  H
  H128     1.0000 0.18760  0.79540  0.43860  Biso   1.000  H
  C105     1.0000 0.34810  0.22540  0.36491  Biso   1.000  C
  C106     1.0000 0.15190  0.77460  0.86491  Biso   1.000  C
  C107     1.0000 0.65190  0.72540  0.13509  Biso   1.000  C
  C108     1.0000 0.84810  0.27460  0.63509  Biso   1.000  C
  C109     1.0000 0.65190  0.77460  0.63509  Biso   1.000  C
  C110     1.0000 0.84810  0.22540  0.13509  Biso   1.000  C
  C111     1.0000 0.34810  0.27460  0.86491  Biso   1.000  C
  C112     1.0000 0.15190  0.72540  0.36491  Biso   1.000  C
  H129     1.0000 0.28720  0.16950  0.36250  Biso   1.000  H
  H130     1.0000 0.21280  0.83050  0.86250  Biso   1.000  H
  H131     1.0000 0.71280  0.66950  0.13750  Biso   1.000  H
  H132     1.0000 0.78720  0.33050  0.63750  Biso   1.000  H
  H133     1.0000 0.71280  0.83050  0.63750  Biso   1.000  H
  H134     1.0000 0.78720  0.16950  0.13750  Biso   1.000  H
  H135     1.0000 0.28720  0.33050  0.86250  Biso   1.000  H
  H136     1.0000 0.21280  0.66950  0.36250  Biso   1.000  H
  H137     1.0000 0.33430  0.31240  0.34780  Biso   1.000  H
  H138     1.0000 0.16570  0.68760  0.84780  Biso   1.000  H
  H139     1.0000 0.66570  0.81240  0.15220  Biso   1.000  H
  H140     1.0000 0.83430  0.18760  0.65220  Biso   1.000  H
  H141     1.0000 0.66570  0.68760  0.65220  Biso   1.000  H
  H142     1.0000 0.83430  0.31240  0.15220  Biso   1.000  H
  H143     1.0000 0.33430  0.18760  0.84780  Biso   1.000  H
  H144     1.0000 0.16570  0.81240  0.34780  Biso   1.000  H
  C113     1.0000 0.23580  0.88230  0.10626  Biso   1.000  C
  C114     1.0000 0.26420  0.11770  0.60626  Biso   1.000  C
  C115     1.0000 0.76420  0.38230  0.39374  Biso   1.000  C
  C116     1.0000 0.73580  0.61770  0.89374  Biso   1.000  C
  C117     1.0000 0.76420  0.11770  0.89374  Biso   1.000  C
  C118     1.0000 0.73580  0.88230  0.39374  Biso   1.000  C
  C119     1.0000 0.23580  0.61770  0.60626  Biso   1.000  C
  C120     1.0000 0.26420  0.38230  0.10626  Biso   1.000  C
  H145     1.0000 0.26990  0.82900  0.08010  Biso   1.000  H
  H146     1.0000 0.23010  0.17100  0.58010  Biso   1.000  H
  H147     1.0000 0.73010  0.32900  0.41990  Biso   1.000  H
  H148     1.0000 0.76990  0.67100  0.91990  Biso   1.000  H
  H149     1.0000 0.73010  0.17100  0.91990  Biso   1.000  H
  H150     1.0000 0.76990  0.82900  0.41990  Biso   1.000  H
  H151     1.0000 0.26990  0.67100  0.58010  Biso   1.000  H
  H152     1.0000 0.23010  0.32900  0.08010  Biso   1.000  H
  H153     1.0000 0.16400  0.86670  0.10400  Biso   1.000  H
  H154     1.0000 0.33600  0.13330  0.60400  Biso   1.000  H
  H155     1.0000 0.83600  0.36670  0.39600  Biso   1.000  H
  H156     1.0000 0.66400  0.63330  0.89600  Biso   1.000  H
  H157     1.0000 0.83600  0.13330  0.89600  Biso   1.000  H
  H158     1.0000 0.66400  0.86670  0.39600  Biso   1.000  H
  H159     1.0000 0.16400  0.63330  0.60400  Biso   1.000  H
  H160     1.0000 0.33600  0.36670  0.10400  Biso   1.000  H
  H161     1.0000 0.25950  0.85540  0.14010  Biso   1.000  H
  H162     1.0000 0.24050  0.14460  0.64010  Biso   1.000  H
  H163     1.0000 0.74050  0.35540  0.35990  Biso   1.000  H
  H164     1.0000 0.75950  0.64460  0.85990  Biso   1.000  H
  H165     1.0000 0.74050  0.14460  0.85990  Biso   1.000  H
  H166     1.0000 0.75950  0.85540  0.35990  Biso   1.000  H
  H167     1.0000 0.25950  0.64460  0.64010  Biso   1.000  H
  H168     1.0000 0.24050  0.35540  0.14010  Biso   1.000  H
