data_image0
_cell_length_a       13.0218
_cell_length_b       9.6216
_cell_length_c       25.4583
_cell_angle_alpha    90
_cell_angle_beta     90
_cell_angle_gamma    90

_symmetry_space_group_name_H-M    "P 1"
_symmetry_int_tables_number       1

loop_
  _symmetry_equiv_pos_as_xyz
  'x, y, z'

loop_
  _atom_site_label
  _atom_site_occupancy
  _atom_site_fract_x
  _atom_site_fract_y
  _atom_site_fract_z
  _atom_site_thermal_displace_type
  _atom_site_B_iso_or_equiv
  _atom_site_type_symbol
  C1       1.0000 0.09741  0.41877  0.14826  Biso   1.000  C
  C2       1.0000 0.40259  0.58123  0.64826  Biso   1.000  C
  C3       1.0000 0.90259  0.91877  0.35174  Biso   1.000  C
  C4       1.0000 0.59741  0.08123  0.85174  Biso   1.000  C
  C5       1.0000 0.90259  0.58123  0.85174  Biso   1.000  C
  C6       1.0000 0.59741  0.41877  0.35174  Biso   1.000  C
  C7       1.0000 0.09741  0.08123  0.64826  Biso   1.000  C
  C8       1.0000 0.40259  0.91877  0.14826  Biso   1.000  C
  C9       1.0000 0.14507  0.43910  0.09865  Biso   1.000  C
  C10      1.0000 0.35493  0.56090  0.59865  Biso   1.000  C
  C11      1.0000 0.85493  0.93910  0.40135  Biso   1.000  C
  C12      1.0000 0.64507  0.06090  0.90135  Biso   1.000  C
  C13      1.0000 0.85493  0.56090  0.90135  Biso   1.000  C
  C14      1.0000 0.64507  0.43910  0.40135  Biso   1.000  C
  C15      1.0000 0.14507  0.06090  0.59865  Biso   1.000  C
  C16      1.0000 0.35493  0.93910  0.09865  Biso   1.000  C
  C17      1.0000 0.09436  0.41200  0.05224  Biso   1.000  C
  C18      1.0000 0.40564  0.58800  0.55224  Biso   1.000  C
  C19      1.0000 0.90564  0.91200  0.44776  Biso   1.000  C
  C20      1.0000 0.59436  0.08800  0.94776  Biso   1.000  C
  C21      1.0000 0.90564  0.58800  0.94776  Biso   1.000  C
  C22      1.0000 0.59436  0.41200  0.44776  Biso   1.000  C
  C23      1.0000 0.09436  0.08800  0.55224  Biso   1.000  C
  C24      1.0000 0.40564  0.91200  0.05224  Biso   1.000  C
  C25      1.0000 0.99378  0.36080  0.05211  Biso   1.000  C
  C26      1.0000 0.50622  0.63920  0.55211  Biso   1.000  C
  C27      1.0000 0.00622  0.86080  0.44789  Biso   1.000  C
  C28      1.0000 0.49378  0.13920  0.94789  Biso   1.000  C
  C29      1.0000 0.00622  0.63920  0.94789  Biso   1.000  C
  C30      1.0000 0.49378  0.36080  0.44789  Biso   1.000  C
  C31      1.0000 0.99378  0.13920  0.55211  Biso   1.000  C
  C32      1.0000 0.50622  0.86080  0.05211  Biso   1.000  C
  C33      1.0000 0.94632  0.33660  0.09947  Biso   1.000  C
  C34      1.0000 0.55368  0.66340  0.59947  Biso   1.000  C
  C35      1.0000 0.05368  0.83660  0.40053  Biso   1.000  C
  C36      1.0000 0.44632  0.16340  0.90053  Biso   1.000  C
  C37      1.0000 0.05368  0.66340  0.90053  Biso   1.000  C
  C38      1.0000 0.44632  0.33660  0.40053  Biso   1.000  C
  C39      1.0000 0.94632  0.16340  0.59947  Biso   1.000  C
  C40      1.0000 0.55368  0.83660  0.09947  Biso   1.000  C
  C41      1.0000 0.99566  0.36361  0.14772  Biso   1.000  C
  C42      1.0000 0.50434  0.63639  0.64772  Biso   1.000  C
  C43      1.0000 0.00434  0.86361  0.35228  Biso   1.000  C
  C44      1.0000 0.49566  0.13639  0.85228  Biso   1.000  C
  C45      1.0000 0.00434  0.63639  0.85228  Biso   1.000  C
  C46      1.0000 0.49566  0.36361  0.35228  Biso   1.000  C
  C47      1.0000 0.99566  0.13639  0.64772  Biso   1.000  C
  C48      1.0000 0.50434  0.86361  0.14772  Biso   1.000  C
  C49      1.0000 0.94002  0.33044  0.19503  Biso   1.000  C
  C50      1.0000 0.55998  0.66956  0.69503  Biso   1.000  C
  C51      1.0000 0.05998  0.83044  0.30497  Biso   1.000  C
  C52      1.0000 0.44002  0.16956  0.80497  Biso   1.000  C
  C53      1.0000 0.05998  0.66956  0.80497  Biso   1.000  C
  C54      1.0000 0.44002  0.33044  0.30497  Biso   1.000  C
  C55      1.0000 0.94002  0.16956  0.69503  Biso   1.000  C
  C56      1.0000 0.55998  0.83044  0.19503  Biso   1.000  C
  C57      1.0000 0.90949  0.30740  0.28709  Biso   1.000  C
  C58      1.0000 0.59051  0.69260  0.78709  Biso   1.000  C
  C59      1.0000 0.09051  0.80740  0.21291  Biso   1.000  C
  C60      1.0000 0.40949  0.19260  0.71291  Biso   1.000  C
  C61      1.0000 0.09051  0.69260  0.71291  Biso   1.000  C
  C62      1.0000 0.40949  0.30740  0.21291  Biso   1.000  C
  C63      1.0000 0.90949  0.19260  0.78709  Biso   1.000  C
  C64      1.0000 0.59051  0.80740  0.28709  Biso   1.000  C
  C65      1.0000 0.98061  0.25037  0.32895  Biso   1.000  C
  C66      1.0000 0.51939  0.74963  0.82895  Biso   1.000  C
  C67      1.0000 0.01939  0.75037  0.17105  Biso   1.000  C
  C68      1.0000 0.48061  0.24963  0.67105  Biso   1.000  C
  C69      1.0000 0.01939  0.74963  0.67105  Biso   1.000  C
  C70      1.0000 0.48061  0.25037  0.17105  Biso   1.000  C
  C71      1.0000 0.98061  0.24963  0.82895  Biso   1.000  C
  C72      1.0000 0.51939  0.75037  0.32895  Biso   1.000  C
  C73      1.0000 0.04089  0.47600  0.36488  Biso   1.000  C
  C74      1.0000 0.45911  0.52400  0.86488  Biso   1.000  C
  C75      1.0000 0.95911  0.97600  0.13512  Biso   1.000  C
  C76      1.0000 0.54089  0.02400  0.63512  Biso   1.000  C
  C77      1.0000 0.95911  0.52400  0.63512  Biso   1.000  C
  C78      1.0000 0.54089  0.47600  0.13512  Biso   1.000  C
  C79      1.0000 0.04089  0.02400  0.86488  Biso   1.000  C
  C80      1.0000 0.45911  0.97600  0.36488  Biso   1.000  C
  C81      1.0000 0.01800  0.45370  0.42294  Biso   1.000  C
  C82      1.0000 0.48200  0.54630  0.92294  Biso   1.000  C
  C83      1.0000 0.98200  0.95370  0.07706  Biso   1.000  C
  C84      1.0000 0.51800  0.04630  0.57706  Biso   1.000  C
  C85      1.0000 0.98200  0.54630  0.57706  Biso   1.000  C
  C86      1.0000 0.51800  0.45370  0.07706  Biso   1.000  C
  C87      1.0000 0.01800  0.04630  0.92294  Biso   1.000  C
  C88      1.0000 0.48200  0.95370  0.42294  Biso   1.000  C
  C89      1.0000 0.10676  0.38260  0.45053  Biso   1.000  C
  C90      1.0000 0.39324  0.61740  0.95053  Biso   1.000  C
  C91      1.0000 0.89324  0.88260  0.04947  Biso   1.000  C
  C92      1.0000 0.60676  0.11740  0.54947  Biso   1.000  C
  C93      1.0000 0.89324  0.61740  0.54947  Biso   1.000  C
  C94      1.0000 0.60676  0.38260  0.04947  Biso   1.000  C
  C95      1.0000 0.10676  0.11740  0.95053  Biso   1.000  C
  C96      1.0000 0.39324  0.88260  0.45053  Biso   1.000  C
  C97      1.0000 0.13267  0.24670  0.42236  Biso   1.000  C
  C98      1.0000 0.36733  0.75330  0.92236  Biso   1.000  C
  C99      1.0000 0.86733  0.74670  0.07764  Biso   1.000  C
  C100     1.0000 0.63267  0.25330  0.57764  Biso   1.000  C
  C101     1.0000 0.86733  0.75330  0.57764  Biso   1.000  C
  C102     1.0000 0.63267  0.24670  0.07764  Biso   1.000  C
  C103     1.0000 0.13267  0.25330  0.92236  Biso   1.000  C
  C104     1.0000 0.36733  0.74670  0.42236  Biso   1.000  C
  C105     1.0000 0.15467  0.27510  0.36430  Biso   1.000  C
  C106     1.0000 0.34533  0.72490  0.86430  Biso   1.000  C
  C107     1.0000 0.84533  0.77510  0.13570  Biso   1.000  C
  C108     1.0000 0.65467  0.22490  0.63570  Biso   1.000  C
  C109     1.0000 0.84533  0.72490  0.63570  Biso   1.000  C
  C110     1.0000 0.65467  0.27510  0.13570  Biso   1.000  C
  C111     1.0000 0.15467  0.22490  0.86430  Biso   1.000  C
  C112     1.0000 0.34533  0.77510  0.36430  Biso   1.000  C
  C113     1.0000 0.26610  0.62130  0.10591  Biso   1.000  C
  C114     1.0000 0.23390  0.37870  0.60591  Biso   1.000  C
  C115     1.0000 0.73390  0.12130  0.39409  Biso   1.000  C
  C116     1.0000 0.76610  0.87870  0.89409  Biso   1.000  C
  C117     1.0000 0.73390  0.37870  0.89409  Biso   1.000  C
  C118     1.0000 0.76610  0.62130  0.39409  Biso   1.000  C
  C119     1.0000 0.26610  0.87870  0.60591  Biso   1.000  C
  C120     1.0000 0.23390  0.12130  0.10591  Biso   1.000  C
  Cu1      1.0000 0.11140  0.40226  0.26070  Biso   1.000  Cu
  Cu2      1.0000 0.38860  0.59774  0.76070  Biso   1.000  Cu
  Cu3      1.0000 0.88860  0.90226  0.23930  Biso   1.000  Cu
  Cu4      1.0000 0.61140  0.09774  0.73930  Biso   1.000  Cu
  Cu5      1.0000 0.88860  0.59774  0.73930  Biso   1.000  Cu
  Cu6      1.0000 0.61140  0.40226  0.23930  Biso   1.000  Cu
  Cu7      1.0000 0.11140  0.09774  0.76070  Biso   1.000  Cu
  Cu8      1.0000 0.38860  0.90226  0.26070  Biso   1.000  Cu
  H1       1.0000 0.13100  0.42600  0.02080  Biso   1.000  H
  H2       1.0000 0.36900  0.57400  0.52080  Biso   1.000  H
  H3       1.0000 0.86900  0.92600  0.47920  Biso   1.000  H
  H4       1.0000 0.63100  0.07400  0.97920  Biso   1.000  H
  H5       1.0000 0.86900  0.57400  0.97920  Biso   1.000  H
  H6       1.0000 0.63100  0.42600  0.47920  Biso   1.000  H
  H7       1.0000 0.13100  0.07400  0.52080  Biso   1.000  H
  H8       1.0000 0.36900  0.92600  0.02080  Biso   1.000  H
  H9       1.0000 0.96040  0.34300  0.02030  Biso   1.000  H
  H10      1.0000 0.53960  0.65700  0.52030  Biso   1.000  H
  H11      1.0000 0.03960  0.84300  0.47970  Biso   1.000  H
  H12      1.0000 0.46040  0.15700  0.97970  Biso   1.000  H
  H13      1.0000 0.03960  0.65700  0.97970  Biso   1.000  H
  H14      1.0000 0.46040  0.34300  0.47970  Biso   1.000  H
  H15      1.0000 0.96040  0.15700  0.52030  Biso   1.000  H
  H16      1.0000 0.53960  0.84300  0.02030  Biso   1.000  H
  H17      1.0000 0.87910  0.30700  0.10160  Biso   1.000  H
  H18      1.0000 0.62090  0.69300  0.60160  Biso   1.000  H
  H19      1.0000 0.12090  0.80700  0.39840  Biso   1.000  H
  H20      1.0000 0.37910  0.19300  0.89840  Biso   1.000  H
  H21      1.0000 0.12090  0.69300  0.89840  Biso   1.000  H
  H22      1.0000 0.37910  0.30700  0.39840  Biso   1.000  H
  H23      1.0000 0.87910  0.19300  0.60160  Biso   1.000  H
  H24      1.0000 0.62090  0.80700  0.10160  Biso   1.000  H
  H25      1.0000 0.86880  0.29300  0.18790  Biso   1.000  H
  H26      1.0000 0.63120  0.70700  0.68790  Biso   1.000  H
  H27      1.0000 0.13120  0.79300  0.31210  Biso   1.000  H
  H28      1.0000 0.36880  0.20700  0.81210  Biso   1.000  H
  H29      1.0000 0.13120  0.70700  0.81210  Biso   1.000  H
  H30      1.0000 0.36880  0.29300  0.31210  Biso   1.000  H
  H31      1.0000 0.86880  0.20700  0.68790  Biso   1.000  H
  H32      1.0000 0.63120  0.79300  0.18790  Biso   1.000  H
  H33      1.0000 0.85700  0.24400  0.27520  Biso   1.000  H
  H34      1.0000 0.64300  0.75600  0.77520  Biso   1.000  H
  H35      1.0000 0.14300  0.74400  0.22480  Biso   1.000  H
  H36      1.0000 0.35700  0.25600  0.72480  Biso   1.000  H
  H37      1.0000 0.14300  0.75600  0.72480  Biso   1.000  H
  H38      1.0000 0.35700  0.24400  0.22480  Biso   1.000  H
  H39      1.0000 0.85700  0.25600  0.77520  Biso   1.000  H
  H40      1.0000 0.64300  0.74400  0.27520  Biso   1.000  H
  H41      1.0000 0.94200  0.23200  0.36020  Biso   1.000  H
  H42      1.0000 0.55800  0.76800  0.86020  Biso   1.000  H
  H43      1.0000 0.05800  0.73200  0.13980  Biso   1.000  H
  H44      1.0000 0.44200  0.26800  0.63980  Biso   1.000  H
  H45      1.0000 0.05800  0.76800  0.63980  Biso   1.000  H
  H46      1.0000 0.44200  0.23200  0.13980  Biso   1.000  H
  H47      1.0000 0.94200  0.26800  0.86020  Biso   1.000  H
  H48      1.0000 0.55800  0.73200  0.36020  Biso   1.000  H
  H49      1.0000 0.10060  0.53100  0.36250  Biso   1.000  H
  H50      1.0000 0.39940  0.46900  0.86250  Biso   1.000  H
  H51      1.0000 0.89940  0.03100  0.13750  Biso   1.000  H
  H52      1.0000 0.60060  0.96900  0.63750  Biso   1.000  H
  H53      1.0000 0.89940  0.46900  0.63750  Biso   1.000  H
  H54      1.0000 0.60060  0.53100  0.13750  Biso   1.000  H
  H55      1.0000 0.10060  0.96900  0.86250  Biso   1.000  H
  H56      1.0000 0.39940  0.03100  0.36250  Biso   1.000  H
  H57      1.0000 0.95390  0.40000  0.42850  Biso   1.000  H
  H58      1.0000 0.54610  0.60000  0.92850  Biso   1.000  H
  H59      1.0000 0.04610  0.90000  0.07150  Biso   1.000  H
  H60      1.0000 0.45390  0.10000  0.57150  Biso   1.000  H
  H61      1.0000 0.04610  0.60000  0.57150  Biso   1.000  H
  H62      1.0000 0.45390  0.40000  0.07150  Biso   1.000  H
  H63      1.0000 0.95390  0.10000  0.92850  Biso   1.000  H
  H64      1.0000 0.54610  0.90000  0.42850  Biso   1.000  H
  H65      1.0000 0.09300  0.36100  0.48660  Biso   1.000  H
  H66      1.0000 0.40700  0.63900  0.98660  Biso   1.000  H
  H67      1.0000 0.90700  0.86100  0.01340  Biso   1.000  H
  H68      1.0000 0.59300  0.13900  0.51340  Biso   1.000  H
  H69      1.0000 0.90700  0.63900  0.51340  Biso   1.000  H
  H70      1.0000 0.59300  0.36100  0.01340  Biso   1.000  H
  H71      1.0000 0.09300  0.13900  0.98660  Biso   1.000  H
  H72      1.0000 0.40700  0.86100  0.48660  Biso   1.000  H
  H73      1.0000 0.07300  0.18600  0.42350  Biso   1.000  H
  H74      1.0000 0.42700  0.81400  0.92350  Biso   1.000  H
  H75      1.0000 0.92700  0.68600  0.07650  Biso   1.000  H
  H76      1.0000 0.57300  0.31400  0.57650  Biso   1.000  H
  H77      1.0000 0.92700  0.81400  0.57650  Biso   1.000  H
  H78      1.0000 0.57300  0.18600  0.07650  Biso   1.000  H
  H79      1.0000 0.07300  0.31400  0.92350  Biso   1.000  H
  H80      1.0000 0.42700  0.68600  0.42350  Biso   1.000  H
  H81      1.0000 0.17220  0.19100  0.34720  Biso   1.000  H
  H82      1.0000 0.32780  0.80900  0.84720  Biso   1.000  H
  H83      1.0000 0.82780  0.69100  0.15280  Biso   1.000  H
  H84      1.0000 0.67220  0.30900  0.65280  Biso   1.000  H
  H85      1.0000 0.82780  0.80900  0.65280  Biso   1.000  H
  H86      1.0000 0.67220  0.19100  0.15280  Biso   1.000  H
  H87      1.0000 0.17220  0.30900  0.84720  Biso   1.000  H
  H88      1.0000 0.32780  0.69100  0.34720  Biso   1.000  H
  H89      1.0000 0.24500  0.64400  0.13890  Biso   1.000  H
  H90      1.0000 0.25500  0.35600  0.63890  Biso   1.000  H
  H91      1.0000 0.75500  0.14400  0.36110  Biso   1.000  H
  H92      1.0000 0.74500  0.85600  0.86110  Biso   1.000  H
  H93      1.0000 0.75500  0.35600  0.86110  Biso   1.000  H
  H94      1.0000 0.74500  0.64400  0.36110  Biso   1.000  H
  H95      1.0000 0.24500  0.85600  0.63890  Biso   1.000  H
  H96      1.0000 0.25500  0.14400  0.13890  Biso   1.000  H
  H97      1.0000 0.87400  0.38800  0.29670  Biso   1.000  H
  H98      1.0000 0.62600  0.61200  0.79670  Biso   1.000  H
  H99      1.0000 0.12600  0.88800  0.20330  Biso   1.000  H
  H100     1.0000 0.37400  0.11200  0.70330  Biso   1.000  H
  H101     1.0000 0.12600  0.61200  0.70330  Biso   1.000  H
  H102     1.0000 0.37400  0.38800  0.20330  Biso   1.000  H
  H103     1.0000 0.87400  0.11200  0.79670  Biso   1.000  H
  H104     1.0000 0.62600  0.88800  0.29670  Biso   1.000  H
  H105     1.0000 0.00690  0.15500  0.31870  Biso   1.000  H
  H106     1.0000 0.49310  0.84500  0.81870  Biso   1.000  H
  H107     1.0000 0.99310  0.65500  0.18130  Biso   1.000  H
  H108     1.0000 0.50690  0.34500  0.68130  Biso   1.000  H
  H109     1.0000 0.99310  0.84500  0.68130  Biso   1.000  H
  H110     1.0000 0.50690  0.15500  0.18130  Biso   1.000  H
  H111     1.0000 0.00690  0.34500  0.81870  Biso   1.000  H
  H112     1.0000 0.49310  0.65500  0.31870  Biso   1.000  H
  H113     1.0000 0.98300  0.52200  0.34760  Biso   1.000  H
  H114     1.0000 0.51700  0.47800  0.84760  Biso   1.000  H
  H115     1.0000 0.01700  0.02200  0.15240  Biso   1.000  H
  H116     1.0000 0.48300  0.97800  0.65240  Biso   1.000  H
  H117     1.0000 0.01700  0.47800  0.65240  Biso   1.000  H
  H118     1.0000 0.48300  0.52200  0.15240  Biso   1.000  H
  H119     1.0000 0.98300  0.97800  0.84760  Biso   1.000  H
  H120     1.0000 0.51700  0.02200  0.34760  Biso   1.000  H
  H121     1.0000 0.00200  0.53300  0.43850  Biso   1.000  H
  H122     1.0000 0.49800  0.46700  0.93850  Biso   1.000  H
  H123     1.0000 0.99800  0.03300  0.06150  Biso   1.000  H
  H124     1.0000 0.50200  0.96700  0.56150  Biso   1.000  H
  H125     1.0000 0.99800  0.46700  0.56150  Biso   1.000  H
  H126     1.0000 0.50200  0.53300  0.06150  Biso   1.000  H
  H127     1.0000 0.00200  0.96700  0.93850  Biso   1.000  H
  H128     1.0000 0.49800  0.03300  0.43850  Biso   1.000  H
  H129     1.0000 0.16940  0.44200  0.45240  Biso   1.000  H
  H130     1.0000 0.33060  0.55800  0.95240  Biso   1.000  H
  H131     1.0000 0.83060  0.94200  0.04760  Biso   1.000  H
  H132     1.0000 0.66940  0.05800  0.54760  Biso   1.000  H
  H133     1.0000 0.83060  0.55800  0.54760  Biso   1.000  H
  H134     1.0000 0.66940  0.44200  0.04760  Biso   1.000  H
  H135     1.0000 0.16940  0.05800  0.95240  Biso   1.000  H
  H136     1.0000 0.33060  0.94200  0.45240  Biso   1.000  H
  H137     1.0000 0.19200  0.20700  0.43770  Biso   1.000  H
  H138     1.0000 0.30800  0.79300  0.93770  Biso   1.000  H
  H139     1.0000 0.80800  0.70700  0.06230  Biso   1.000  H
  H140     1.0000 0.69200  0.29300  0.56230  Biso   1.000  H
  H141     1.0000 0.80800  0.79300  0.56230  Biso   1.000  H
  H142     1.0000 0.69200  0.20700  0.06230  Biso   1.000  H
  H143     1.0000 0.19200  0.29300  0.93770  Biso   1.000  H
  H144     1.0000 0.30800  0.70700  0.43770  Biso   1.000  H
  H145     1.0000 0.21300  0.33100  0.36110  Biso   1.000  H
  H146     1.0000 0.28700  0.66900  0.86110  Biso   1.000  H
  H147     1.0000 0.78700  0.83100  0.13890  Biso   1.000  H
  H148     1.0000 0.71300  0.16900  0.63890  Biso   1.000  H
  H149     1.0000 0.78700  0.66900  0.63890  Biso   1.000  H
  H150     1.0000 0.71300  0.33100  0.13890  Biso   1.000  H
  H151     1.0000 0.21300  0.16900  0.86110  Biso   1.000  H
  H152     1.0000 0.28700  0.83100  0.36110  Biso   1.000  H
  H153     1.0000 0.22800  0.67900  0.08130  Biso   1.000  H
  H154     1.0000 0.27200  0.32100  0.58130  Biso   1.000  H
  H155     1.0000 0.77200  0.17900  0.41870  Biso   1.000  H
  H156     1.0000 0.72800  0.82100  0.91870  Biso   1.000  H
  H157     1.0000 0.77200  0.32100  0.91870  Biso   1.000  H
  H158     1.0000 0.72800  0.67900  0.41870  Biso   1.000  H
  H159     1.0000 0.22800  0.82100  0.58130  Biso   1.000  H
  H160     1.0000 0.27200  0.17900  0.08130  Biso   1.000  H
  H161     1.0000 0.33600  0.64200  0.10140  Biso   1.000  H
  H162     1.0000 0.16400  0.35800  0.60140  Biso   1.000  H
  H163     1.0000 0.66400  0.14200  0.39860  Biso   1.000  H
  H164     1.0000 0.83600  0.85800  0.89860  Biso   1.000  H
  H165     1.0000 0.66400  0.35800  0.89860  Biso   1.000  H
  H166     1.0000 0.83600  0.64200  0.39860  Biso   1.000  H
  H167     1.0000 0.33600  0.85800  0.60140  Biso   1.000  H
  H168     1.0000 0.16400  0.14200  0.10140  Biso   1.000  H
  N1       1.0000 0.97257  0.34781  0.24202  Biso   1.000  N
  N2       1.0000 0.52743  0.65219  0.74202  Biso   1.000  N
  N3       1.0000 0.02743  0.84781  0.25798  Biso   1.000  N
  N4       1.0000 0.47257  0.15219  0.75798  Biso   1.000  N
  N5       1.0000 0.02743  0.65219  0.75798  Biso   1.000  N
  N6       1.0000 0.47257  0.34781  0.25798  Biso   1.000  N
  N7       1.0000 0.97257  0.15219  0.74202  Biso   1.000  N
  N8       1.0000 0.52743  0.84781  0.24202  Biso   1.000  N
  N9       1.0000 0.06940  0.34525  0.33615  Biso   1.000  N
  N10      1.0000 0.43060  0.65475  0.83615  Biso   1.000  N
  N11      1.0000 0.93060  0.84525  0.16385  Biso   1.000  N
  N12      1.0000 0.56940  0.15475  0.66385  Biso   1.000  N
  N13      1.0000 0.93060  0.65475  0.66385  Biso   1.000  N
  N14      1.0000 0.56940  0.34525  0.16385  Biso   1.000  N
  N15      1.0000 0.06940  0.15475  0.83615  Biso   1.000  N
  N16      1.0000 0.43060  0.84525  0.33615  Biso   1.000  N
  N17      1.0000 0.23364  0.49867  0.28811  Biso   1.000  N
  N18      1.0000 0.26636  0.50133  0.78811  Biso   1.000  N
  N19      1.0000 0.76636  0.99867  0.21189  Biso   1.000  N
  N20      1.0000 0.73364  0.00133  0.71189  Biso   1.000  N
  N21      1.0000 0.76636  0.50133  0.71189  Biso   1.000  N
  N22      1.0000 0.73364  0.49867  0.21189  Biso   1.000  N
  N23      1.0000 0.23364  0.00133  0.78811  Biso   1.000  N
  N24      1.0000 0.26636  0.99867  0.28811  Biso   1.000  N
  N25      1.0000 0.28615  0.57408  0.26241  Biso   1.000  N
  N26      1.0000 0.21385  0.42592  0.76241  Biso   1.000  N
  N27      1.0000 0.71385  0.07408  0.23759  Biso   1.000  N
  N28      1.0000 0.78615  0.92592  0.73759  Biso   1.000  N
  N29      1.0000 0.71385  0.42592  0.73759  Biso   1.000  N
  N30      1.0000 0.78615  0.57408  0.23759  Biso   1.000  N
  N31      1.0000 0.28615  0.92592  0.76241  Biso   1.000  N
  N32      1.0000 0.21385  0.07408  0.26241  Biso   1.000  N
  N33      1.0000 0.34057  0.64780  0.23973  Biso   1.000  N
  N34      1.0000 0.15943  0.35220  0.73973  Biso   1.000  N
  N35      1.0000 0.65943  0.14780  0.26027  Biso   1.000  N
  N36      1.0000 0.84057  0.85220  0.76027  Biso   1.000  N
  N37      1.0000 0.65943  0.35220  0.76027  Biso   1.000  N
  N38      1.0000 0.84057  0.64780  0.26027  Biso   1.000  N
  N39      1.0000 0.34057  0.85220  0.73973  Biso   1.000  N
  N40      1.0000 0.15943  0.14780  0.23973  Biso   1.000  N
  O1       1.0000 0.14779  0.45142  0.19077  Biso   1.000  O
  O2       1.0000 0.35221  0.54858  0.69077  Biso   1.000  O
  O3       1.0000 0.85221  0.95142  0.30923  Biso   1.000  O
  O4       1.0000 0.64779  0.04858  0.80923  Biso   1.000  O
  O5       1.0000 0.85221  0.54858  0.80923  Biso   1.000  O
  O6       1.0000 0.64779  0.45142  0.30923  Biso   1.000  O
  O7       1.0000 0.14779  0.04858  0.69077  Biso   1.000  O
  O8       1.0000 0.35221  0.95142  0.19077  Biso   1.000  O
  O9       1.0000 0.24730  0.47648  0.09627  Biso   1.000  O
  O10      1.0000 0.25270  0.52352  0.59627  Biso   1.000  O
  O11      1.0000 0.75270  0.97648  0.40373  Biso   1.000  O
  O12      1.0000 0.74730  0.02352  0.90373  Biso   1.000  O
  O13      1.0000 0.75270  0.52352  0.90373  Biso   1.000  O
  O14      1.0000 0.74730  0.47648  0.40373  Biso   1.000  O
  O15      1.0000 0.24730  0.02352  0.59627  Biso   1.000  O
  O16      1.0000 0.25270  0.97648  0.09627  Biso   1.000  O
