data_image0
_cell_length_a       10.145
_cell_length_b       7.1844
_cell_length_c       10.757
_cell_angle_alpha    90
_cell_angle_beta     114.903
_cell_angle_gamma    90

_symmetry_space_group_name_H-M    "P 1"
_symmetry_int_tables_number       1

loop_
  _symmetry_equiv_pos_as_xyz
  'x, y, z'

loop_
  _atom_site_label
  _atom_site_occupancy
  _atom_site_fract_x
  _atom_site_fract_y
  _atom_site_fract_z
  _atom_site_thermal_displace_type
  _atom_site_B_iso_or_equiv
  _atom_site_type_symbol
  Cu1      1.0000 0.74498  0.84269  0.54652  Biso   1.000  Cu
  Cu2      1.0000 0.25502  0.34269  0.45348  Biso   1.000  Cu
  N1       1.0000 0.82190  0.68430  0.44610  Biso   1.000  N
  N2       1.0000 0.17810  0.18430  0.55390  Biso   1.000  N
  N3       1.0000 0.80100  0.62620  0.68560  Biso   1.000  N
  N4       1.0000 0.19900  0.12620  0.31440  Biso   1.000  N
  N5       1.0000 0.70180  0.00790  0.67190  Biso   1.000  N
  N6       1.0000 0.29820  0.50790  0.32810  Biso   1.000  N
  N7       1.0000 0.59620  0.10270  0.62760  Biso   1.000  N
  N8       1.0000 0.40380  0.60270  0.37240  Biso   1.000  N
  N9       1.0000 0.49890  0.20150  0.59220  Biso   1.000  N
  N10      1.0000 0.50110  0.70150  0.40780  Biso   1.000  N
  O1       1.0000 0.71370  0.04450  0.42310  Biso   1.000  O
  O2       1.0000 0.28630  0.54450  0.57690  Biso   1.000  O
  O3       1.0000 0.86260  0.52990  0.96750  Biso   1.000  O
  O4       1.0000 0.13740  0.02990  0.03250  Biso   1.000  O
  C1       1.0000 0.73890  0.87460  0.24240  Biso   1.000  C
  C2       1.0000 0.26110  0.37460  0.75760  Biso   1.000  C
  C3       1.0000 0.69920  0.03160  0.29720  Biso   1.000  C
  C4       1.0000 0.30080  0.53160  0.70280  Biso   1.000  C
  C5       1.0000 0.64110  0.18530  0.20910  Biso   1.000  C
  C6       1.0000 0.35890  0.68530  0.79090  Biso   1.000  C
  H1       1.0000 0.61470  0.29190  0.24220  Biso   1.000  H
  H2       1.0000 0.38530  0.79190  0.75780  Biso   1.000  H
  C7       1.0000 0.62300  0.17970  0.07540  Biso   1.000  C
  C8       1.0000 0.37700  0.67970  0.92460  Biso   1.000  C
  H3       1.0000 0.58340  0.28230  0.01920  Biso   1.000  H
  H4       1.0000 0.41660  0.78230  0.98080  Biso   1.000  H
  C9       1.0000 0.66190  0.02660  0.02240  Biso   1.000  C
  C10      1.0000 0.33810  0.52660  0.97760  Biso   1.000  C
  H5       1.0000 0.64890  0.02580  0.93150  Biso   1.000  H
  H6       1.0000 0.35110  0.52580  0.06850  Biso   1.000  H
  C11      1.0000 0.72030  0.87410  0.10470  Biso   1.000  C
  C12      1.0000 0.27970  0.37410  0.89530  Biso   1.000  C
  H7       1.0000 0.74770  0.77040  0.06950  Biso   1.000  H
  H8       1.0000 0.25230  0.27040  0.93050  Biso   1.000  H
  C13      1.0000 0.80230  0.71000  0.32190  Biso   1.000  C
  C14      1.0000 0.19770  0.21000  0.67810  Biso   1.000  C
  H9       1.0000 0.83110  0.61550  0.27960  Biso   1.000  H
  H10      1.0000 0.16890  0.11550  0.72040  Biso   1.000  H
  C15      1.0000 0.88970  0.51350  0.51900  Biso   1.000  C
  C16      1.0000 0.11030  0.01350  0.48100  Biso   1.000  C
  H11      1.0000 0.99250  0.53400  0.57440  Biso   1.000  H
  H12      1.0000 0.00750  0.03400  0.42560  Biso   1.000  H
  H13      1.0000 0.87920  0.41470  0.45410  Biso   1.000  H
  H14      1.0000 0.12080  0.91470  0.54590  Biso   1.000  H
  C17      1.0000 0.81510  0.45990  0.60950  Biso   1.000  C
  C18      1.0000 0.18490  0.95990  0.39050  Biso   1.000  C
  H15      1.0000 0.71950  0.40960  0.55370  Biso   1.000  H
  H16      1.0000 0.28050  0.90960  0.44630  Biso   1.000  H
  H17      1.0000 0.87120  0.36460  0.67390  Biso   1.000  H
  H18      1.0000 0.12880  0.86460  0.32610  Biso   1.000  H
  C19      1.0000 0.93930  0.67490  0.80430  Biso   1.000  C
  C20      1.0000 0.06070  0.17490  0.19570  Biso   1.000  C
  H19      1.0000 0.93200  0.80050  0.83390  Biso   1.000  H
  H20      1.0000 0.06800  0.30050  0.16610  Biso   1.000  H
  H21      1.0000 0.01780  0.67290  0.77530  Biso   1.000  H
  H22      1.0000 0.98220  0.17290  0.22470  Biso   1.000  H
  C21      1.0000 0.97540  0.54310  0.92400  Biso   1.000  C
  C22      1.0000 0.02460  0.04310  0.07600  Biso   1.000  C
  H23      1.0000 0.99460  0.42050  0.89780  Biso   1.000  H
  H24      1.0000 0.00540  0.92050  0.10220  Biso   1.000  H
  H25      1.0000 0.06310  0.58570  0.00000  Biso   1.000  H
  H26      1.0000 0.93690  0.08570  0.00000  Biso   1.000  H
  C23      1.0000 0.73350  0.46470  0.85650  Biso   1.000  C
  C24      1.0000 0.26650  0.96470  0.14350  Biso   1.000  C
  H27      1.0000 0.65630  0.45280  0.88670  Biso   1.000  H
  H28      1.0000 0.34370  0.95280  0.11330  Biso   1.000  H
  H29      1.0000 0.75120  0.34280  0.82780  Biso   1.000  H
  H30      1.0000 0.24880  0.84280  0.17220  Biso   1.000  H
  C25      1.0000 0.68680  0.59780  0.73670  Biso   1.000  C
  C26      1.0000 0.31320  0.09780  0.26330  Biso   1.000  C
  H31      1.0000 0.59970  0.54990  0.66270  Biso   1.000  H
  H32      1.0000 0.40030  0.04990  0.33730  Biso   1.000  H
  H33      1.0000 0.66290  0.71690  0.76440  Biso   1.000  H
  H34      1.0000 0.33710  0.21690  0.23560  Biso   1.000  H
