data_image0
_cell_length_a       14.471
_cell_length_b       14.471
_cell_length_c       50.372
_cell_angle_alpha    90
_cell_angle_beta     90
_cell_angle_gamma    120

_symmetry_space_group_name_H-M    "P 1"
_symmetry_int_tables_number       1

loop_
  _symmetry_equiv_pos_as_xyz
  'x, y, z'

loop_
  _atom_site_label
  _atom_site_occupancy
  _atom_site_fract_x
  _atom_site_fract_y
  _atom_site_fract_z
  _atom_site_thermal_displace_type
  _atom_site_B_iso_or_equiv
  _atom_site_type_symbol
  Fe1      1.0000 0.51060  0.00000  0.00000  Biso   1.000  Fe
  Fe2      1.0000 0.00000  0.51060  0.33333  Biso   1.000  Fe
  Fe3      1.0000 0.48940  0.48940  0.66667  Biso   1.000  Fe
  Fe4      1.0000 0.48940  0.00000  0.50000  Biso   1.000  Fe
  Fe5      1.0000 0.00000  0.48940  0.83333  Biso   1.000  Fe
  Fe6      1.0000 0.51060  0.51060  0.16667  Biso   1.000  Fe
  Cu1      1.0000 0.42040  0.10590  0.03518  Biso   1.000  Cu
  Cu2      1.0000 0.89410  0.31450  0.36851  Biso   1.000  Cu
  Cu3      1.0000 0.68550  0.57960  0.70185  Biso   1.000  Cu
  Cu4      1.0000 0.10590  0.42040  0.29815  Biso   1.000  Cu
  Cu5      1.0000 0.31450  0.89410  0.96482  Biso   1.000  Cu
  Cu6      1.0000 0.57960  0.68550  0.63149  Biso   1.000  Cu
  Cu7      1.0000 0.57960  0.89410  0.53518  Biso   1.000  Cu
  Cu8      1.0000 0.10590  0.68550  0.86851  Biso   1.000  Cu
  Cu9      1.0000 0.31450  0.42040  0.20185  Biso   1.000  Cu
  Cu10     1.0000 0.89410  0.57960  0.79815  Biso   1.000  Cu
  Cu11     1.0000 0.68550  0.10590  0.46482  Biso   1.000  Cu
  Cu12     1.0000 0.42040  0.31450  0.13149  Biso   1.000  Cu
  O1       1.0000 0.55410  0.13960  0.01820  Biso   1.000  O
  O2       1.0000 0.86040  0.41450  0.35153  Biso   1.000  O
  O3       1.0000 0.58550  0.44590  0.68487  Biso   1.000  O
  O4       1.0000 0.13960  0.55410  0.31513  Biso   1.000  O
  O5       1.0000 0.41450  0.86040  0.98180  Biso   1.000  O
  O6       1.0000 0.44590  0.58550  0.64847  Biso   1.000  O
  O7       1.0000 0.44590  0.86040  0.51820  Biso   1.000  O
  O8       1.0000 0.13960  0.58550  0.85153  Biso   1.000  O
  O9       1.0000 0.41450  0.55410  0.18487  Biso   1.000  O
  O10      1.0000 0.86040  0.44590  0.81513  Biso   1.000  O
  O11      1.0000 0.58550  0.13960  0.48180  Biso   1.000  O
  O12      1.0000 0.55410  0.41450  0.14847  Biso   1.000  O
  C1       1.0000 0.63500  0.24040  0.01700  Biso   1.000  C
  C2       1.0000 0.75960  0.39460  0.35033  Biso   1.000  C
  C3       1.0000 0.60540  0.36500  0.68367  Biso   1.000  C
  C4       1.0000 0.24040  0.63500  0.31633  Biso   1.000  C
  C5       1.0000 0.39460  0.75960  0.98300  Biso   1.000  C
  C6       1.0000 0.36500  0.60540  0.64967  Biso   1.000  C
  C7       1.0000 0.36500  0.75960  0.51700  Biso   1.000  C
  C8       1.0000 0.24040  0.60540  0.85033  Biso   1.000  C
  C9       1.0000 0.39460  0.63500  0.18367  Biso   1.000  C
  C10      1.0000 0.75960  0.36500  0.81633  Biso   1.000  C
  C11      1.0000 0.60540  0.24040  0.48300  Biso   1.000  C
  C12      1.0000 0.63500  0.39460  0.14967  Biso   1.000  C
  C13      1.0000 0.74000  0.25600  0.01610  Biso   1.000  C
  C14      1.0000 0.74400  0.48400  0.34943  Biso   1.000  C
  C15      1.0000 0.51600  0.26000  0.68277  Biso   1.000  C
  C16      1.0000 0.25600  0.74000  0.31723  Biso   1.000  C
  C17      1.0000 0.48400  0.74400  0.98390  Biso   1.000  C
  C18      1.0000 0.26000  0.51600  0.65057  Biso   1.000  C
  C19      1.0000 0.26000  0.74400  0.51610  Biso   1.000  C
  C20      1.0000 0.25600  0.51600  0.84943  Biso   1.000  C
  C21      1.0000 0.48400  0.74000  0.18277  Biso   1.000  C
  C22      1.0000 0.74400  0.26000  0.81723  Biso   1.000  C
  C23      1.0000 0.51600  0.25600  0.48390  Biso   1.000  C
  C24      1.0000 0.74000  0.48400  0.15057  Biso   1.000  C
  C25      1.0000 0.82700  0.35900  0.01370  Biso   1.000  C
  C26      1.0000 0.64100  0.46800  0.34703  Biso   1.000  C
  C27      1.0000 0.53200  0.17300  0.68037  Biso   1.000  C
  C28      1.0000 0.35900  0.82700  0.31963  Biso   1.000  C
  C29      1.0000 0.46800  0.64100  0.98630  Biso   1.000  C
  C30      1.0000 0.17300  0.53200  0.65297  Biso   1.000  C
  C31      1.0000 0.17300  0.64100  0.51370  Biso   1.000  C
  C32      1.0000 0.35900  0.53200  0.84703  Biso   1.000  C
  C33      1.0000 0.46800  0.82700  0.18037  Biso   1.000  C
  C34      1.0000 0.64100  0.17300  0.81963  Biso   1.000  C
  C35      1.0000 0.53200  0.35900  0.48630  Biso   1.000  C
  C36      1.0000 0.82700  0.46800  0.15297  Biso   1.000  C
  C37      1.0000 0.81300  0.44600  0.01270  Biso   1.000  C
  C38      1.0000 0.55400  0.36700  0.34603  Biso   1.000  C
  C39      1.0000 0.63300  0.18700  0.67937  Biso   1.000  C
  C40      1.0000 0.44600  0.81300  0.32063  Biso   1.000  C
  C41      1.0000 0.36700  0.55400  0.98730  Biso   1.000  C
  C42      1.0000 0.18700  0.63300  0.65397  Biso   1.000  C
  C43      1.0000 0.18700  0.55400  0.51270  Biso   1.000  C
  C44      1.0000 0.44600  0.63300  0.84603  Biso   1.000  C
  C45      1.0000 0.36700  0.81300  0.17937  Biso   1.000  C
  C46      1.0000 0.55400  0.18700  0.82063  Biso   1.000  C
  C47      1.0000 0.63300  0.44600  0.48730  Biso   1.000  C
  C48      1.0000 0.81300  0.36700  0.15397  Biso   1.000  C
  C49      1.0000 0.71200  0.43300  0.01300  Biso   1.000  C
  C50      1.0000 0.56700  0.27900  0.34633  Biso   1.000  C
  C51      1.0000 0.72100  0.28800  0.67967  Biso   1.000  C
  C52      1.0000 0.43300  0.71200  0.32033  Biso   1.000  C
  C53      1.0000 0.27900  0.56700  0.98700  Biso   1.000  C
  C54      1.0000 0.28800  0.72100  0.65367  Biso   1.000  C
  C55      1.0000 0.28800  0.56700  0.51300  Biso   1.000  C
  C56      1.0000 0.43300  0.72100  0.84633  Biso   1.000  C
  C57      1.0000 0.27900  0.71200  0.17967  Biso   1.000  C
  C58      1.0000 0.56700  0.28800  0.82033  Biso   1.000  C
  C59      1.0000 0.72100  0.43300  0.48700  Biso   1.000  C
  C60      1.0000 0.71200  0.27900  0.15367  Biso   1.000  C
  C61      1.0000 0.62050  0.33080  0.01510  Biso   1.000  C
  C62      1.0000 0.66920  0.28970  0.34843  Biso   1.000  C
  C63      1.0000 0.71030  0.37950  0.68177  Biso   1.000  C
  C64      1.0000 0.33080  0.62050  0.31823  Biso   1.000  C
  C65      1.0000 0.28970  0.66920  0.98490  Biso   1.000  C
  C66      1.0000 0.37950  0.71030  0.65157  Biso   1.000  C
  C67      1.0000 0.37950  0.66920  0.51510  Biso   1.000  C
  C68      1.0000 0.33080  0.71030  0.84843  Biso   1.000  C
  C69      1.0000 0.28970  0.62050  0.18177  Biso   1.000  C
  C70      1.0000 0.66920  0.37950  0.81823  Biso   1.000  C
  C71      1.0000 0.71030  0.33080  0.48490  Biso   1.000  C
  C72      1.0000 0.62050  0.28970  0.15157  Biso   1.000  C
  C73      1.0000 0.51500  0.32200  0.01470  Biso   1.000  C
  C74      1.0000 0.67800  0.19300  0.34803  Biso   1.000  C
  C75      1.0000 0.80700  0.48500  0.68137  Biso   1.000  C
  C76      1.0000 0.32200  0.51500  0.31863  Biso   1.000  C
  C77      1.0000 0.19300  0.67800  0.98530  Biso   1.000  C
  C78      1.0000 0.48500  0.80700  0.65197  Biso   1.000  C
  C79      1.0000 0.48500  0.67800  0.51470  Biso   1.000  C
  C80      1.0000 0.32200  0.80700  0.84803  Biso   1.000  C
  C81      1.0000 0.19300  0.51500  0.18137  Biso   1.000  C
  C82      1.0000 0.67800  0.48500  0.81863  Biso   1.000  C
  C83      1.0000 0.80700  0.32200  0.48530  Biso   1.000  C
  C84      1.0000 0.51500  0.19300  0.15197  Biso   1.000  C
  N1       1.0000 0.43390  0.24100  0.02490  Biso   1.000  N
  N2       1.0000 0.75900  0.19290  0.35823  Biso   1.000  N
  N3       1.0000 0.80710  0.56610  0.69157  Biso   1.000  N
  N4       1.0000 0.24100  0.43390  0.30843  Biso   1.000  N
  N5       1.0000 0.19290  0.75900  0.97510  Biso   1.000  N
  N6       1.0000 0.56610  0.80710  0.64177  Biso   1.000  N
  N7       1.0000 0.56610  0.75900  0.52490  Biso   1.000  N
  N8       1.0000 0.24100  0.80710  0.85823  Biso   1.000  N
  N9       1.0000 0.19290  0.43390  0.19157  Biso   1.000  N
  N10      1.0000 0.75900  0.56610  0.80843  Biso   1.000  N
  N11      1.0000 0.80710  0.24100  0.47510  Biso   1.000  N
  N12      1.0000 0.43390  0.19290  0.14177  Biso   1.000  N
  C85      1.0000 0.32600  0.23100  0.02330  Biso   1.000  C
  C86      1.0000 0.76900  0.09500  0.35663  Biso   1.000  C
  C87      1.0000 0.90500  0.67400  0.68997  Biso   1.000  C
  C88      1.0000 0.23100  0.32600  0.31003  Biso   1.000  C
  C89      1.0000 0.09500  0.76900  0.97670  Biso   1.000  C
  C90      1.0000 0.67400  0.90500  0.64337  Biso   1.000  C
  C91      1.0000 0.67400  0.76900  0.52330  Biso   1.000  C
  C92      1.0000 0.23100  0.90500  0.85663  Biso   1.000  C
  C93      1.0000 0.09500  0.32600  0.18997  Biso   1.000  C
  C94      1.0000 0.76900  0.67400  0.81003  Biso   1.000  C
  C95      1.0000 0.90500  0.23100  0.47670  Biso   1.000  C
  C96      1.0000 0.32600  0.09500  0.14337  Biso   1.000  C
  C97      1.0000 0.50500  0.41100  0.00210  Biso   1.000  C
  C98      1.0000 0.58900  0.09400  0.33543  Biso   1.000  C
  C99      1.0000 0.90600  0.49500  0.66877  Biso   1.000  C
  C100     1.0000 0.41100  0.50500  0.33123  Biso   1.000  C
  C101     1.0000 0.09400  0.58900  0.99790  Biso   1.000  C
  C102     1.0000 0.49500  0.90600  0.66457  Biso   1.000  C
  C103     1.0000 0.49500  0.58900  0.50210  Biso   1.000  C
  C104     1.0000 0.41100  0.90600  0.83543  Biso   1.000  C
  C105     1.0000 0.09400  0.50500  0.16877  Biso   1.000  C
  C106     1.0000 0.58900  0.49500  0.83123  Biso   1.000  C
  C107     1.0000 0.90600  0.41100  0.49790  Biso   1.000  C
  C108     1.0000 0.50500  0.09400  0.16457  Biso   1.000  C
  O13      1.0000 0.39280  0.96410  0.02780  Biso   1.000  O
  O14      1.0000 0.03590  0.42870  0.36113  Biso   1.000  O
  O15      1.0000 0.57130  0.60720  0.69447  Biso   1.000  O
  O16      1.0000 0.96410  0.39280  0.30553  Biso   1.000  O
  O17      1.0000 0.42870  0.03590  0.97220  Biso   1.000  O
  O18      1.0000 0.60720  0.57130  0.63887  Biso   1.000  O
  O19      1.0000 0.60720  0.03590  0.52780  Biso   1.000  O
  O20      1.0000 0.96410  0.57130  0.86113  Biso   1.000  O
  O21      1.0000 0.42870  0.39280  0.19447  Biso   1.000  O
  O22      1.0000 0.03590  0.60720  0.80553  Biso   1.000  O
  O23      1.0000 0.57130  0.96410  0.47220  Biso   1.000  O
  O24      1.0000 0.39280  0.42870  0.13887  Biso   1.000  O
  C109     1.0000 0.31300  0.87370  0.03890  Biso   1.000  C
  C110     1.0000 0.12630  0.43930  0.37223  Biso   1.000  C
  C111     1.0000 0.56070  0.68700  0.70557  Biso   1.000  C
  C112     1.0000 0.87370  0.31300  0.29443  Biso   1.000  C
  C113     1.0000 0.43930  0.12630  0.96110  Biso   1.000  C
  C114     1.0000 0.68700  0.56070  0.62777  Biso   1.000  C
  C115     1.0000 0.68700  0.12630  0.53890  Biso   1.000  C
  C116     1.0000 0.87370  0.56070  0.87223  Biso   1.000  C
  C117     1.0000 0.43930  0.31300  0.20557  Biso   1.000  C
  C118     1.0000 0.12630  0.68700  0.79443  Biso   1.000  C
  C119     1.0000 0.56070  0.87370  0.46110  Biso   1.000  C
  C120     1.0000 0.31300  0.43930  0.12777  Biso   1.000  C
  C121     1.0000 0.33000  0.78800  0.04220  Biso   1.000  C
  C122     1.0000 0.21200  0.54200  0.37553  Biso   1.000  C
  C123     1.0000 0.45800  0.67000  0.70887  Biso   1.000  C
  C124     1.0000 0.78800  0.33000  0.29113  Biso   1.000  C
  C125     1.0000 0.54200  0.21200  0.95780  Biso   1.000  C
  C126     1.0000 0.67000  0.45800  0.62447  Biso   1.000  C
  C127     1.0000 0.67000  0.21200  0.54220  Biso   1.000  C
  C128     1.0000 0.78800  0.45800  0.87553  Biso   1.000  C
  C129     1.0000 0.54200  0.33000  0.20887  Biso   1.000  C
  C130     1.0000 0.21200  0.67000  0.79113  Biso   1.000  C
  C131     1.0000 0.45800  0.78800  0.45780  Biso   1.000  C
  C132     1.0000 0.33000  0.54200  0.12447  Biso   1.000  C
  C133     1.0000 0.25000  0.69400  0.05430  Biso   1.000  C
  C134     1.0000 0.30600  0.55600  0.38763  Biso   1.000  C
  C135     1.0000 0.44400  0.75000  0.72097  Biso   1.000  C
  C136     1.0000 0.69400  0.25000  0.27903  Biso   1.000  C
  C137     1.0000 0.55600  0.30600  0.94570  Biso   1.000  C
  C138     1.0000 0.75000  0.44400  0.61237  Biso   1.000  C
  C139     1.0000 0.75000  0.30600  0.55430  Biso   1.000  C
  C140     1.0000 0.69400  0.44400  0.88763  Biso   1.000  C
  C141     1.0000 0.55600  0.25000  0.22097  Biso   1.000  C
  C142     1.0000 0.30600  0.75000  0.77903  Biso   1.000  C
  C143     1.0000 0.44400  0.69400  0.44570  Biso   1.000  C
  C144     1.0000 0.25000  0.55600  0.11237  Biso   1.000  C
  C145     1.0000 0.15500  0.68400  0.06300  Biso   1.000  C
  C146     1.0000 0.31600  0.47100  0.39633  Biso   1.000  C
  C147     1.0000 0.52900  0.84500  0.72967  Biso   1.000  C
  C148     1.0000 0.68400  0.15500  0.27033  Biso   1.000  C
  C149     1.0000 0.47100  0.31600  0.93700  Biso   1.000  C
  C150     1.0000 0.84500  0.52900  0.60367  Biso   1.000  C
  C151     1.0000 0.84500  0.31600  0.56300  Biso   1.000  C
  C152     1.0000 0.68400  0.52900  0.89633  Biso   1.000  C
  C153     1.0000 0.47100  0.15500  0.22967  Biso   1.000  C
  C154     1.0000 0.31600  0.84500  0.77033  Biso   1.000  C
  C155     1.0000 0.52900  0.68400  0.43700  Biso   1.000  C
  C156     1.0000 0.15500  0.47100  0.10367  Biso   1.000  C
  C157     1.0000 0.13700  0.77200  0.05970  Biso   1.000  C
  C158     1.0000 0.22800  0.36500  0.39303  Biso   1.000  C
  C159     1.0000 0.63500  0.86300  0.72637  Biso   1.000  C
  C160     1.0000 0.77200  0.13700  0.27363  Biso   1.000  C
  C161     1.0000 0.36500  0.22800  0.94030  Biso   1.000  C
  C162     1.0000 0.86300  0.63500  0.60697  Biso   1.000  C
  C163     1.0000 0.86300  0.22800  0.55970  Biso   1.000  C
  C164     1.0000 0.77200  0.63500  0.89303  Biso   1.000  C
  C165     1.0000 0.36500  0.13700  0.22637  Biso   1.000  C
  C166     1.0000 0.22800  0.86300  0.77363  Biso   1.000  C
  C167     1.0000 0.63500  0.77200  0.44030  Biso   1.000  C
  C168     1.0000 0.13700  0.36500  0.10697  Biso   1.000  C
  C169     1.0000 0.21700  0.86900  0.04680  Biso   1.000  C
  C170     1.0000 0.13100  0.34800  0.38013  Biso   1.000  C
  C171     1.0000 0.65200  0.78300  0.71347  Biso   1.000  C
  C172     1.0000 0.86900  0.21700  0.28653  Biso   1.000  C
  C173     1.0000 0.34800  0.13100  0.95320  Biso   1.000  C
  C174     1.0000 0.78300  0.65200  0.61987  Biso   1.000  C
  C175     1.0000 0.78300  0.13100  0.54680  Biso   1.000  C
  C176     1.0000 0.86900  0.65200  0.88013  Biso   1.000  C
  C177     1.0000 0.34800  0.21700  0.21347  Biso   1.000  C
  C178     1.0000 0.13100  0.78300  0.78653  Biso   1.000  C
  C179     1.0000 0.65200  0.86900  0.45320  Biso   1.000  C
  C180     1.0000 0.21700  0.34800  0.11987  Biso   1.000  C
  C181     1.0000 0.19300  0.95800  0.04570  Biso   1.000  C
  C182     1.0000 0.04200  0.23500  0.37903  Biso   1.000  C
  C183     1.0000 0.76500  0.80700  0.71237  Biso   1.000  C
  C184     1.0000 0.95800  0.19300  0.28763  Biso   1.000  C
  C185     1.0000 0.23500  0.04200  0.95430  Biso   1.000  C
  C186     1.0000 0.80700  0.76500  0.62097  Biso   1.000  C
  C187     1.0000 0.80700  0.04200  0.54570  Biso   1.000  C
  C188     1.0000 0.95800  0.76500  0.87903  Biso   1.000  C
  C189     1.0000 0.23500  0.19300  0.21237  Biso   1.000  C
  C190     1.0000 0.04200  0.80700  0.78763  Biso   1.000  C
  C191     1.0000 0.76500  0.95800  0.45430  Biso   1.000  C
  C192     1.0000 0.19300  0.23500  0.12097  Biso   1.000  C
  N13      1.0000 0.27110  0.05490  0.04370  Biso   1.000  N
  N14      1.0000 0.94510  0.21620  0.37703  Biso   1.000  N
  N15      1.0000 0.78380  0.72890  0.71037  Biso   1.000  N
  N16      1.0000 0.05490  0.27110  0.28963  Biso   1.000  N
  N17      1.0000 0.21620  0.94510  0.95630  Biso   1.000  N
  N18      1.0000 0.72890  0.78380  0.62297  Biso   1.000  N
  N19      1.0000 0.72890  0.94510  0.54370  Biso   1.000  N
  N20      1.0000 0.05490  0.78380  0.87703  Biso   1.000  N
  N21      1.0000 0.21620  0.27110  0.21037  Biso   1.000  N
  N22      1.0000 0.94510  0.72890  0.78963  Biso   1.000  N
  N23      1.0000 0.78380  0.05490  0.45630  Biso   1.000  N
  N24      1.0000 0.27110  0.21620  0.12297  Biso   1.000  N
  C193     1.0000 0.25600  0.14800  0.04500  Biso   1.000  C
  C194     1.0000 0.85200  0.10800  0.37833  Biso   1.000  C
  C195     1.0000 0.89200  0.74400  0.71167  Biso   1.000  C
  C196     1.0000 0.14800  0.25600  0.28833  Biso   1.000  C
  C197     1.0000 0.10800  0.85200  0.95500  Biso   1.000  C
  C198     1.0000 0.74400  0.89200  0.62167  Biso   1.000  C
  C199     1.0000 0.74400  0.85200  0.54500  Biso   1.000  C
  C200     1.0000 0.14800  0.89200  0.87833  Biso   1.000  C
  C201     1.0000 0.10800  0.25600  0.21167  Biso   1.000  C
  C202     1.0000 0.85200  0.74400  0.78833  Biso   1.000  C
  C203     1.0000 0.89200  0.14800  0.45500  Biso   1.000  C
  C204     1.0000 0.25600  0.10800  0.12167  Biso   1.000  C
  C205     1.0000 0.07900  0.93200  0.04880  Biso   1.000  C
  C206     1.0000 0.06800  0.14700  0.38213  Biso   1.000  C
  C207     1.0000 0.85300  0.92100  0.71547  Biso   1.000  C
  C208     1.0000 0.93200  0.07900  0.28453  Biso   1.000  C
  C209     1.0000 0.14700  0.06800  0.95120  Biso   1.000  C
  C210     1.0000 0.92100  0.85300  0.61787  Biso   1.000  C
  C211     1.0000 0.92100  0.06800  0.54880  Biso   1.000  C
  C212     1.0000 0.93200  0.85300  0.88213  Biso   1.000  C
  C213     1.0000 0.14700  0.07900  0.21547  Biso   1.000  C
  C214     1.0000 0.06800  0.92100  0.78453  Biso   1.000  C
  C215     1.0000 0.85300  0.93200  0.45120  Biso   1.000  C
  C216     1.0000 0.07900  0.14700  0.11787  Biso   1.000  C
  O25      1.0000 0.58320  0.94910  0.02390  Biso   1.000  O
  O26      1.0000 0.05090  0.63410  0.35723  Biso   1.000  O
  O27      1.0000 0.36590  0.41680  0.69057  Biso   1.000  O
  O28      1.0000 0.94910  0.58320  0.30943  Biso   1.000  O
  O29      1.0000 0.63410  0.05090  0.97610  Biso   1.000  O
  O30      1.0000 0.41680  0.36590  0.64277  Biso   1.000  O
  O31      1.0000 0.41680  0.05090  0.52390  Biso   1.000  O
  O32      1.0000 0.94910  0.36590  0.85723  Biso   1.000  O
  O33      1.0000 0.63410  0.58320  0.19057  Biso   1.000  O
  O34      1.0000 0.05090  0.41680  0.80943  Biso   1.000  O
  O35      1.0000 0.36590  0.94910  0.47610  Biso   1.000  O
  O36      1.0000 0.58320  0.63410  0.14277  Biso   1.000  O
  C217     1.0000 0.67300  0.95700  0.02150  Biso   1.000  C
  C218     1.0000 0.04300  0.71600  0.35483  Biso   1.000  C
  C219     1.0000 0.28400  0.32700  0.68817  Biso   1.000  C
  C220     1.0000 0.95700  0.67300  0.31183  Biso   1.000  C
  C221     1.0000 0.71600  0.04300  0.97850  Biso   1.000  C
  C222     1.0000 0.32700  0.28400  0.64517  Biso   1.000  C
  C223     1.0000 0.32700  0.04300  0.52150  Biso   1.000  C
  C224     1.0000 0.95700  0.28400  0.85483  Biso   1.000  C
  C225     1.0000 0.71600  0.67300  0.18817  Biso   1.000  C
  C226     1.0000 0.04300  0.32700  0.81183  Biso   1.000  C
  C227     1.0000 0.28400  0.95700  0.47850  Biso   1.000  C
  C228     1.0000 0.67300  0.71600  0.14517  Biso   1.000  C
  C229     1.0000 0.73900  0.00000  0.00000  Biso   1.000  C
  C230     1.0000 1.00000  0.73900  0.33333  Biso   1.000  C
  C231     1.0000 0.26100  0.26100  0.66667  Biso   1.000  C
  C232     1.0000 0.26100  0.00000  0.50000  Biso   1.000  C
  C233     1.0000 0.00000  0.26100  0.83333  Biso   1.000  C
  C234     1.0000 0.73900  0.73900  0.16667  Biso   1.000  C
  C235     1.0000 0.70300  0.90600  0.04440  Biso   1.000  C
  C236     1.0000 0.09400  0.79700  0.37773  Biso   1.000  C
  C237     1.0000 0.20300  0.29700  0.71107  Biso   1.000  C
  C238     1.0000 0.90600  0.70300  0.28893  Biso   1.000  C
  C239     1.0000 0.79700  0.09400  0.95560  Biso   1.000  C
  C240     1.0000 0.29700  0.20300  0.62227  Biso   1.000  C
  C241     1.0000 0.29700  0.09400  0.54440  Biso   1.000  C
  C242     1.0000 0.90600  0.20300  0.87773  Biso   1.000  C
  C243     1.0000 0.79700  0.70300  0.21107  Biso   1.000  C
  C244     1.0000 0.09400  0.29700  0.78893  Biso   1.000  C
  C245     1.0000 0.20300  0.90600  0.45560  Biso   1.000  C
  C246     1.0000 0.70300  0.79700  0.12227  Biso   1.000  C
  O37      1.0000 0.49690  0.15550  0.07780  Biso   1.000  O
  O38      1.0000 0.84450  0.34140  0.41113  Biso   1.000  O
  O39      1.0000 0.65860  0.50310  0.74447  Biso   1.000  O
  O40      1.0000 0.15550  0.49690  0.25553  Biso   1.000  O
  O41      1.0000 0.34140  0.84450  0.92220  Biso   1.000  O
  O42      1.0000 0.50310  0.65860  0.58887  Biso   1.000  O
  O43      1.0000 0.50310  0.84450  0.57780  Biso   1.000  O
  O44      1.0000 0.15550  0.65860  0.91113  Biso   1.000  O
  O45      1.0000 0.34140  0.49690  0.24447  Biso   1.000  O
  O46      1.0000 0.84450  0.50310  0.75553  Biso   1.000  O
  O47      1.0000 0.65860  0.15550  0.42220  Biso   1.000  O
  O48      1.0000 0.49690  0.34140  0.08887  Biso   1.000  O
  Cu13     1.0000 0.60220  0.30110  0.08330  Biso   1.000  Cu
  Cu14     1.0000 0.69890  0.30110  0.41663  Biso   1.000  Cu
  Cu15     1.0000 0.69890  0.39780  0.74997  Biso   1.000  Cu
  Cu16     1.0000 0.30110  0.60220  0.25003  Biso   1.000  Cu
  Cu17     1.0000 0.30110  0.69890  0.91670  Biso   1.000  Cu
  Cu18     1.0000 0.39780  0.69890  0.58337  Biso   1.000  Cu
  C247     1.0000 0.50200  0.07600  0.08960  Biso   1.000  C
  C248     1.0000 0.92400  0.42600  0.42293  Biso   1.000  C
  C249     1.0000 0.57400  0.49800  0.75627  Biso   1.000  C
  C250     1.0000 0.07600  0.50200  0.24373  Biso   1.000  C
  C251     1.0000 0.42600  0.92400  0.91040  Biso   1.000  C
  C252     1.0000 0.49800  0.57400  0.57707  Biso   1.000  C
  C253     1.0000 0.49800  0.92400  0.58960  Biso   1.000  C
  C254     1.0000 0.07600  0.57400  0.92293  Biso   1.000  C
  C255     1.0000 0.42600  0.50200  0.25627  Biso   1.000  C
  C256     1.0000 0.92400  0.49800  0.74373  Biso   1.000  C
  C257     1.0000 0.57400  0.07600  0.41040  Biso   1.000  C
  C258     1.0000 0.50200  0.42600  0.07707  Biso   1.000  C
  C259     1.0000 0.40300  0.98200  0.09490  Biso   1.000  C
  C260     1.0000 0.01800  0.42100  0.42823  Biso   1.000  C
  C261     1.0000 0.57900  0.59700  0.76157  Biso   1.000  C
  C262     1.0000 0.98200  0.40300  0.23843  Biso   1.000  C
  C263     1.0000 0.42100  0.01800  0.90510  Biso   1.000  C
  C264     1.0000 0.59700  0.57900  0.57177  Biso   1.000  C
  C265     1.0000 0.59700  0.01800  0.59490  Biso   1.000  C
  C266     1.0000 0.98200  0.57900  0.92823  Biso   1.000  C
  C267     1.0000 0.42100  0.40300  0.26157  Biso   1.000  C
  C268     1.0000 0.01800  0.59700  0.73843  Biso   1.000  C
  C269     1.0000 0.57900  0.98200  0.40510  Biso   1.000  C
  C270     1.0000 0.40300  0.42100  0.07177  Biso   1.000  C
  C271     1.0000 0.40000  0.89300  0.10660  Biso   1.000  C
  C272     1.0000 0.10700  0.50700  0.43993  Biso   1.000  C
  C273     1.0000 0.49300  0.60000  0.77327  Biso   1.000  C
  C274     1.0000 0.89300  0.40000  0.22673  Biso   1.000  C
  C275     1.0000 0.50700  0.10700  0.89340  Biso   1.000  C
  C276     1.0000 0.60000  0.49300  0.56007  Biso   1.000  C
  C277     1.0000 0.60000  0.10700  0.60660  Biso   1.000  C
  C278     1.0000 0.89300  0.49300  0.93993  Biso   1.000  C
  C279     1.0000 0.50700  0.40000  0.27327  Biso   1.000  C
  C280     1.0000 0.10700  0.60000  0.72673  Biso   1.000  C
  C281     1.0000 0.49300  0.89300  0.39340  Biso   1.000  C
  C282     1.0000 0.40000  0.50700  0.06007  Biso   1.000  C
  C283     1.0000 0.49800  0.89700  0.11330  Biso   1.000  C
  C284     1.0000 0.10300  0.60100  0.44663  Biso   1.000  C
  C285     1.0000 0.39900  0.50200  0.77997  Biso   1.000  C
  C286     1.0000 0.89700  0.49800  0.22003  Biso   1.000  C
  C287     1.0000 0.60100  0.10300  0.88670  Biso   1.000  C
  C288     1.0000 0.50200  0.39900  0.55337  Biso   1.000  C
  C289     1.0000 0.50200  0.10300  0.61330  Biso   1.000  C
  C290     1.0000 0.89700  0.39900  0.94663  Biso   1.000  C
  C291     1.0000 0.60100  0.49800  0.27997  Biso   1.000  C
  C292     1.0000 0.10300  0.50200  0.72003  Biso   1.000  C
  C293     1.0000 0.39900  0.89700  0.38670  Biso   1.000  C
  C294     1.0000 0.49800  0.60100  0.05337  Biso   1.000  C
  C295     1.0000 0.59400  0.98700  0.10800  Biso   1.000  C
  C296     1.0000 0.01300  0.60700  0.44133  Biso   1.000  C
  C297     1.0000 0.39300  0.40600  0.77467  Biso   1.000  C
  C298     1.0000 0.98700  0.59400  0.22533  Biso   1.000  C
  C299     1.0000 0.60700  0.01300  0.89200  Biso   1.000  C
  C300     1.0000 0.40600  0.39300  0.55867  Biso   1.000  C
  C301     1.0000 0.40600  0.01300  0.60800  Biso   1.000  C
  C302     1.0000 0.98700  0.39300  0.94133  Biso   1.000  C
  C303     1.0000 0.60700  0.59400  0.27467  Biso   1.000  C
  C304     1.0000 0.01300  0.40600  0.72533  Biso   1.000  C
  C305     1.0000 0.39300  0.98700  0.39200  Biso   1.000  C
  C306     1.0000 0.59400  0.60700  0.05867  Biso   1.000  C
  C307     1.0000 0.60000  0.08000  0.09660  Biso   1.000  C
  C308     1.0000 0.92000  0.52000  0.42993  Biso   1.000  C
  C309     1.0000 0.48000  0.40000  0.76327  Biso   1.000  C
  C310     1.0000 0.08000  0.60000  0.23673  Biso   1.000  C
  C311     1.0000 0.52000  0.92000  0.90340  Biso   1.000  C
  C312     1.0000 0.40000  0.48000  0.57007  Biso   1.000  C
  C313     1.0000 0.40000  0.92000  0.59660  Biso   1.000  C
  C314     1.0000 0.08000  0.48000  0.92993  Biso   1.000  C
  C315     1.0000 0.52000  0.60000  0.26327  Biso   1.000  C
  C316     1.0000 0.92000  0.40000  0.73673  Biso   1.000  C
  C317     1.0000 0.48000  0.08000  0.40340  Biso   1.000  C
  C318     1.0000 0.60000  0.52000  0.07007  Biso   1.000  C
  C319     1.0000 0.70500  0.17300  0.09140  Biso   1.000  C
  C320     1.0000 0.82700  0.53200  0.42473  Biso   1.000  C
  C321     1.0000 0.46800  0.29500  0.75807  Biso   1.000  C
  C322     1.0000 0.17300  0.70500  0.24193  Biso   1.000  C
  C323     1.0000 0.53200  0.82700  0.90860  Biso   1.000  C
  C324     1.0000 0.29500  0.46800  0.57527  Biso   1.000  C
  C325     1.0000 0.29500  0.82700  0.59140  Biso   1.000  C
  C326     1.0000 0.17300  0.46800  0.92473  Biso   1.000  C
  C327     1.0000 0.53200  0.70500  0.25807  Biso   1.000  C
  C328     1.0000 0.82700  0.29500  0.74193  Biso   1.000  C
  C329     1.0000 0.46800  0.17300  0.40860  Biso   1.000  C
  C330     1.0000 0.70500  0.53200  0.07527  Biso   1.000  C
  N25      1.0000 0.71630  0.26600  0.08710  Biso   1.000  N
  N26      1.0000 0.73400  0.45030  0.42043  Biso   1.000  N
  N27      1.0000 0.54970  0.28370  0.75377  Biso   1.000  N
  N28      1.0000 0.26600  0.71630  0.24623  Biso   1.000  N
  N29      1.0000 0.45030  0.73400  0.91290  Biso   1.000  N
  N30      1.0000 0.28370  0.54970  0.57957  Biso   1.000  N
  N31      1.0000 0.28370  0.73400  0.58710  Biso   1.000  N
  N32      1.0000 0.26600  0.54970  0.92043  Biso   1.000  N
  N33      1.0000 0.45030  0.71630  0.25377  Biso   1.000  N
  N34      1.0000 0.73400  0.28370  0.74623  Biso   1.000  N
  N35      1.0000 0.54970  0.26600  0.41290  Biso   1.000  N
  N36      1.0000 0.71630  0.45030  0.07957  Biso   1.000  N
  C331     1.0000 0.82400  0.36000  0.08260  Biso   1.000  C
  C332     1.0000 0.64000  0.46400  0.41593  Biso   1.000  C
  C333     1.0000 0.53600  0.17600  0.74927  Biso   1.000  C
  C334     1.0000 0.36000  0.82400  0.25073  Biso   1.000  C
  C335     1.0000 0.46400  0.64000  0.91740  Biso   1.000  C
  C336     1.0000 0.17600  0.53600  0.58407  Biso   1.000  C
  C337     1.0000 0.17600  0.64000  0.58260  Biso   1.000  C
  C338     1.0000 0.36000  0.53600  0.91593  Biso   1.000  C
  C339     1.0000 0.46400  0.82400  0.24927  Biso   1.000  C
  C340     1.0000 0.64000  0.17600  0.75073  Biso   1.000  C
  C341     1.0000 0.53600  0.36000  0.41740  Biso   1.000  C
  C342     1.0000 0.82400  0.46400  0.08407  Biso   1.000  C
  C343     1.0000 0.80400  0.15900  0.09210  Biso   1.000  C
  C344     1.0000 0.84100  0.64500  0.42543  Biso   1.000  C
  C345     1.0000 0.35500  0.19600  0.75877  Biso   1.000  C
  C346     1.0000 0.15900  0.80400  0.24123  Biso   1.000  C
  C347     1.0000 0.64500  0.84100  0.90790  Biso   1.000  C
  C348     1.0000 0.19600  0.35500  0.57457  Biso   1.000  C
  C349     1.0000 0.19600  0.84100  0.59210  Biso   1.000  C
  C350     1.0000 0.15900  0.35500  0.92543  Biso   1.000  C
  C351     1.0000 0.64500  0.80400  0.25877  Biso   1.000  C
  C352     1.0000 0.84100  0.19600  0.74123  Biso   1.000  C
  C353     1.0000 0.35500  0.15900  0.40790  Biso   1.000  C
  C354     1.0000 0.80400  0.64500  0.07457  Biso   1.000  C
  P1       1.0000 0.05710  0.26100  0.02477  Biso   1.000  P
  P2       1.0000 0.73900  0.79610  0.35810  Biso   1.000  P
  P3       1.0000 0.20390  0.94290  0.69144  Biso   1.000  P
  P4       1.0000 0.26100  0.05710  0.30856  Biso   1.000  P
  P5       1.0000 0.79610  0.73900  0.97523  Biso   1.000  P
  P6       1.0000 0.94290  0.20390  0.64190  Biso   1.000  P
  P7       1.0000 0.94290  0.73900  0.52477  Biso   1.000  P
  P8       1.0000 0.26100  0.20390  0.85810  Biso   1.000  P
  P9       1.0000 0.79610  0.05710  0.19144  Biso   1.000  P
  P10      1.0000 0.73900  0.94290  0.80856  Biso   1.000  P
  P11      1.0000 0.20390  0.26100  0.47523  Biso   1.000  P
  P12      1.0000 0.05710  0.79610  0.14190  Biso   1.000  P
  F1       1.0000 0.08900  0.38200  0.02880  Biso   1.000  F
  F2       1.0000 0.61800  0.70700  0.36213  Biso   1.000  F
  F3       1.0000 0.29300  0.91100  0.69547  Biso   1.000  F
  F4       1.0000 0.38200  0.08900  0.30453  Biso   1.000  F
  F5       1.0000 0.70700  0.61800  0.97120  Biso   1.000  F
  F6       1.0000 0.91100  0.29300  0.63787  Biso   1.000  F
  F7       1.0000 0.91100  0.61800  0.52880  Biso   1.000  F
  F8       1.0000 0.38200  0.29300  0.86213  Biso   1.000  F
  F9       1.0000 0.70700  0.08900  0.19547  Biso   1.000  F
  F10      1.0000 0.61800  0.91100  0.80453  Biso   1.000  F
  F11      1.0000 0.29300  0.38200  0.47120  Biso   1.000  F
  F12      1.0000 0.08900  0.70700  0.13787  Biso   1.000  F
  F13      1.0000 0.95900  0.22200  0.04390  Biso   1.000  F
  F14      1.0000 0.77800  0.73700  0.37723  Biso   1.000  F
  F15      1.0000 0.26300  0.04100  0.71057  Biso   1.000  F
  F16      1.0000 0.22200  0.95900  0.28943  Biso   1.000  F
  F17      1.0000 0.73700  0.77800  0.95610  Biso   1.000  F
  F18      1.0000 0.04100  0.26300  0.62277  Biso   1.000  F
  F19      1.0000 0.04100  0.77800  0.54390  Biso   1.000  F
  F20      1.0000 0.22200  0.26300  0.87723  Biso   1.000  F
  F21      1.0000 0.73700  0.95900  0.21057  Biso   1.000  F
  F22      1.0000 0.77800  0.04100  0.78943  Biso   1.000  F
  F23      1.0000 0.26300  0.22200  0.45610  Biso   1.000  F
  F24      1.0000 0.95900  0.73700  0.12277  Biso   1.000  F
  F25      1.0000 0.98600  0.25300  0.99970  Biso   1.000  F
  F26      1.0000 0.74700  0.73300  0.33303  Biso   1.000  F
  F27      1.0000 0.26700  0.01400  0.66637  Biso   1.000  F
  F28      1.0000 0.25300  0.98600  0.33363  Biso   1.000  F
  F29      1.0000 0.73300  0.74700  0.00030  Biso   1.000  F
  F30      1.0000 0.01400  0.26700  0.66697  Biso   1.000  F
  F31      1.0000 0.01400  0.74700  0.49970  Biso   1.000  F
  F32      1.0000 0.25300  0.26700  0.83303  Biso   1.000  F
  F33      1.0000 0.73300  0.98600  0.16637  Biso   1.000  F
  F34      1.0000 0.74700  0.01400  0.83363  Biso   1.000  F
  F35      1.0000 0.26700  0.25300  0.50030  Biso   1.000  F
  F36      1.0000 0.98600  0.73300  0.16697  Biso   1.000  F
  F37      1.0000 0.15800  0.30100  0.00480  Biso   1.000  F
  F38      1.0000 0.69900  0.85700  0.33813  Biso   1.000  F
  F39      1.0000 0.14300  0.84200  0.67147  Biso   1.000  F
  F40      1.0000 0.30100  0.15800  0.32853  Biso   1.000  F
  F41      1.0000 0.85700  0.69900  0.99520  Biso   1.000  F
  F42      1.0000 0.84200  0.14300  0.66187  Biso   1.000  F
  F43      1.0000 0.84200  0.69900  0.50480  Biso   1.000  F
  F44      1.0000 0.30100  0.14300  0.83813  Biso   1.000  F
  F45      1.0000 0.85700  0.15800  0.17147  Biso   1.000  F
  F46      1.0000 0.69900  0.84200  0.82853  Biso   1.000  F
  F47      1.0000 0.14300  0.30100  0.49520  Biso   1.000  F
  F48      1.0000 0.15800  0.85700  0.16187  Biso   1.000  F
  F49      1.0000 0.03000  0.14200  0.01930  Biso   1.000  F
  F50      1.0000 0.85800  0.88800  0.35263  Biso   1.000  F
  F51      1.0000 0.11200  0.97000  0.68597  Biso   1.000  F
  F52      1.0000 0.14200  0.03000  0.31403  Biso   1.000  F
  F53      1.0000 0.88800  0.85800  0.98070  Biso   1.000  F
  F54      1.0000 0.97000  0.11200  0.64737  Biso   1.000  F
  F55      1.0000 0.97000  0.85800  0.51930  Biso   1.000  F
  F56      1.0000 0.14200  0.11200  0.85263  Biso   1.000  F
  F57      1.0000 0.88800  0.03000  0.18597  Biso   1.000  F
  F58      1.0000 0.85800  0.97000  0.81403  Biso   1.000  F
  F59      1.0000 0.11200  0.14200  0.48070  Biso   1.000  F
  F60      1.0000 0.03000  0.88800  0.14737  Biso   1.000  F
  F61      1.0000 0.13200  0.27000  0.04890  Biso   1.000  F
  F62      1.0000 0.73000  0.86200  0.38223  Biso   1.000  F
  F63      1.0000 0.13800  0.86800  0.71557  Biso   1.000  F
  F64      1.0000 0.27000  0.13200  0.28443  Biso   1.000  F
  F65      1.0000 0.86200  0.73000  0.95110  Biso   1.000  F
  F66      1.0000 0.86800  0.13800  0.61777  Biso   1.000  F
  F67      1.0000 0.86800  0.73000  0.54890  Biso   1.000  F
  F68      1.0000 0.27000  0.13800  0.88223  Biso   1.000  F
  F69      1.0000 0.86200  0.13200  0.21557  Biso   1.000  F
  F70      1.0000 0.73000  0.86800  0.78443  Biso   1.000  F
  F71      1.0000 0.13800  0.27000  0.45110  Biso   1.000  F
  F72      1.0000 0.13200  0.86200  0.11777  Biso   1.000  F
  F73      1.0000 0.18200  0.33700  0.02530  Biso   1.000  F
  F74      1.0000 0.66300  0.84500  0.35863  Biso   1.000  F
  F75      1.0000 0.15500  0.81800  0.69197  Biso   1.000  F
  F76      1.0000 0.33700  0.18200  0.30803  Biso   1.000  F
  F77      1.0000 0.84500  0.66300  0.97470  Biso   1.000  F
  F78      1.0000 0.81800  0.15500  0.64137  Biso   1.000  F
  F79      1.0000 0.81800  0.66300  0.52530  Biso   1.000  F
  F80      1.0000 0.33700  0.15500  0.85863  Biso   1.000  F
  F81      1.0000 0.84500  0.18200  0.19197  Biso   1.000  F
  F82      1.0000 0.66300  0.81800  0.80803  Biso   1.000  F
  F83      1.0000 0.15500  0.33700  0.47470  Biso   1.000  F
  F84      1.0000 0.18200  0.84500  0.14137  Biso   1.000  F
  F85      1.0000 0.04300  0.34800  0.04290  Biso   1.000  F
  F86      1.0000 0.65200  0.69500  0.37623  Biso   1.000  F
  F87      1.0000 0.30500  0.95700  0.70957  Biso   1.000  F
  F88      1.0000 0.34800  0.04300  0.29043  Biso   1.000  F
  F89      1.0000 0.69500  0.65200  0.95710  Biso   1.000  F
  F90      1.0000 0.95700  0.30500  0.62377  Biso   1.000  F
  F91      1.0000 0.95700  0.65200  0.54290  Biso   1.000  F
  F92      1.0000 0.34800  0.30500  0.87623  Biso   1.000  F
  F93      1.0000 0.69500  0.04300  0.20957  Biso   1.000  F
  F94      1.0000 0.65200  0.95700  0.79043  Biso   1.000  F
  F95      1.0000 0.30500  0.34800  0.45710  Biso   1.000  F
  F96      1.0000 0.04300  0.69500  0.12377  Biso   1.000  F
  F97      1.0000 0.93000  0.19000  0.02570  Biso   1.000  F
  F98      1.0000 0.81000  0.74000  0.35903  Biso   1.000  F
  F99      1.0000 0.26000  0.07000  0.69237  Biso   1.000  F
  F100     1.0000 0.19000  0.93000  0.30763  Biso   1.000  F
  F101     1.0000 0.74000  0.81000  0.97430  Biso   1.000  F
  F102     1.0000 0.07000  0.26000  0.64097  Biso   1.000  F
  F103     1.0000 0.07000  0.81000  0.52570  Biso   1.000  F
  F104     1.0000 0.19000  0.26000  0.85903  Biso   1.000  F
  F105     1.0000 0.74000  0.93000  0.19237  Biso   1.000  F
  F106     1.0000 0.81000  0.07000  0.80763  Biso   1.000  F
  F107     1.0000 0.26000  0.19000  0.47430  Biso   1.000  F
  F108     1.0000 0.93000  0.74000  0.14097  Biso   1.000  F
  F109     1.0000 0.04800  0.31800  0.99860  Biso   1.000  F
  F110     1.0000 0.68200  0.73000  0.33193  Biso   1.000  F
  F111     1.0000 0.27000  0.95200  0.66527  Biso   1.000  F
  F112     1.0000 0.31800  0.04800  0.33473  Biso   1.000  F
  F113     1.0000 0.73000  0.68200  0.00140  Biso   1.000  F
  F114     1.0000 0.95200  0.27000  0.66807  Biso   1.000  F
  F115     1.0000 0.95200  0.68200  0.49860  Biso   1.000  F
  F116     1.0000 0.31800  0.27000  0.83193  Biso   1.000  F
  F117     1.0000 0.73000  0.04800  0.16527  Biso   1.000  F
  F118     1.0000 0.68200  0.95200  0.83473  Biso   1.000  F
  F119     1.0000 0.27000  0.31800  0.50140  Biso   1.000  F
  F120     1.0000 0.04800  0.73000  0.16807  Biso   1.000  F
  F121     1.0000 0.06300  0.20900  0.05240  Biso   1.000  F
  F122     1.0000 0.79100  0.85400  0.38573  Biso   1.000  F
  F123     1.0000 0.14600  0.93700  0.71907  Biso   1.000  F
  F124     1.0000 0.20900  0.06300  0.28093  Biso   1.000  F
  F125     1.0000 0.85400  0.79100  0.94760  Biso   1.000  F
  F126     1.0000 0.93700  0.14600  0.61427  Biso   1.000  F
  F127     1.0000 0.93700  0.79100  0.55240  Biso   1.000  F
  F128     1.0000 0.20900  0.14600  0.88573  Biso   1.000  F
  F129     1.0000 0.85400  0.06300  0.21907  Biso   1.000  F
  F130     1.0000 0.79100  0.93700  0.78093  Biso   1.000  F
  F131     1.0000 0.14600  0.20900  0.44760  Biso   1.000  F
  F132     1.0000 0.06300  0.85400  0.11427  Biso   1.000  F
  F133     1.0000 0.06500  0.17400  0.00890  Biso   1.000  F
  F134     1.0000 0.82600  0.89100  0.34223  Biso   1.000  F
  F135     1.0000 0.10900  0.93500  0.67557  Biso   1.000  F
  F136     1.0000 0.17400  0.06500  0.32443  Biso   1.000  F
  F137     1.0000 0.89100  0.82600  0.99110  Biso   1.000  F
  F138     1.0000 0.93500  0.10900  0.65777  Biso   1.000  F
  F139     1.0000 0.93500  0.82600  0.50890  Biso   1.000  F
  F140     1.0000 0.17400  0.10900  0.84223  Biso   1.000  F
  F141     1.0000 0.89100  0.06500  0.17557  Biso   1.000  F
  F142     1.0000 0.82600  0.93500  0.82443  Biso   1.000  F
  F143     1.0000 0.10900  0.17400  0.49110  Biso   1.000  F
  F144     1.0000 0.06500  0.89100  0.15777  Biso   1.000  F
