data_image0
_cell_length_a       11.592
_cell_length_b       10.327
_cell_length_c       10.758
_cell_angle_alpha    90
_cell_angle_beta     93.75
_cell_angle_gamma    90

_symmetry_space_group_name_H-M    "P 1"
_symmetry_int_tables_number       1

loop_
  _symmetry_equiv_pos_as_xyz
  'x, y, z'

loop_
  _atom_site_label
  _atom_site_occupancy
  _atom_site_fract_x
  _atom_site_fract_y
  _atom_site_fract_z
  _atom_site_thermal_displace_type
  _atom_site_B_iso_or_equiv
  _atom_site_type_symbol
  Cu1      1.0000 0.34050  0.15220  0.06320  Biso   1.000  Cu
  Cu2      1.0000 0.15950  0.65220  0.43680  Biso   1.000  Cu
  Cu3      1.0000 0.65950  0.84780  0.93680  Biso   1.000  Cu
  Cu4      1.0000 0.84050  0.34780  0.56320  Biso   1.000  Cu
  S1       1.0000 0.21930  0.71960  0.97500  Biso   1.000  S
  S2       1.0000 0.28070  0.21960  0.52500  Biso   1.000  S
  S3       1.0000 0.78070  0.28040  0.02500  Biso   1.000  S
  S4       1.0000 0.71930  0.78040  0.47500  Biso   1.000  S
  O1       1.0000 0.95230  0.44280  0.68460  Biso   1.000  O
  O2       1.0000 0.54770  0.94280  0.81540  Biso   1.000  O
  O3       1.0000 0.04770  0.55720  0.31540  Biso   1.000  O
  O4       1.0000 0.45230  0.05720  0.18460  Biso   1.000  O
  O5       1.0000 0.98600  0.23780  0.72880  Biso   1.000  O
  O6       1.0000 0.51400  0.73780  0.77120  Biso   1.000  O
  O7       1.0000 0.01400  0.76220  0.27120  Biso   1.000  O
  O8       1.0000 0.48600  0.26220  0.22880  Biso   1.000  O
  O9       1.0000 0.01880  0.99720  0.14880  Biso   1.000  O
  O10      1.0000 0.48120  0.49720  0.35120  Biso   1.000  O
  O11      1.0000 0.98120  0.00280  0.85120  Biso   1.000  O
  O12      1.0000 0.51880  0.50280  0.64880  Biso   1.000  O
  N1       1.0000 0.22130  0.17170  0.18880  Biso   1.000  N
  N2       1.0000 0.27870  0.67170  0.31120  Biso   1.000  N
  N3       1.0000 0.77870  0.82830  0.81120  Biso   1.000  N
  N4       1.0000 0.72130  0.32830  0.68880  Biso   1.000  N
  N5       1.0000 0.26590  0.31860  0.98750  Biso   1.000  N
  N6       1.0000 0.23410  0.81860  0.51250  Biso   1.000  N
  N7       1.0000 0.73410  0.68140  0.01250  Biso   1.000  N
  N8       1.0000 0.76590  0.18140  0.48750  Biso   1.000  N
  N9       1.0000 0.46430  0.18380  0.94570  Biso   1.000  N
  N10      1.0000 0.03570  0.68380  0.55430  Biso   1.000  N
  N11      1.0000 0.53570  0.81620  0.05430  Biso   1.000  N
  N12      1.0000 0.96430  0.31620  0.44570  Biso   1.000  N
  N13      1.0000 0.26490  0.98250  0.96920  Biso   1.000  N
  N14      1.0000 0.23510  0.48250  0.53080  Biso   1.000  N
  N15      1.0000 0.73510  0.01750  0.03080  Biso   1.000  N
  N16      1.0000 0.76490  0.51750  0.46920  Biso   1.000  N
  C1       1.0000 0.15950  0.29370  0.17100  Biso   1.000  C
  C2       1.0000 0.34050  0.79370  0.32900  Biso   1.000  C
  C3       1.0000 0.84050  0.70630  0.82900  Biso   1.000  C
  C4       1.0000 0.65950  0.20630  0.67100  Biso   1.000  C
  C5       1.0000 0.22680  0.38600  0.09710  Biso   1.000  C
  C6       1.0000 0.27320  0.88600  0.40290  Biso   1.000  C
  C7       1.0000 0.77320  0.61400  0.90290  Biso   1.000  C
  C8       1.0000 0.72680  0.11400  0.59710  Biso   1.000  C
  C9       1.0000 0.36370  0.38730  0.93180  Biso   1.000  C
  C10      1.0000 0.13630  0.88730  0.56820  Biso   1.000  C
  C11      1.0000 0.63630  0.61270  0.06820  Biso   1.000  C
  C12      1.0000 0.86370  0.11270  0.43180  Biso   1.000  C
  C13      1.0000 0.43230  0.29390  0.86310  Biso   1.000  C
  C14      1.0000 0.06770  0.79390  0.63690  Biso   1.000  C
  C15      1.0000 0.56770  0.70610  0.13690  Biso   1.000  C
  C16      1.0000 0.93230  0.20610  0.36310  Biso   1.000  C
  C17      1.0000 0.17100  0.28560  0.89390  Biso   1.000  C
  C18      1.0000 0.32900  0.78560  0.60610  Biso   1.000  C
  C19      1.0000 0.82900  0.71440  0.10610  Biso   1.000  C
  C20      1.0000 0.67100  0.21440  0.39390  Biso   1.000  C
  C21      1.0000 0.10310  0.39780  0.83970  Biso   1.000  C
  C22      1.0000 0.39690  0.89780  0.66030  Biso   1.000  C
  C23      1.0000 0.89690  0.60220  0.16030  Biso   1.000  C
  C24      1.0000 0.60310  0.10220  0.33970  Biso   1.000  C
  C25      1.0000 0.00750  0.35540  0.74520  Biso   1.000  C
  C26      1.0000 0.49250  0.85540  0.75480  Biso   1.000  C
  C27      1.0000 0.99250  0.64460  0.25480  Biso   1.000  C
  C28      1.0000 0.50750  0.14460  0.24520  Biso   1.000  C
  C29      1.0000 0.24370  0.87410  0.97290  Biso   1.000  C
  C30      1.0000 0.25630  0.37410  0.52710  Biso   1.000  C
  C31      1.0000 0.75630  0.12590  0.02710  Biso   1.000  C
  C32      1.0000 0.74370  0.62590  0.47290  Biso   1.000  C
  H1       1.0000 0.00300  0.92300  0.19900  Biso   1.000  H
  H2       1.0000 0.49700  0.42300  0.30100  Biso   1.000  H
  H3       1.0000 0.99700  0.07700  0.80100  Biso   1.000  H
  H4       1.0000 0.50300  0.57700  0.69900  Biso   1.000  H
  H5       1.0000 0.99300  0.98500  0.09400  Biso   1.000  H
  H6       1.0000 0.50700  0.48500  0.40600  Biso   1.000  H
  H7       1.0000 0.00700  0.01500  0.90600  Biso   1.000  H
  H8       1.0000 0.49300  0.51500  0.59400  Biso   1.000  H
  H9       1.0000 0.15900  0.11000  0.19200  Biso   1.000  H
  H10      1.0000 0.34100  0.61000  0.30800  Biso   1.000  H
  H11      1.0000 0.84100  0.89000  0.80800  Biso   1.000  H
  H12      1.0000 0.65900  0.39000  0.69200  Biso   1.000  H
  H13      1.0000 0.26300  0.17400  0.25700  Biso   1.000  H
  H14      1.0000 0.23700  0.67400  0.24300  Biso   1.000  H
  H15      1.0000 0.73700  0.82600  0.74300  Biso   1.000  H
  H16      1.0000 0.76300  0.32600  0.75700  Biso   1.000  H
  H17      1.0000 0.49100  0.18800  0.98800  Biso   1.000  H
  H18      1.0000 0.00900  0.68800  0.51200  Biso   1.000  H
  H19      1.0000 0.50900  0.81200  0.01200  Biso   1.000  H
  H20      1.0000 0.99100  0.31200  0.48800  Biso   1.000  H
  H21      1.0000 0.47900  0.11700  0.88100  Biso   1.000  H
  H22      1.0000 0.02100  0.61700  0.61900  Biso   1.000  H
  H23      1.0000 0.52100  0.88300  0.11900  Biso   1.000  H
  H24      1.0000 0.97900  0.38300  0.38100  Biso   1.000  H
  H25      1.0000 0.08800  0.27900  0.12700  Biso   1.000  H
  H26      1.0000 0.41200  0.77900  0.37300  Biso   1.000  H
  H27      1.0000 0.91200  0.72100  0.87300  Biso   1.000  H
  H28      1.0000 0.58800  0.22100  0.62700  Biso   1.000  H
  H29      1.0000 0.13600  0.33500  0.23900  Biso   1.000  H
  H30      1.0000 0.36400  0.83500  0.26100  Biso   1.000  H
  H31      1.0000 0.86400  0.66500  0.76100  Biso   1.000  H
  H32      1.0000 0.63600  0.16500  0.73900  Biso   1.000  H
  H33      1.0000 0.29200  0.41500  0.15600  Biso   1.000  H
  H34      1.0000 0.20800  0.91500  0.34400  Biso   1.000  H
  H35      1.0000 0.70800  0.58500  0.84400  Biso   1.000  H
  H36      1.0000 0.79200  0.08500  0.65600  Biso   1.000  H
  H37      1.0000 0.19800  0.46700  0.07100  Biso   1.000  H
  H38      1.0000 0.30200  0.96700  0.42900  Biso   1.000  H
  H39      1.0000 0.80200  0.53300  0.92900  Biso   1.000  H
  H40      1.0000 0.69800  0.03300  0.57100  Biso   1.000  H
  H41      1.0000 0.34500  0.45400  0.89800  Biso   1.000  H
  H42      1.0000 0.15500  0.95400  0.60200  Biso   1.000  H
  H43      1.0000 0.65500  0.54600  0.10200  Biso   1.000  H
  H44      1.0000 0.84500  0.04600  0.39800  Biso   1.000  H
  H45      1.0000 0.40700  0.43000  0.98900  Biso   1.000  H
  H46      1.0000 0.09300  0.93000  0.51100  Biso   1.000  H
  H47      1.0000 0.59300  0.57000  0.01100  Biso   1.000  H
  H48      1.0000 0.90700  0.07000  0.48900  Biso   1.000  H
  H49      1.0000 0.39300  0.25500  0.79800  Biso   1.000  H
  H50      1.0000 0.10700  0.75500  0.70200  Biso   1.000  H
  H51      1.0000 0.60700  0.74500  0.20200  Biso   1.000  H
  H52      1.0000 0.89300  0.24500  0.29800  Biso   1.000  H
  H53      1.0000 0.50100  0.33000  0.83700  Biso   1.000  H
  H54      1.0000 0.99900  0.83000  0.66300  Biso   1.000  H
  H55      1.0000 0.49900  0.67000  0.16300  Biso   1.000  H
  H56      1.0000 0.00100  0.17000  0.33700  Biso   1.000  H
  H57      1.0000 0.12800  0.22900  0.92900  Biso   1.000  H
  H58      1.0000 0.37200  0.72900  0.57100  Biso   1.000  H
  H59      1.0000 0.87200  0.77100  0.07100  Biso   1.000  H
  H60      1.0000 0.62800  0.27100  0.42900  Biso   1.000  H
  H61      1.0000 0.21200  0.24600  0.82500  Biso   1.000  H
  H62      1.0000 0.28800  0.74600  0.67500  Biso   1.000  H
  H63      1.0000 0.78800  0.75400  0.17500  Biso   1.000  H
  H64      1.0000 0.71200  0.25400  0.32500  Biso   1.000  H
  H65      1.0000 0.06700  0.44700  0.88200  Biso   1.000  H
  H66      1.0000 0.43300  0.94700  0.61800  Biso   1.000  H
  H67      1.0000 0.93300  0.55300  0.11800  Biso   1.000  H
  H68      1.0000 0.56700  0.05300  0.38200  Biso   1.000  H
  H69      1.0000 0.15300  0.48300  0.81500  Biso   1.000  H
  H70      1.0000 0.34700  0.98300  0.68500  Biso   1.000  H
  H71      1.0000 0.84700  0.51700  0.18500  Biso   1.000  H
  H72      1.0000 0.65300  0.01700  0.31500  Biso   1.000  H
