data_image0
_cell_length_a       13.158
_cell_length_b       14.942
_cell_length_c       16.667
_cell_angle_alpha    90
_cell_angle_beta     90
_cell_angle_gamma    90

_symmetry_space_group_name_H-M    "P 1"
_symmetry_int_tables_number       1

loop_
  _symmetry_equiv_pos_as_xyz
  'x, y, z'

loop_
  _atom_site_label
  _atom_site_occupancy
  _atom_site_fract_x
  _atom_site_fract_y
  _atom_site_fract_z
  _atom_site_thermal_displace_type
  _atom_site_B_iso_or_equiv
  _atom_site_type_symbol
  Cu1      1.0000 0.00000  0.00000  0.00000  Biso   1.000  Cu
  Cu2      1.0000 0.00000  0.00000  0.50000  Biso   1.000  Cu
  Cu3      1.0000 0.50000  0.50000  0.00000  Biso   1.000  Cu
  Cu4      1.0000 0.50000  0.50000  0.50000  Biso   1.000  Cu
  P1       1.0000 0.75000  0.25000  0.32214  Biso   1.000  P
  P2       1.0000 0.25000  0.75000  0.32214  Biso   1.000  P
  P3       1.0000 0.25000  0.25000  0.17786  Biso   1.000  P
  P4       1.0000 0.75000  0.75000  0.17786  Biso   1.000  P
  P5       1.0000 0.25000  0.75000  0.67786  Biso   1.000  P
  P6       1.0000 0.75000  0.25000  0.67786  Biso   1.000  P
  P7       1.0000 0.75000  0.75000  0.82214  Biso   1.000  P
  P8       1.0000 0.25000  0.25000  0.82214  Biso   1.000  P
  N1       1.0000 0.72490  0.16460  0.26096  Biso   1.000  N
  N2       1.0000 0.27510  0.83540  0.26096  Biso   1.000  N
  N3       1.0000 0.27510  0.16460  0.23904  Biso   1.000  N
  N4       1.0000 0.72490  0.83540  0.23904  Biso   1.000  N
  N5       1.0000 0.22490  0.66460  0.26096  Biso   1.000  N
  N6       1.0000 0.77510  0.33540  0.26096  Biso   1.000  N
  N7       1.0000 0.77510  0.66460  0.23904  Biso   1.000  N
  N8       1.0000 0.22490  0.33540  0.23904  Biso   1.000  N
  N9       1.0000 0.27510  0.83540  0.73904  Biso   1.000  N
  N10      1.0000 0.72490  0.16460  0.73904  Biso   1.000  N
  N11      1.0000 0.72490  0.83540  0.76096  Biso   1.000  N
  N12      1.0000 0.27510  0.16460  0.76096  Biso   1.000  N
  N13      1.0000 0.77510  0.33540  0.73904  Biso   1.000  N
  N14      1.0000 0.22490  0.66460  0.73904  Biso   1.000  N
  N15      1.0000 0.22490  0.33540  0.76096  Biso   1.000  N
  N16      1.0000 0.77510  0.66460  0.76096  Biso   1.000  N
  H1       1.0000 0.66520  0.14160  0.26510  Biso   1.000  H
  H2       1.0000 0.33480  0.85840  0.26510  Biso   1.000  H
  H3       1.0000 0.33480  0.14160  0.23490  Biso   1.000  H
  H4       1.0000 0.66520  0.85840  0.23490  Biso   1.000  H
  H5       1.0000 0.16520  0.64160  0.26510  Biso   1.000  H
  H6       1.0000 0.83480  0.35840  0.26510  Biso   1.000  H
  H7       1.0000 0.83480  0.64160  0.23490  Biso   1.000  H
  H8       1.0000 0.16520  0.35840  0.23490  Biso   1.000  H
  H9       1.0000 0.33480  0.85840  0.73490  Biso   1.000  H
  H10      1.0000 0.66520  0.14160  0.73490  Biso   1.000  H
  H11      1.0000 0.66520  0.85840  0.76510  Biso   1.000  H
  H12      1.0000 0.33480  0.14160  0.76510  Biso   1.000  H
  H13      1.0000 0.83480  0.35840  0.73490  Biso   1.000  H
  H14      1.0000 0.16520  0.64160  0.73490  Biso   1.000  H
  H15      1.0000 0.16520  0.35840  0.76510  Biso   1.000  H
  H16      1.0000 0.83480  0.64160  0.76510  Biso   1.000  H
  C1       1.0000 0.78720  0.12672  0.20510  Biso   1.000  C
  C2       1.0000 0.21280  0.87328  0.20510  Biso   1.000  C
  C3       1.0000 0.21280  0.12672  0.29490  Biso   1.000  C
  C4       1.0000 0.78720  0.87328  0.29490  Biso   1.000  C
  C5       1.0000 0.28720  0.62672  0.20510  Biso   1.000  C
  C6       1.0000 0.71280  0.37328  0.20510  Biso   1.000  C
  C7       1.0000 0.71280  0.62672  0.29490  Biso   1.000  C
  C8       1.0000 0.28720  0.37328  0.29490  Biso   1.000  C
  C9       1.0000 0.21280  0.87328  0.79490  Biso   1.000  C
  C10      1.0000 0.78720  0.12672  0.79490  Biso   1.000  C
  C11      1.0000 0.78720  0.87328  0.70510  Biso   1.000  C
  C12      1.0000 0.21280  0.12672  0.70510  Biso   1.000  C
  C13      1.0000 0.71280  0.37328  0.79490  Biso   1.000  C
  C14      1.0000 0.28720  0.62672  0.79490  Biso   1.000  C
  C15      1.0000 0.28720  0.37328  0.70510  Biso   1.000  C
  C16      1.0000 0.71280  0.62672  0.70510  Biso   1.000  C
  C17      1.0000 0.94260  0.11330  0.13440  Biso   1.000  C
  C18      1.0000 0.05740  0.88670  0.13440  Biso   1.000  C
  C19      1.0000 0.05740  0.11330  0.36560  Biso   1.000  C
  C20      1.0000 0.94260  0.88670  0.36560  Biso   1.000  C
  C21      1.0000 0.44260  0.61330  0.13440  Biso   1.000  C
  C22      1.0000 0.55740  0.38670  0.13440  Biso   1.000  C
  C23      1.0000 0.55740  0.61330  0.36560  Biso   1.000  C
  C24      1.0000 0.44260  0.38670  0.36560  Biso   1.000  C
  C25      1.0000 0.05740  0.88670  0.86560  Biso   1.000  C
  C26      1.0000 0.94260  0.11330  0.86560  Biso   1.000  C
  C27      1.0000 0.94260  0.88670  0.63440  Biso   1.000  C
  C28      1.0000 0.05740  0.11330  0.63440  Biso   1.000  C
  C29      1.0000 0.55740  0.38670  0.86560  Biso   1.000  C
  C30      1.0000 0.44260  0.61330  0.86560  Biso   1.000  C
  C31      1.0000 0.44260  0.38670  0.63440  Biso   1.000  C
  C32      1.0000 0.55740  0.61330  0.63440  Biso   1.000  C
  H17      1.0000 0.00930  0.13250  0.12760  Biso   1.000  H
  H18      1.0000 0.99070  0.86750  0.12760  Biso   1.000  H
  H19      1.0000 0.99070  0.13250  0.37240  Biso   1.000  H
  H20      1.0000 0.00930  0.86750  0.37240  Biso   1.000  H
  H21      1.0000 0.50930  0.63250  0.12760  Biso   1.000  H
  H22      1.0000 0.49070  0.36750  0.12760  Biso   1.000  H
  H23      1.0000 0.49070  0.63250  0.37240  Biso   1.000  H
  H24      1.0000 0.50930  0.36750  0.37240  Biso   1.000  H
  H25      1.0000 0.99070  0.86750  0.87240  Biso   1.000  H
  H26      1.0000 0.00930  0.13250  0.87240  Biso   1.000  H
  H27      1.0000 0.00930  0.86750  0.62760  Biso   1.000  H
  H28      1.0000 0.99070  0.13250  0.62760  Biso   1.000  H
  H29      1.0000 0.49070  0.36750  0.87240  Biso   1.000  H
  H30      1.0000 0.50930  0.63250  0.87240  Biso   1.000  H
  H31      1.0000 0.50930  0.36750  0.62760  Biso   1.000  H
  H32      1.0000 0.49070  0.63250  0.62760  Biso   1.000  H
  C33      1.0000 0.88540  0.15380  0.19250  Biso   1.000  C
  C34      1.0000 0.11460  0.84620  0.19250  Biso   1.000  C
  C35      1.0000 0.11460  0.15380  0.30750  Biso   1.000  C
  C36      1.0000 0.88540  0.84620  0.30750  Biso   1.000  C
  C37      1.0000 0.38540  0.65380  0.19250  Biso   1.000  C
  C38      1.0000 0.61460  0.34620  0.19250  Biso   1.000  C
  C39      1.0000 0.61460  0.65380  0.30750  Biso   1.000  C
  C40      1.0000 0.38540  0.34620  0.30750  Biso   1.000  C
  C41      1.0000 0.11460  0.84620  0.80750  Biso   1.000  C
  C42      1.0000 0.88540  0.15380  0.80750  Biso   1.000  C
  C43      1.0000 0.88540  0.84620  0.69250  Biso   1.000  C
  C44      1.0000 0.11460  0.15380  0.69250  Biso   1.000  C
  C45      1.0000 0.61460  0.34620  0.80750  Biso   1.000  C
  C46      1.0000 0.38540  0.65380  0.80750  Biso   1.000  C
  C47      1.0000 0.38540  0.34620  0.69250  Biso   1.000  C
  C48      1.0000 0.61460  0.65380  0.69250  Biso   1.000  C
  H33      1.0000 0.91310  0.19950  0.22340  Biso   1.000  H
  H34      1.0000 0.08690  0.80050  0.22340  Biso   1.000  H
  H35      1.0000 0.08690  0.19950  0.27660  Biso   1.000  H
  H36      1.0000 0.91310  0.80050  0.27660  Biso   1.000  H
  H37      1.0000 0.41310  0.69950  0.22340  Biso   1.000  H
  H38      1.0000 0.58690  0.30050  0.22340  Biso   1.000  H
  H39      1.0000 0.58690  0.69950  0.27660  Biso   1.000  H
  H40      1.0000 0.41310  0.30050  0.27660  Biso   1.000  H
  H41      1.0000 0.08690  0.80050  0.77660  Biso   1.000  H
  H42      1.0000 0.91310  0.19950  0.77660  Biso   1.000  H
  H43      1.0000 0.91310  0.80050  0.72340  Biso   1.000  H
  H44      1.0000 0.08690  0.19950  0.72340  Biso   1.000  H
  H45      1.0000 0.58690  0.30050  0.77660  Biso   1.000  H
  H46      1.0000 0.41310  0.69950  0.77660  Biso   1.000  H
  H47      1.0000 0.41310  0.30050  0.72340  Biso   1.000  H
  H48      1.0000 0.58690  0.69950  0.72340  Biso   1.000  H
  C49      1.0000 0.81510  0.02080  0.10100  Biso   1.000  C
  C50      1.0000 0.18490  0.97920  0.10100  Biso   1.000  C
  C51      1.0000 0.18490  0.02080  0.39900  Biso   1.000  C
  C52      1.0000 0.81510  0.97920  0.39900  Biso   1.000  C
  C53      1.0000 0.31510  0.52080  0.10100  Biso   1.000  C
  C54      1.0000 0.68490  0.47920  0.10100  Biso   1.000  C
  C55      1.0000 0.68490  0.52080  0.39900  Biso   1.000  C
  C56      1.0000 0.31510  0.47920  0.39900  Biso   1.000  C
  C57      1.0000 0.18490  0.97920  0.89900  Biso   1.000  C
  C58      1.0000 0.81510  0.02080  0.89900  Biso   1.000  C
  C59      1.0000 0.81510  0.97920  0.60100  Biso   1.000  C
  C60      1.0000 0.18490  0.02080  0.60100  Biso   1.000  C
  C61      1.0000 0.68490  0.47920  0.89900  Biso   1.000  C
  C62      1.0000 0.31510  0.52080  0.89900  Biso   1.000  C
  C63      1.0000 0.31510  0.47920  0.60100  Biso   1.000  C
  C64      1.0000 0.68490  0.52080  0.60100  Biso   1.000  C
  H49      1.0000 0.79030  0.97360  0.07030  Biso   1.000  H
  H50      1.0000 0.20970  0.02640  0.07030  Biso   1.000  H
  H51      1.0000 0.20970  0.97360  0.42970  Biso   1.000  H
  H52      1.0000 0.79030  0.02640  0.42970  Biso   1.000  H
  H53      1.0000 0.29030  0.47360  0.07030  Biso   1.000  H
  H54      1.0000 0.70970  0.52640  0.07030  Biso   1.000  H
  H55      1.0000 0.70970  0.47360  0.42970  Biso   1.000  H
  H56      1.0000 0.29030  0.52640  0.42970  Biso   1.000  H
  H57      1.0000 0.20970  0.02640  0.92970  Biso   1.000  H
  H58      1.0000 0.79030  0.97360  0.92970  Biso   1.000  H
  H59      1.0000 0.79030  0.02640  0.57030  Biso   1.000  H
  H60      1.0000 0.20970  0.97360  0.57030  Biso   1.000  H
  H61      1.0000 0.70970  0.52640  0.92970  Biso   1.000  H
  H62      1.0000 0.29030  0.47360  0.92970  Biso   1.000  H
  H63      1.0000 0.29030  0.52640  0.57030  Biso   1.000  H
  H64      1.0000 0.70970  0.47360  0.57030  Biso   1.000  H
  C65      1.0000 0.75270  0.05670  0.15740  Biso   1.000  C
  C66      1.0000 0.24730  0.94330  0.15740  Biso   1.000  C
  C67      1.0000 0.24730  0.05670  0.34260  Biso   1.000  C
  C68      1.0000 0.75270  0.94330  0.34260  Biso   1.000  C
  C69      1.0000 0.25270  0.55670  0.15740  Biso   1.000  C
  C70      1.0000 0.74730  0.44330  0.15740  Biso   1.000  C
  C71      1.0000 0.74730  0.55670  0.34260  Biso   1.000  C
  C72      1.0000 0.25270  0.44330  0.34260  Biso   1.000  C
  C73      1.0000 0.24730  0.94330  0.84260  Biso   1.000  C
  C74      1.0000 0.75270  0.05670  0.84260  Biso   1.000  C
  C75      1.0000 0.75270  0.94330  0.65740  Biso   1.000  C
  C76      1.0000 0.24730  0.05670  0.65740  Biso   1.000  C
  C77      1.0000 0.74730  0.44330  0.84260  Biso   1.000  C
  C78      1.0000 0.25270  0.55670  0.84260  Biso   1.000  C
  C79      1.0000 0.25270  0.44330  0.65740  Biso   1.000  C
  C80      1.0000 0.74730  0.55670  0.65740  Biso   1.000  C
  H65      1.0000 0.68720  0.03460  0.16400  Biso   1.000  H
  H66      1.0000 0.31280  0.96540  0.16400  Biso   1.000  H
  H67      1.0000 0.31280  0.03460  0.33600  Biso   1.000  H
  H68      1.0000 0.68720  0.96540  0.33600  Biso   1.000  H
  H69      1.0000 0.18720  0.53460  0.16400  Biso   1.000  H
  H70      1.0000 0.81280  0.46540  0.16400  Biso   1.000  H
  H71      1.0000 0.81280  0.53460  0.33600  Biso   1.000  H
  H72      1.0000 0.18720  0.46540  0.33600  Biso   1.000  H
  H73      1.0000 0.31280  0.96540  0.83600  Biso   1.000  H
  H74      1.0000 0.68720  0.03460  0.83600  Biso   1.000  H
  H75      1.0000 0.68720  0.96540  0.66400  Biso   1.000  H
  H76      1.0000 0.31280  0.03460  0.66400  Biso   1.000  H
  H77      1.0000 0.81280  0.46540  0.83600  Biso   1.000  H
  H78      1.0000 0.18720  0.53460  0.83600  Biso   1.000  H
  H79      1.0000 0.18720  0.46540  0.66400  Biso   1.000  H
  H80      1.0000 0.81280  0.53460  0.66400  Biso   1.000  H
  N17      1.0000 0.90880  0.04850  0.08699  Biso   1.000  N
  N18      1.0000 0.09120  0.95150  0.08699  Biso   1.000  N
  N19      1.0000 0.09120  0.04850  0.41301  Biso   1.000  N
  N20      1.0000 0.90880  0.95150  0.41301  Biso   1.000  N
  N21      1.0000 0.40880  0.54850  0.08699  Biso   1.000  N
  N22      1.0000 0.59120  0.45150  0.08699  Biso   1.000  N
  N23      1.0000 0.59120  0.54850  0.41301  Biso   1.000  N
  N24      1.0000 0.40880  0.45150  0.41301  Biso   1.000  N
  N25      1.0000 0.09120  0.95150  0.91301  Biso   1.000  N
  N26      1.0000 0.90880  0.04850  0.91301  Biso   1.000  N
  N27      1.0000 0.90880  0.95150  0.58699  Biso   1.000  N
  N28      1.0000 0.09120  0.04850  0.58699  Biso   1.000  N
  N29      1.0000 0.59120  0.45150  0.91301  Biso   1.000  N
  N30      1.0000 0.40880  0.54850  0.91301  Biso   1.000  N
  N31      1.0000 0.40880  0.45150  0.58699  Biso   1.000  N
  N32      1.0000 0.59120  0.54850  0.58699  Biso   1.000  N
  O1       1.0000 0.84600  0.23560  0.36502  Biso   1.000  O
  O2       1.0000 0.15400  0.76440  0.36502  Biso   1.000  O
  O3       1.0000 0.15400  0.23560  0.13498  Biso   1.000  O
  O4       1.0000 0.84600  0.76440  0.13498  Biso   1.000  O
  O5       1.0000 0.34600  0.73560  0.36502  Biso   1.000  O
  O6       1.0000 0.65400  0.26440  0.36502  Biso   1.000  O
  O7       1.0000 0.65400  0.73560  0.13498  Biso   1.000  O
  O8       1.0000 0.34600  0.26440  0.13498  Biso   1.000  O
  O9       1.0000 0.15400  0.76440  0.63498  Biso   1.000  O
  O10      1.0000 0.84600  0.23560  0.63498  Biso   1.000  O
  O11      1.0000 0.84600  0.76440  0.86502  Biso   1.000  O
  O12      1.0000 0.15400  0.23560  0.86502  Biso   1.000  O
  O13      1.0000 0.65400  0.26440  0.63498  Biso   1.000  O
  O14      1.0000 0.34600  0.73560  0.63498  Biso   1.000  O
  O15      1.0000 0.34600  0.26440  0.86502  Biso   1.000  O
  O16      1.0000 0.65400  0.73560  0.86502  Biso   1.000  O
  O17      1.0000 0.11280  0.14190  0.00000  Biso   1.000  O
  O18      1.0000 0.88720  0.85810  0.00000  Biso   1.000  O
  O19      1.0000 0.88720  0.14190  0.50000  Biso   1.000  O
  O20      1.0000 0.11280  0.85810  0.50000  Biso   1.000  O
  O21      1.0000 0.61280  0.64190  0.00000  Biso   1.000  O
  O22      1.0000 0.38720  0.35810  0.00000  Biso   1.000  O
  O23      1.0000 0.38720  0.64190  0.50000  Biso   1.000  O
  O24      1.0000 0.61280  0.35810  0.50000  Biso   1.000  O
  H81      1.0000 0.13800  0.17900  0.03500  Biso   1.000  H
  H82      1.0000 0.86200  0.82100  0.03500  Biso   1.000  H
  H83      1.0000 0.86200  0.17900  0.46500  Biso   1.000  H
  H84      1.0000 0.13800  0.82100  0.46500  Biso   1.000  H
  H85      1.0000 0.63800  0.67900  0.03500  Biso   1.000  H
  H86      1.0000 0.36200  0.32100  0.03500  Biso   1.000  H
  H87      1.0000 0.36200  0.67900  0.46500  Biso   1.000  H
  H88      1.0000 0.63800  0.32100  0.46500  Biso   1.000  H
  H89      1.0000 0.86200  0.82100  0.96500  Biso   1.000  H
  H90      1.0000 0.13800  0.17900  0.96500  Biso   1.000  H
  H91      1.0000 0.13800  0.82100  0.53500  Biso   1.000  H
  H92      1.0000 0.86200  0.17900  0.53500  Biso   1.000  H
  H93      1.0000 0.36200  0.32100  0.96500  Biso   1.000  H
  H94      1.0000 0.63800  0.67900  0.96500  Biso   1.000  H
  H95      1.0000 0.63800  0.32100  0.53500  Biso   1.000  H
  H96      1.0000 0.36200  0.67900  0.53500  Biso   1.000  H
  N33      1.0000 0.00530  0.36230  0.45360  Biso   1.000  N
  N34      1.0000 0.99470  0.63770  0.45360  Biso   1.000  N
  N35      1.0000 0.99470  0.36230  0.04640  Biso   1.000  N
  N36      1.0000 0.00530  0.63770  0.04640  Biso   1.000  N
  N37      1.0000 0.50530  0.86230  0.45360  Biso   1.000  N
  N38      1.0000 0.49470  0.13770  0.45360  Biso   1.000  N
  N39      1.0000 0.49470  0.86230  0.04640  Biso   1.000  N
  N40      1.0000 0.50530  0.13770  0.04640  Biso   1.000  N
  N41      1.0000 0.99470  0.63770  0.54640  Biso   1.000  N
  N42      1.0000 0.00530  0.36230  0.54640  Biso   1.000  N
  N43      1.0000 0.00530  0.63770  0.95360  Biso   1.000  N
  N44      1.0000 0.99470  0.36230  0.95360  Biso   1.000  N
  N45      1.0000 0.49470  0.13770  0.54640  Biso   1.000  N
  N46      1.0000 0.50530  0.86230  0.54640  Biso   1.000  N
  N47      1.0000 0.50530  0.13770  0.95360  Biso   1.000  N
  N48      1.0000 0.49470  0.86230  0.95360  Biso   1.000  N
  C81      1.0000 0.00410  0.37140  0.38780  Biso   1.000  C
  C82      1.0000 0.99590  0.62860  0.38780  Biso   1.000  C
  C83      1.0000 0.99590  0.37140  0.11220  Biso   1.000  C
  C84      1.0000 0.00410  0.62860  0.11220  Biso   1.000  C
  C85      1.0000 0.50410  0.87140  0.38780  Biso   1.000  C
  C86      1.0000 0.49590  0.12860  0.38780  Biso   1.000  C
  C87      1.0000 0.49590  0.87140  0.11220  Biso   1.000  C
  C88      1.0000 0.50410  0.12860  0.11220  Biso   1.000  C
  C89      1.0000 0.99590  0.62860  0.61220  Biso   1.000  C
  C90      1.0000 0.00410  0.37140  0.61220  Biso   1.000  C
  C91      1.0000 0.00410  0.62860  0.88780  Biso   1.000  C
  C92      1.0000 0.99590  0.37140  0.88780  Biso   1.000  C
  C93      1.0000 0.49590  0.12860  0.61220  Biso   1.000  C
  C94      1.0000 0.50410  0.87140  0.61220  Biso   1.000  C
  C95      1.0000 0.50410  0.12860  0.88780  Biso   1.000  C
  C96      1.0000 0.49590  0.87140  0.88780  Biso   1.000  C
  H97      1.0000 0.04580  0.33130  0.36070  Biso   1.000  H
  H98      1.0000 0.95420  0.66870  0.36070  Biso   1.000  H
  H99      1.0000 0.95420  0.33130  0.13930  Biso   1.000  H
  H100     1.0000 0.04580  0.66870  0.13930  Biso   1.000  H
  H101     1.0000 0.54580  0.83130  0.36070  Biso   1.000  H
  H102     1.0000 0.45420  0.16870  0.36070  Biso   1.000  H
  H103     1.0000 0.45420  0.83130  0.13930  Biso   1.000  H
  H104     1.0000 0.54580  0.16870  0.13930  Biso   1.000  H
  H105     1.0000 0.95420  0.66870  0.63930  Biso   1.000  H
  H106     1.0000 0.04580  0.33130  0.63930  Biso   1.000  H
  H107     1.0000 0.04580  0.66870  0.86070  Biso   1.000  H
  H108     1.0000 0.95420  0.33130  0.86070  Biso   1.000  H
  H109     1.0000 0.45420  0.16870  0.63930  Biso   1.000  H
  H110     1.0000 0.54580  0.83130  0.63930  Biso   1.000  H
  H111     1.0000 0.54580  0.16870  0.86070  Biso   1.000  H
  H112     1.0000 0.45420  0.83130  0.86070  Biso   1.000  H
  C97      1.0000 0.92200  0.40050  0.50000  Biso   1.000  C
  C98      1.0000 0.07800  0.59950  0.50000  Biso   1.000  C
  C99      1.0000 0.07800  0.40050  0.00000  Biso   1.000  C
  C100     1.0000 0.92200  0.59950  0.00000  Biso   1.000  C
  C101     1.0000 0.42200  0.90050  0.50000  Biso   1.000  C
  C102     1.0000 0.57800  0.09950  0.50000  Biso   1.000  C
  C103     1.0000 0.57800  0.90050  0.00000  Biso   1.000  C
  C104     1.0000 0.42200  0.09950  0.00000  Biso   1.000  C
  H113     1.0000 0.91520  0.46510  0.50000  Biso   1.000  H
  H114     1.0000 0.08480  0.53490  0.50000  Biso   1.000  H
  H115     1.0000 0.08480  0.46510  0.00000  Biso   1.000  H
  H116     1.0000 0.91520  0.53490  0.00000  Biso   1.000  H
  H117     1.0000 0.41520  0.96510  0.50000  Biso   1.000  H
  H118     1.0000 0.58480  0.03490  0.50000  Biso   1.000  H
  H119     1.0000 0.58480  0.96510  0.00000  Biso   1.000  H
  H120     1.0000 0.41520  0.03490  0.00000  Biso   1.000  H
  H121     1.0000 0.85790  0.36830  0.50000  Biso   1.000  H
  H122     1.0000 0.14210  0.63170  0.50000  Biso   1.000  H
  H123     1.0000 0.14210  0.36830  0.00000  Biso   1.000  H
  H124     1.0000 0.85790  0.63170  0.00000  Biso   1.000  H
  H125     1.0000 0.35790  0.86830  0.50000  Biso   1.000  H
  H126     1.0000 0.64210  0.13170  0.50000  Biso   1.000  H
  H127     1.0000 0.64210  0.86830  0.00000  Biso   1.000  H
  H128     1.0000 0.35790  0.13170  0.00000  Biso   1.000  H
  C105     1.0000 0.07840  0.31010  0.50000  Biso   1.000  C
  C106     1.0000 0.92160  0.68990  0.50000  Biso   1.000  C
  C107     1.0000 0.92160  0.31010  0.00000  Biso   1.000  C
  C108     1.0000 0.07840  0.68990  0.00000  Biso   1.000  C
  C109     1.0000 0.57840  0.81010  0.50000  Biso   1.000  C
  C110     1.0000 0.42160  0.18990  0.50000  Biso   1.000  C
  C111     1.0000 0.42160  0.81010  0.00000  Biso   1.000  C
  C112     1.0000 0.57840  0.18990  0.00000  Biso   1.000  C
  H129     1.0000 0.14850  0.33040  0.50000  Biso   1.000  H
  H130     1.0000 0.85150  0.66960  0.50000  Biso   1.000  H
  H131     1.0000 0.85150  0.33040  0.00000  Biso   1.000  H
  H132     1.0000 0.14850  0.66960  0.00000  Biso   1.000  H
  H133     1.0000 0.64850  0.83040  0.50000  Biso   1.000  H
  H134     1.0000 0.35150  0.16960  0.50000  Biso   1.000  H
  H135     1.0000 0.35150  0.83040  0.00000  Biso   1.000  H
  H136     1.0000 0.64850  0.16960  0.00000  Biso   1.000  H
  H137     1.0000 0.07050  0.24560  0.50000  Biso   1.000  H
  H138     1.0000 0.92950  0.75440  0.50000  Biso   1.000  H
  H139     1.0000 0.92950  0.24560  0.00000  Biso   1.000  H
  H140     1.0000 0.07050  0.75440  0.00000  Biso   1.000  H
  H141     1.0000 0.57050  0.74560  0.50000  Biso   1.000  H
  H142     1.0000 0.42950  0.25440  0.50000  Biso   1.000  H
  H143     1.0000 0.42950  0.74560  0.00000  Biso   1.000  H
  H144     1.0000 0.57050  0.25440  0.00000  Biso   1.000  H
  O25      1.0000 0.95470  0.42870  0.33820  Biso   1.000  O
  O26      1.0000 0.04530  0.57130  0.33820  Biso   1.000  O
  O27      1.0000 0.04530  0.42870  0.16180  Biso   1.000  O
  O28      1.0000 0.95470  0.57130  0.16180  Biso   1.000  O
  O29      1.0000 0.45470  0.92870  0.33820  Biso   1.000  O
  O30      1.0000 0.54530  0.07130  0.33820  Biso   1.000  O
  O31      1.0000 0.54530  0.92870  0.16180  Biso   1.000  O
  O32      1.0000 0.45470  0.07130  0.16180  Biso   1.000  O
  O33      1.0000 0.04530  0.57130  0.66180  Biso   1.000  O
  O34      1.0000 0.95470  0.42870  0.66180  Biso   1.000  O
  O35      1.0000 0.95470  0.57130  0.83820  Biso   1.000  O
  O36      1.0000 0.04530  0.42870  0.83820  Biso   1.000  O
  O37      1.0000 0.54530  0.07130  0.66180  Biso   1.000  O
  O38      1.0000 0.45470  0.92870  0.66180  Biso   1.000  O
  O39      1.0000 0.45470  0.07130  0.83820  Biso   1.000  O
  O40      1.0000 0.54530  0.92870  0.83820  Biso   1.000  O
  O41      1.0000 0.00000  0.40940  0.25000  Biso   1.000  O
  O42      1.0000 0.00000  0.59060  0.25000  Biso   1.000  O
  O43      1.0000 0.50000  0.90940  0.25000  Biso   1.000  O
  O44      1.0000 0.50000  0.09060  0.25000  Biso   1.000  O
  O45      1.0000 0.00000  0.59060  0.75000  Biso   1.000  O
  O46      1.0000 0.00000  0.40940  0.75000  Biso   1.000  O
  O47      1.0000 0.50000  0.09060  0.75000  Biso   1.000  O
  O48      1.0000 0.50000  0.90940  0.75000  Biso   1.000  O
