data_image0
_cell_length_a       13.4495
_cell_length_b       15.0521
_cell_length_c       16.6729
_cell_angle_alpha    90
_cell_angle_beta     90
_cell_angle_gamma    90

_symmetry_space_group_name_H-M    "P 1"
_symmetry_int_tables_number       1

loop_
  _symmetry_equiv_pos_as_xyz
  'x, y, z'

loop_
  _atom_site_label
  _atom_site_occupancy
  _atom_site_fract_x
  _atom_site_fract_y
  _atom_site_fract_z
  _atom_site_thermal_displace_type
  _atom_site_B_iso_or_equiv
  _atom_site_type_symbol
  Cu1      1.0000 0.00000  0.50000  0.00000  Biso   1.000  Cu
  Cu2      1.0000 0.00000  0.50000  0.50000  Biso   1.000  Cu
  Cu3      1.0000 0.50000  0.00000  0.00000  Biso   1.000  Cu
  Cu4      1.0000 0.50000  0.00000  0.50000  Biso   1.000  Cu
  P1       1.0000 0.75000  0.25000  0.32335  Biso   1.000  P
  P2       1.0000 0.25000  0.75000  0.32335  Biso   1.000  P
  P3       1.0000 0.25000  0.25000  0.17665  Biso   1.000  P
  P4       1.0000 0.75000  0.75000  0.17665  Biso   1.000  P
  P5       1.0000 0.25000  0.75000  0.67665  Biso   1.000  P
  P6       1.0000 0.75000  0.25000  0.67665  Biso   1.000  P
  P7       1.0000 0.75000  0.75000  0.82335  Biso   1.000  P
  P8       1.0000 0.25000  0.25000  0.82335  Biso   1.000  P
  N1       1.0000 0.91040  0.45120  0.08760  Biso   1.000  N
  N2       1.0000 0.08960  0.54880  0.08760  Biso   1.000  N
  N3       1.0000 0.08960  0.45120  0.41240  Biso   1.000  N
  N4       1.0000 0.91040  0.54880  0.41240  Biso   1.000  N
  N5       1.0000 0.41040  0.95120  0.08760  Biso   1.000  N
  N6       1.0000 0.58960  0.04880  0.08760  Biso   1.000  N
  N7       1.0000 0.58960  0.95120  0.41240  Biso   1.000  N
  N8       1.0000 0.41040  0.04880  0.41240  Biso   1.000  N
  N9       1.0000 0.08960  0.54880  0.91240  Biso   1.000  N
  N10      1.0000 0.91040  0.45120  0.91240  Biso   1.000  N
  N11      1.0000 0.91040  0.54880  0.58760  Biso   1.000  N
  N12      1.0000 0.08960  0.45120  0.58760  Biso   1.000  N
  N13      1.0000 0.58960  0.04880  0.91240  Biso   1.000  N
  N14      1.0000 0.41040  0.95120  0.91240  Biso   1.000  N
  N15      1.0000 0.41040  0.04880  0.58760  Biso   1.000  N
  N16      1.0000 0.58960  0.95120  0.58760  Biso   1.000  N
  N17      1.0000 0.72570  0.33600  0.26260  Biso   1.000  N
  N18      1.0000 0.27430  0.66400  0.26260  Biso   1.000  N
  N19      1.0000 0.27430  0.33600  0.23740  Biso   1.000  N
  N20      1.0000 0.72570  0.66400  0.23740  Biso   1.000  N
  N21      1.0000 0.22570  0.83600  0.26260  Biso   1.000  N
  N22      1.0000 0.77430  0.16400  0.26260  Biso   1.000  N
  N23      1.0000 0.77430  0.83600  0.23740  Biso   1.000  N
  N24      1.0000 0.22570  0.16400  0.23740  Biso   1.000  N
  N25      1.0000 0.27430  0.66400  0.73740  Biso   1.000  N
  N26      1.0000 0.72570  0.33600  0.73740  Biso   1.000  N
  N27      1.0000 0.72570  0.66400  0.76260  Biso   1.000  N
  N28      1.0000 0.27430  0.33600  0.76260  Biso   1.000  N
  N29      1.0000 0.77430  0.16400  0.73740  Biso   1.000  N
  N30      1.0000 0.22570  0.83600  0.73740  Biso   1.000  N
  N31      1.0000 0.22570  0.16400  0.76260  Biso   1.000  N
  N32      1.0000 0.77430  0.83600  0.76260  Biso   1.000  N
  H1       1.0000 0.66620  0.35970  0.26720  Biso   1.000  H
  H2       1.0000 0.33380  0.64030  0.26720  Biso   1.000  H
  H3       1.0000 0.33380  0.35970  0.23280  Biso   1.000  H
  H4       1.0000 0.66620  0.64030  0.23280  Biso   1.000  H
  H5       1.0000 0.16620  0.85970  0.26720  Biso   1.000  H
  H6       1.0000 0.83380  0.14030  0.26720  Biso   1.000  H
  H7       1.0000 0.83380  0.85970  0.23280  Biso   1.000  H
  H8       1.0000 0.16620  0.14030  0.23280  Biso   1.000  H
  H9       1.0000 0.33380  0.64030  0.73280  Biso   1.000  H
  H10      1.0000 0.66620  0.35970  0.73280  Biso   1.000  H
  H11      1.0000 0.66620  0.64030  0.76720  Biso   1.000  H
  H12      1.0000 0.33380  0.35970  0.76720  Biso   1.000  H
  H13      1.0000 0.83380  0.14030  0.73280  Biso   1.000  H
  H14      1.0000 0.16620  0.85970  0.73280  Biso   1.000  H
  H15      1.0000 0.16620  0.14030  0.76720  Biso   1.000  H
  H16      1.0000 0.83380  0.85970  0.76720  Biso   1.000  H
  O1       1.0000 0.11100  0.35930  0.00000  Biso   1.000  O
  O2       1.0000 0.88900  0.64070  0.00000  Biso   1.000  O
  O3       1.0000 0.88900  0.35930  0.50000  Biso   1.000  O
  O4       1.0000 0.11100  0.64070  0.50000  Biso   1.000  O
  O5       1.0000 0.61100  0.85930  0.00000  Biso   1.000  O
  O6       1.0000 0.38900  0.14070  0.00000  Biso   1.000  O
  O7       1.0000 0.38900  0.85930  0.50000  Biso   1.000  O
  O8       1.0000 0.61100  0.14070  0.50000  Biso   1.000  O
  H17      1.0000 0.09000  0.31300  0.03300  Biso   1.000  H
  H18      1.0000 0.91000  0.68700  0.03300  Biso   1.000  H
  H19      1.0000 0.91000  0.31300  0.46700  Biso   1.000  H
  H20      1.0000 0.09000  0.68700  0.46700  Biso   1.000  H
  H21      1.0000 0.59000  0.81300  0.03300  Biso   1.000  H
  H22      1.0000 0.41000  0.18700  0.03300  Biso   1.000  H
  H23      1.0000 0.41000  0.81300  0.46700  Biso   1.000  H
  H24      1.0000 0.59000  0.18700  0.46700  Biso   1.000  H
  H25      1.0000 0.91000  0.68700  0.96700  Biso   1.000  H
  H26      1.0000 0.09000  0.31300  0.96700  Biso   1.000  H
  H27      1.0000 0.09000  0.68700  0.53300  Biso   1.000  H
  H28      1.0000 0.91000  0.31300  0.53300  Biso   1.000  H
  H29      1.0000 0.41000  0.18700  0.96700  Biso   1.000  H
  H30      1.0000 0.59000  0.81300  0.96700  Biso   1.000  H
  H31      1.0000 0.59000  0.18700  0.53300  Biso   1.000  H
  H32      1.0000 0.41000  0.81300  0.53300  Biso   1.000  H
  O9       1.0000 0.84490  0.26380  0.36680  Biso   1.000  O
  O10      1.0000 0.15510  0.73620  0.36680  Biso   1.000  O
  O11      1.0000 0.15510  0.26380  0.13320  Biso   1.000  O
  O12      1.0000 0.84490  0.73620  0.13320  Biso   1.000  O
  O13      1.0000 0.34490  0.76380  0.36680  Biso   1.000  O
  O14      1.0000 0.65510  0.23620  0.36680  Biso   1.000  O
  O15      1.0000 0.65510  0.76380  0.13320  Biso   1.000  O
  O16      1.0000 0.34490  0.23620  0.13320  Biso   1.000  O
  O17      1.0000 0.15510  0.73620  0.63320  Biso   1.000  O
  O18      1.0000 0.84490  0.26380  0.63320  Biso   1.000  O
  O19      1.0000 0.84490  0.73620  0.86680  Biso   1.000  O
  O20      1.0000 0.15510  0.26380  0.86680  Biso   1.000  O
  O21      1.0000 0.65510  0.23620  0.63320  Biso   1.000  O
  O22      1.0000 0.34490  0.76380  0.63320  Biso   1.000  O
  O23      1.0000 0.34490  0.23620  0.86680  Biso   1.000  O
  O24      1.0000 0.65510  0.76380  0.86680  Biso   1.000  O
  C1       1.0000 0.78730  0.37410  0.20630  Biso   1.000  C
  C2       1.0000 0.21270  0.62590  0.20630  Biso   1.000  C
  C3       1.0000 0.21270  0.37410  0.29370  Biso   1.000  C
  C4       1.0000 0.78730  0.62590  0.29370  Biso   1.000  C
  C5       1.0000 0.28730  0.87410  0.20630  Biso   1.000  C
  C6       1.0000 0.71270  0.12590  0.20630  Biso   1.000  C
  C7       1.0000 0.71270  0.87410  0.29370  Biso   1.000  C
  C8       1.0000 0.28730  0.12590  0.29370  Biso   1.000  C
  C9       1.0000 0.21270  0.62590  0.79370  Biso   1.000  C
  C10      1.0000 0.78730  0.37410  0.79370  Biso   1.000  C
  C11      1.0000 0.78730  0.62590  0.70630  Biso   1.000  C
  C12      1.0000 0.21270  0.37410  0.70630  Biso   1.000  C
  C13      1.0000 0.71270  0.12590  0.79370  Biso   1.000  C
  C14      1.0000 0.28730  0.87410  0.79370  Biso   1.000  C
  C15      1.0000 0.28730  0.12590  0.70630  Biso   1.000  C
  C16      1.0000 0.71270  0.87410  0.70630  Biso   1.000  C
  C17      1.0000 0.81650  0.47870  0.10060  Biso   1.000  C
  C18      1.0000 0.18350  0.52130  0.10060  Biso   1.000  C
  C19      1.0000 0.18350  0.47870  0.39940  Biso   1.000  C
  C20      1.0000 0.81650  0.52130  0.39940  Biso   1.000  C
  C21      1.0000 0.31650  0.97870  0.10060  Biso   1.000  C
  C22      1.0000 0.68350  0.02130  0.10060  Biso   1.000  C
  C23      1.0000 0.68350  0.97870  0.39940  Biso   1.000  C
  C24      1.0000 0.31650  0.02130  0.39940  Biso   1.000  C
  C25      1.0000 0.18350  0.52130  0.89940  Biso   1.000  C
  C26      1.0000 0.81650  0.47870  0.89940  Biso   1.000  C
  C27      1.0000 0.81650  0.52130  0.60060  Biso   1.000  C
  C28      1.0000 0.18350  0.47870  0.60060  Biso   1.000  C
  C29      1.0000 0.68350  0.02130  0.89940  Biso   1.000  C
  C30      1.0000 0.31650  0.97870  0.89940  Biso   1.000  C
  C31      1.0000 0.31650  0.02130  0.60060  Biso   1.000  C
  C32      1.0000 0.68350  0.97870  0.60060  Biso   1.000  C
  H33      1.0000 0.79160  0.52570  0.06830  Biso   1.000  H
  H34      1.0000 0.20840  0.47430  0.06830  Biso   1.000  H
  H35      1.0000 0.20840  0.52570  0.43170  Biso   1.000  H
  H36      1.0000 0.79160  0.47430  0.43170  Biso   1.000  H
  H37      1.0000 0.29160  0.02570  0.06830  Biso   1.000  H
  H38      1.0000 0.70840  0.97430  0.06830  Biso   1.000  H
  H39      1.0000 0.70840  0.02570  0.43170  Biso   1.000  H
  H40      1.0000 0.29160  0.97430  0.43170  Biso   1.000  H
  H41      1.0000 0.20840  0.47430  0.93170  Biso   1.000  H
  H42      1.0000 0.79160  0.52570  0.93170  Biso   1.000  H
  H43      1.0000 0.79160  0.47430  0.56830  Biso   1.000  H
  H44      1.0000 0.20840  0.52570  0.56830  Biso   1.000  H
  H45      1.0000 0.70840  0.97430  0.93170  Biso   1.000  H
  H46      1.0000 0.29160  0.02570  0.93170  Biso   1.000  H
  H47      1.0000 0.29160  0.97430  0.56830  Biso   1.000  H
  H48      1.0000 0.70840  0.02570  0.56830  Biso   1.000  H
  C33      1.0000 0.75460  0.44330  0.15760  Biso   1.000  C
  C34      1.0000 0.24540  0.55670  0.15760  Biso   1.000  C
  C35      1.0000 0.24540  0.44330  0.34240  Biso   1.000  C
  C36      1.0000 0.75460  0.55670  0.34240  Biso   1.000  C
  C37      1.0000 0.25460  0.94330  0.15760  Biso   1.000  C
  C38      1.0000 0.74540  0.05670  0.15760  Biso   1.000  C
  C39      1.0000 0.74540  0.94330  0.34240  Biso   1.000  C
  C40      1.0000 0.25460  0.05670  0.34240  Biso   1.000  C
  C41      1.0000 0.24540  0.55670  0.84240  Biso   1.000  C
  C42      1.0000 0.75460  0.44330  0.84240  Biso   1.000  C
  C43      1.0000 0.75460  0.55670  0.65760  Biso   1.000  C
  C44      1.0000 0.24540  0.44330  0.65760  Biso   1.000  C
  C45      1.0000 0.74540  0.05670  0.84240  Biso   1.000  C
  C46      1.0000 0.25460  0.94330  0.84240  Biso   1.000  C
  C47      1.0000 0.25460  0.05670  0.65760  Biso   1.000  C
  C48      1.0000 0.74540  0.94330  0.65760  Biso   1.000  C
  H49      1.0000 0.68920  0.46610  0.16380  Biso   1.000  H
  H50      1.0000 0.31080  0.53390  0.16380  Biso   1.000  H
  H51      1.0000 0.31080  0.46610  0.33620  Biso   1.000  H
  H52      1.0000 0.68920  0.53390  0.33620  Biso   1.000  H
  H53      1.0000 0.18920  0.96610  0.16380  Biso   1.000  H
  H54      1.0000 0.81080  0.03390  0.16380  Biso   1.000  H
  H55      1.0000 0.81080  0.96610  0.33620  Biso   1.000  H
  H56      1.0000 0.18920  0.03390  0.33620  Biso   1.000  H
  H57      1.0000 0.31080  0.53390  0.83620  Biso   1.000  H
  H58      1.0000 0.68920  0.46610  0.83620  Biso   1.000  H
  H59      1.0000 0.68920  0.53390  0.66380  Biso   1.000  H
  H60      1.0000 0.31080  0.46610  0.66380  Biso   1.000  H
  H61      1.0000 0.81080  0.03390  0.83620  Biso   1.000  H
  H62      1.0000 0.18920  0.96610  0.83620  Biso   1.000  H
  H63      1.0000 0.18920  0.03390  0.66380  Biso   1.000  H
  H64      1.0000 0.81080  0.96610  0.66380  Biso   1.000  H
  C49      1.0000 0.94270  0.38630  0.13580  Biso   1.000  C
  C50      1.0000 0.05730  0.61370  0.13580  Biso   1.000  C
  C51      1.0000 0.05730  0.38630  0.36420  Biso   1.000  C
  C52      1.0000 0.94270  0.61370  0.36420  Biso   1.000  C
  C53      1.0000 0.44270  0.88630  0.13580  Biso   1.000  C
  C54      1.0000 0.55730  0.11370  0.13580  Biso   1.000  C
  C55      1.0000 0.55730  0.88630  0.36420  Biso   1.000  C
  C56      1.0000 0.44270  0.11370  0.36420  Biso   1.000  C
  C57      1.0000 0.05730  0.61370  0.86420  Biso   1.000  C
  C58      1.0000 0.94270  0.38630  0.86420  Biso   1.000  C
  C59      1.0000 0.94270  0.61370  0.63580  Biso   1.000  C
  C60      1.0000 0.05730  0.38630  0.63580  Biso   1.000  C
  C61      1.0000 0.55730  0.11370  0.86420  Biso   1.000  C
  C62      1.0000 0.44270  0.88630  0.86420  Biso   1.000  C
  C63      1.0000 0.44270  0.11370  0.63580  Biso   1.000  C
  C64      1.0000 0.55730  0.88630  0.63580  Biso   1.000  C
  H65      1.0000 0.00950  0.36690  0.12960  Biso   1.000  H
  H66      1.0000 0.99050  0.63310  0.12960  Biso   1.000  H
  H67      1.0000 0.99050  0.36690  0.37040  Biso   1.000  H
  H68      1.0000 0.00950  0.63310  0.37040  Biso   1.000  H
  H69      1.0000 0.50950  0.86690  0.12960  Biso   1.000  H
  H70      1.0000 0.49050  0.13310  0.12960  Biso   1.000  H
  H71      1.0000 0.49050  0.86690  0.37040  Biso   1.000  H
  H72      1.0000 0.50950  0.13310  0.37040  Biso   1.000  H
  H73      1.0000 0.99050  0.63310  0.87040  Biso   1.000  H
  H74      1.0000 0.00950  0.36690  0.87040  Biso   1.000  H
  H75      1.0000 0.00950  0.63310  0.62960  Biso   1.000  H
  H76      1.0000 0.99050  0.36690  0.62960  Biso   1.000  H
  H77      1.0000 0.49050  0.13310  0.87040  Biso   1.000  H
  H78      1.0000 0.50950  0.86690  0.87040  Biso   1.000  H
  H79      1.0000 0.50950  0.13310  0.62960  Biso   1.000  H
  H80      1.0000 0.49050  0.86690  0.62960  Biso   1.000  H
  C65      1.0000 0.88570  0.34570  0.19380  Biso   1.000  C
  C66      1.0000 0.11430  0.65430  0.19380  Biso   1.000  C
  C67      1.0000 0.11430  0.34570  0.30620  Biso   1.000  C
  C68      1.0000 0.88570  0.65430  0.30620  Biso   1.000  C
  C69      1.0000 0.38570  0.84570  0.19380  Biso   1.000  C
  C70      1.0000 0.61430  0.15430  0.19380  Biso   1.000  C
  C71      1.0000 0.61430  0.84570  0.30620  Biso   1.000  C
  C72      1.0000 0.38570  0.15430  0.30620  Biso   1.000  C
  C73      1.0000 0.11430  0.65430  0.80620  Biso   1.000  C
  C74      1.0000 0.88570  0.34570  0.80620  Biso   1.000  C
  C75      1.0000 0.88570  0.65430  0.69380  Biso   1.000  C
  C76      1.0000 0.11430  0.34570  0.69380  Biso   1.000  C
  C77      1.0000 0.61430  0.15430  0.80620  Biso   1.000  C
  C78      1.0000 0.38570  0.84570  0.80620  Biso   1.000  C
  C79      1.0000 0.38570  0.15430  0.69380  Biso   1.000  C
  C80      1.0000 0.61430  0.84570  0.69380  Biso   1.000  C
  H81      1.0000 0.91270  0.29890  0.22520  Biso   1.000  H
  H82      1.0000 0.08730  0.70110  0.22520  Biso   1.000  H
  H83      1.0000 0.08730  0.29890  0.27480  Biso   1.000  H
  H84      1.0000 0.91270  0.70110  0.27480  Biso   1.000  H
  H85      1.0000 0.41270  0.79890  0.22520  Biso   1.000  H
  H86      1.0000 0.58730  0.20110  0.22520  Biso   1.000  H
  H87      1.0000 0.58730  0.79890  0.27480  Biso   1.000  H
  H88      1.0000 0.41270  0.20110  0.27480  Biso   1.000  H
  H89      1.0000 0.08730  0.70110  0.77480  Biso   1.000  H
  H90      1.0000 0.91270  0.29890  0.77480  Biso   1.000  H
  H91      1.0000 0.91270  0.70110  0.72520  Biso   1.000  H
  H92      1.0000 0.08730  0.29890  0.72520  Biso   1.000  H
  H93      1.0000 0.58730  0.20110  0.77480  Biso   1.000  H
  H94      1.0000 0.41270  0.79890  0.77480  Biso   1.000  H
  H95      1.0000 0.41270  0.20110  0.72520  Biso   1.000  H
  H96      1.0000 0.58730  0.79890  0.72520  Biso   1.000  H
