data_image0
_cell_length_a       13.158
_cell_length_b       14.942
_cell_length_c       16.667
_cell_angle_alpha    90
_cell_angle_beta     90
_cell_angle_gamma    90

_symmetry_space_group_name_H-M    "P 1"
_symmetry_int_tables_number       1

loop_
  _symmetry_equiv_pos_as_xyz
  'x, y, z'

loop_
  _atom_site_label
  _atom_site_occupancy
  _atom_site_fract_x
  _atom_site_fract_y
  _atom_site_fract_z
  _atom_site_thermal_displace_type
  _atom_site_B_iso_or_equiv
  _atom_site_type_symbol
  Cu1      1.0000 0.00000  0.00000  0.00000  Biso   1.000  Cu
  Cu2      1.0000 0.00000  0.00000  0.50000  Biso   1.000  Cu
  Cu3      1.0000 0.50000  0.50000  0.00000  Biso   1.000  Cu
  Cu4      1.0000 0.50000  0.50000  0.50000  Biso   1.000  Cu
  P1       1.0000 0.75000  0.25000  0.32207  Biso   1.000  P
  P2       1.0000 0.25000  0.75000  0.32207  Biso   1.000  P
  P3       1.0000 0.25000  0.25000  0.17793  Biso   1.000  P
  P4       1.0000 0.75000  0.75000  0.17793  Biso   1.000  P
  P5       1.0000 0.25000  0.75000  0.67793  Biso   1.000  P
  P6       1.0000 0.75000  0.25000  0.67793  Biso   1.000  P
  P7       1.0000 0.75000  0.75000  0.82207  Biso   1.000  P
  P8       1.0000 0.25000  0.25000  0.82207  Biso   1.000  P
  N1       1.0000 0.72475  0.16454  0.26076  Biso   1.000  N
  N2       1.0000 0.27525  0.83546  0.26076  Biso   1.000  N
  N3       1.0000 0.27525  0.16454  0.23924  Biso   1.000  N
  N4       1.0000 0.72475  0.83546  0.23924  Biso   1.000  N
  N5       1.0000 0.22475  0.66454  0.26076  Biso   1.000  N
  N6       1.0000 0.77525  0.33546  0.26076  Biso   1.000  N
  N7       1.0000 0.77525  0.66454  0.23924  Biso   1.000  N
  N8       1.0000 0.22475  0.33546  0.23924  Biso   1.000  N
  N9       1.0000 0.27525  0.83546  0.73924  Biso   1.000  N
  N10      1.0000 0.72475  0.16454  0.73924  Biso   1.000  N
  N11      1.0000 0.72475  0.83546  0.76076  Biso   1.000  N
  N12      1.0000 0.27525  0.16454  0.76076  Biso   1.000  N
  N13      1.0000 0.77525  0.33546  0.73924  Biso   1.000  N
  N14      1.0000 0.22475  0.66454  0.73924  Biso   1.000  N
  N15      1.0000 0.22475  0.33546  0.76076  Biso   1.000  N
  N16      1.0000 0.77525  0.66454  0.76076  Biso   1.000  N
  H1       1.0000 0.66370  0.14100  0.26500  Biso   1.000  H
  H2       1.0000 0.33630  0.85900  0.26500  Biso   1.000  H
  H3       1.0000 0.33630  0.14100  0.23500  Biso   1.000  H
  H4       1.0000 0.66370  0.85900  0.23500  Biso   1.000  H
  H5       1.0000 0.16370  0.64100  0.26500  Biso   1.000  H
  H6       1.0000 0.83630  0.35900  0.26500  Biso   1.000  H
  H7       1.0000 0.83630  0.64100  0.23500  Biso   1.000  H
  H8       1.0000 0.16370  0.35900  0.23500  Biso   1.000  H
  H9       1.0000 0.33630  0.85900  0.73500  Biso   1.000  H
  H10      1.0000 0.66370  0.14100  0.73500  Biso   1.000  H
  H11      1.0000 0.66370  0.85900  0.76500  Biso   1.000  H
  H12      1.0000 0.33630  0.14100  0.76500  Biso   1.000  H
  H13      1.0000 0.83630  0.35900  0.73500  Biso   1.000  H
  H14      1.0000 0.16370  0.64100  0.73500  Biso   1.000  H
  H15      1.0000 0.16370  0.35900  0.76500  Biso   1.000  H
  H16      1.0000 0.83630  0.64100  0.76500  Biso   1.000  H
  C1       1.0000 0.78689  0.12666  0.20494  Biso   1.000  C
  C2       1.0000 0.21311  0.87334  0.20494  Biso   1.000  C
  C3       1.0000 0.21311  0.12666  0.29506  Biso   1.000  C
  C4       1.0000 0.78689  0.87334  0.29506  Biso   1.000  C
  C5       1.0000 0.28689  0.62666  0.20494  Biso   1.000  C
  C6       1.0000 0.71311  0.37334  0.20494  Biso   1.000  C
  C7       1.0000 0.71311  0.62666  0.29506  Biso   1.000  C
  C8       1.0000 0.28689  0.37334  0.29506  Biso   1.000  C
  C9       1.0000 0.21311  0.87334  0.79506  Biso   1.000  C
  C10      1.0000 0.78689  0.12666  0.79506  Biso   1.000  C
  C11      1.0000 0.78689  0.87334  0.70494  Biso   1.000  C
  C12      1.0000 0.21311  0.12666  0.70494  Biso   1.000  C
  C13      1.0000 0.71311  0.37334  0.79506  Biso   1.000  C
  C14      1.0000 0.28689  0.62666  0.79506  Biso   1.000  C
  C15      1.0000 0.28689  0.37334  0.70494  Biso   1.000  C
  C16      1.0000 0.71311  0.62666  0.70494  Biso   1.000  C
  C17      1.0000 0.94260  0.11352  0.13433  Biso   1.000  C
  C18      1.0000 0.05740  0.88648  0.13433  Biso   1.000  C
  C19      1.0000 0.05740  0.11352  0.36567  Biso   1.000  C
  C20      1.0000 0.94260  0.88648  0.36567  Biso   1.000  C
  C21      1.0000 0.44260  0.61352  0.13433  Biso   1.000  C
  C22      1.0000 0.55740  0.38648  0.13433  Biso   1.000  C
  C23      1.0000 0.55740  0.61352  0.36567  Biso   1.000  C
  C24      1.0000 0.44260  0.38648  0.36567  Biso   1.000  C
  C25      1.0000 0.05740  0.88648  0.86567  Biso   1.000  C
  C26      1.0000 0.94260  0.11352  0.86567  Biso   1.000  C
  C27      1.0000 0.94260  0.88648  0.63433  Biso   1.000  C
  C28      1.0000 0.05740  0.11352  0.63433  Biso   1.000  C
  C29      1.0000 0.55740  0.38648  0.86567  Biso   1.000  C
  C30      1.0000 0.44260  0.61352  0.86567  Biso   1.000  C
  C31      1.0000 0.44260  0.38648  0.63433  Biso   1.000  C
  C32      1.0000 0.55740  0.61352  0.63433  Biso   1.000  C
  H17      1.0000 0.01070  0.13320  0.12740  Biso   1.000  H
  H18      1.0000 0.98930  0.86680  0.12740  Biso   1.000  H
  H19      1.0000 0.98930  0.13320  0.37260  Biso   1.000  H
  H20      1.0000 0.01070  0.86680  0.37260  Biso   1.000  H
  H21      1.0000 0.51070  0.63320  0.12740  Biso   1.000  H
  H22      1.0000 0.48930  0.36680  0.12740  Biso   1.000  H
  H23      1.0000 0.48930  0.63320  0.37260  Biso   1.000  H
  H24      1.0000 0.51070  0.36680  0.37260  Biso   1.000  H
  H25      1.0000 0.98930  0.86680  0.87260  Biso   1.000  H
  H26      1.0000 0.01070  0.13320  0.87260  Biso   1.000  H
  H27      1.0000 0.01070  0.86680  0.62740  Biso   1.000  H
  H28      1.0000 0.98930  0.13320  0.62740  Biso   1.000  H
  H29      1.0000 0.48930  0.36680  0.87260  Biso   1.000  H
  H30      1.0000 0.51070  0.63320  0.87260  Biso   1.000  H
  H31      1.0000 0.51070  0.36680  0.62740  Biso   1.000  H
  H32      1.0000 0.48930  0.63320  0.62740  Biso   1.000  H
  C33      1.0000 0.88552  0.15356  0.19244  Biso   1.000  C
  C34      1.0000 0.11448  0.84644  0.19244  Biso   1.000  C
  C35      1.0000 0.11448  0.15356  0.30756  Biso   1.000  C
  C36      1.0000 0.88552  0.84644  0.30756  Biso   1.000  C
  C37      1.0000 0.38552  0.65356  0.19244  Biso   1.000  C
  C38      1.0000 0.61448  0.34644  0.19244  Biso   1.000  C
  C39      1.0000 0.61448  0.65356  0.30756  Biso   1.000  C
  C40      1.0000 0.38552  0.34644  0.30756  Biso   1.000  C
  C41      1.0000 0.11448  0.84644  0.80756  Biso   1.000  C
  C42      1.0000 0.88552  0.15356  0.80756  Biso   1.000  C
  C43      1.0000 0.88552  0.84644  0.69244  Biso   1.000  C
  C44      1.0000 0.11448  0.15356  0.69244  Biso   1.000  C
  C45      1.0000 0.61448  0.34644  0.80756  Biso   1.000  C
  C46      1.0000 0.38552  0.65356  0.80756  Biso   1.000  C
  C47      1.0000 0.38552  0.34644  0.69244  Biso   1.000  C
  C48      1.0000 0.61448  0.65356  0.69244  Biso   1.000  C
  H33      1.0000 0.91390  0.20000  0.22430  Biso   1.000  H
  H34      1.0000 0.08610  0.80000  0.22430  Biso   1.000  H
  H35      1.0000 0.08610  0.20000  0.27570  Biso   1.000  H
  H36      1.0000 0.91390  0.80000  0.27570  Biso   1.000  H
  H37      1.0000 0.41390  0.70000  0.22430  Biso   1.000  H
  H38      1.0000 0.58610  0.30000  0.22430  Biso   1.000  H
  H39      1.0000 0.58610  0.70000  0.27570  Biso   1.000  H
  H40      1.0000 0.41390  0.30000  0.27570  Biso   1.000  H
  H41      1.0000 0.08610  0.80000  0.77570  Biso   1.000  H
  H42      1.0000 0.91390  0.20000  0.77570  Biso   1.000  H
  H43      1.0000 0.91390  0.80000  0.72430  Biso   1.000  H
  H44      1.0000 0.08610  0.20000  0.72430  Biso   1.000  H
  H45      1.0000 0.58610  0.30000  0.77570  Biso   1.000  H
  H46      1.0000 0.41390  0.70000  0.77570  Biso   1.000  H
  H47      1.0000 0.41390  0.30000  0.72430  Biso   1.000  H
  H48      1.0000 0.58610  0.70000  0.72430  Biso   1.000  H
  C49      1.0000 0.81499  0.02089  0.10079  Biso   1.000  C
  C50      1.0000 0.18501  0.97911  0.10079  Biso   1.000  C
  C51      1.0000 0.18501  0.02089  0.39921  Biso   1.000  C
  C52      1.0000 0.81499  0.97911  0.39921  Biso   1.000  C
  C53      1.0000 0.31499  0.52089  0.10079  Biso   1.000  C
  C54      1.0000 0.68501  0.47911  0.10079  Biso   1.000  C
  C55      1.0000 0.68501  0.52089  0.39921  Biso   1.000  C
  C56      1.0000 0.31499  0.47911  0.39921  Biso   1.000  C
  C57      1.0000 0.18501  0.97911  0.89921  Biso   1.000  C
  C58      1.0000 0.81499  0.02089  0.89921  Biso   1.000  C
  C59      1.0000 0.81499  0.97911  0.60079  Biso   1.000  C
  C60      1.0000 0.18501  0.02089  0.60079  Biso   1.000  C
  C61      1.0000 0.68501  0.47911  0.89921  Biso   1.000  C
  C62      1.0000 0.31499  0.52089  0.89921  Biso   1.000  C
  C63      1.0000 0.31499  0.47911  0.60079  Biso   1.000  C
  C64      1.0000 0.68501  0.52089  0.60079  Biso   1.000  C
  H49      1.0000 0.78970  0.97260  0.06950  Biso   1.000  H
  H50      1.0000 0.21030  0.02740  0.06950  Biso   1.000  H
  H51      1.0000 0.21030  0.97260  0.43050  Biso   1.000  H
  H52      1.0000 0.78970  0.02740  0.43050  Biso   1.000  H
  H53      1.0000 0.28970  0.47260  0.06950  Biso   1.000  H
  H54      1.0000 0.71030  0.52740  0.06950  Biso   1.000  H
  H55      1.0000 0.71030  0.47260  0.43050  Biso   1.000  H
  H56      1.0000 0.28970  0.52740  0.43050  Biso   1.000  H
  H57      1.0000 0.21030  0.02740  0.93050  Biso   1.000  H
  H58      1.0000 0.78970  0.97260  0.93050  Biso   1.000  H
  H59      1.0000 0.78970  0.02740  0.56950  Biso   1.000  H
  H60      1.0000 0.21030  0.97260  0.56950  Biso   1.000  H
  H61      1.0000 0.71030  0.52740  0.93050  Biso   1.000  H
  H62      1.0000 0.28970  0.47260  0.93050  Biso   1.000  H
  H63      1.0000 0.28970  0.52740  0.56950  Biso   1.000  H
  H64      1.0000 0.71030  0.47260  0.56950  Biso   1.000  H
  C65      1.0000 0.75240  0.05693  0.15711  Biso   1.000  C
  C66      1.0000 0.24760  0.94307  0.15711  Biso   1.000  C
  C67      1.0000 0.24760  0.05693  0.34289  Biso   1.000  C
  C68      1.0000 0.75240  0.94307  0.34289  Biso   1.000  C
  C69      1.0000 0.25240  0.55693  0.15711  Biso   1.000  C
  C70      1.0000 0.74760  0.44307  0.15711  Biso   1.000  C
  C71      1.0000 0.74760  0.55693  0.34289  Biso   1.000  C
  C72      1.0000 0.25240  0.44307  0.34289  Biso   1.000  C
  C73      1.0000 0.24760  0.94307  0.84289  Biso   1.000  C
  C74      1.0000 0.75240  0.05693  0.84289  Biso   1.000  C
  C75      1.0000 0.75240  0.94307  0.65711  Biso   1.000  C
  C76      1.0000 0.24760  0.05693  0.65711  Biso   1.000  C
  C77      1.0000 0.74760  0.44307  0.84289  Biso   1.000  C
  C78      1.0000 0.25240  0.55693  0.84289  Biso   1.000  C
  C79      1.0000 0.25240  0.44307  0.65711  Biso   1.000  C
  C80      1.0000 0.74760  0.55693  0.65711  Biso   1.000  C
  H65      1.0000 0.68530  0.03450  0.16370  Biso   1.000  H
  H66      1.0000 0.31470  0.96550  0.16370  Biso   1.000  H
  H67      1.0000 0.31470  0.03450  0.33630  Biso   1.000  H
  H68      1.0000 0.68530  0.96550  0.33630  Biso   1.000  H
  H69      1.0000 0.18530  0.53450  0.16370  Biso   1.000  H
  H70      1.0000 0.81470  0.46550  0.16370  Biso   1.000  H
  H71      1.0000 0.81470  0.53450  0.33630  Biso   1.000  H
  H72      1.0000 0.18530  0.46550  0.33630  Biso   1.000  H
  H73      1.0000 0.31470  0.96550  0.83630  Biso   1.000  H
  H74      1.0000 0.68530  0.03450  0.83630  Biso   1.000  H
  H75      1.0000 0.68530  0.96550  0.66370  Biso   1.000  H
  H76      1.0000 0.31470  0.03450  0.66370  Biso   1.000  H
  H77      1.0000 0.81470  0.46550  0.83630  Biso   1.000  H
  H78      1.0000 0.18530  0.53450  0.83630  Biso   1.000  H
  H79      1.0000 0.18530  0.46550  0.66370  Biso   1.000  H
  H80      1.0000 0.81470  0.53450  0.66370  Biso   1.000  H
  N17      1.0000 0.90871  0.04870  0.08674  Biso   1.000  N
  N18      1.0000 0.09129  0.95130  0.08674  Biso   1.000  N
  N19      1.0000 0.09129  0.04870  0.41326  Biso   1.000  N
  N20      1.0000 0.90871  0.95130  0.41326  Biso   1.000  N
  N21      1.0000 0.40871  0.54870  0.08674  Biso   1.000  N
  N22      1.0000 0.59129  0.45130  0.08674  Biso   1.000  N
  N23      1.0000 0.59129  0.54870  0.41326  Biso   1.000  N
  N24      1.0000 0.40871  0.45130  0.41326  Biso   1.000  N
  N25      1.0000 0.09129  0.95130  0.91326  Biso   1.000  N
  N26      1.0000 0.90871  0.04870  0.91326  Biso   1.000  N
  N27      1.0000 0.90871  0.95130  0.58674  Biso   1.000  N
  N28      1.0000 0.09129  0.04870  0.58674  Biso   1.000  N
  N29      1.0000 0.59129  0.45130  0.91326  Biso   1.000  N
  N30      1.0000 0.40871  0.54870  0.91326  Biso   1.000  N
  N31      1.0000 0.40871  0.45130  0.58674  Biso   1.000  N
  N32      1.0000 0.59129  0.54870  0.58674  Biso   1.000  N
  O1       1.0000 0.84621  0.23565  0.36487  Biso   1.000  O
  O2       1.0000 0.15379  0.76435  0.36487  Biso   1.000  O
  O3       1.0000 0.15379  0.23565  0.13513  Biso   1.000  O
  O4       1.0000 0.84621  0.76435  0.13513  Biso   1.000  O
  O5       1.0000 0.34621  0.73565  0.36487  Biso   1.000  O
  O6       1.0000 0.65379  0.26435  0.36487  Biso   1.000  O
  O7       1.0000 0.65379  0.73565  0.13513  Biso   1.000  O
  O8       1.0000 0.34621  0.26435  0.13513  Biso   1.000  O
  O9       1.0000 0.15379  0.76435  0.63513  Biso   1.000  O
  O10      1.0000 0.84621  0.23565  0.63513  Biso   1.000  O
  O11      1.0000 0.84621  0.76435  0.86487  Biso   1.000  O
  O12      1.0000 0.15379  0.23565  0.86487  Biso   1.000  O
  O13      1.0000 0.65379  0.26435  0.63513  Biso   1.000  O
  O14      1.0000 0.34621  0.73565  0.63513  Biso   1.000  O
  O15      1.0000 0.34621  0.26435  0.86487  Biso   1.000  O
  O16      1.0000 0.65379  0.73565  0.86487  Biso   1.000  O
  O17      1.0000 0.11240  0.14186  0.00000  Biso   1.000  O
  O18      1.0000 0.88760  0.85814  0.00000  Biso   1.000  O
  O19      1.0000 0.88760  0.14186  0.50000  Biso   1.000  O
  O20      1.0000 0.11240  0.85814  0.50000  Biso   1.000  O
  O21      1.0000 0.61240  0.64186  0.00000  Biso   1.000  O
  O22      1.0000 0.38760  0.35814  0.00000  Biso   1.000  O
  O23      1.0000 0.38760  0.64186  0.50000  Biso   1.000  O
  O24      1.0000 0.61240  0.35814  0.50000  Biso   1.000  O
  H81      1.0000 0.13200  0.16680  0.03570  Biso   1.000  H
  H82      1.0000 0.86800  0.83320  0.03570  Biso   1.000  H
  H83      1.0000 0.86800  0.16680  0.46430  Biso   1.000  H
  H84      1.0000 0.13200  0.83320  0.46430  Biso   1.000  H
  H85      1.0000 0.63200  0.66680  0.03570  Biso   1.000  H
  H86      1.0000 0.36800  0.33320  0.03570  Biso   1.000  H
  H87      1.0000 0.36800  0.66680  0.46430  Biso   1.000  H
  H88      1.0000 0.63200  0.33320  0.46430  Biso   1.000  H
  H89      1.0000 0.86800  0.83320  0.96430  Biso   1.000  H
  H90      1.0000 0.13200  0.16680  0.96430  Biso   1.000  H
  H91      1.0000 0.13200  0.83320  0.53570  Biso   1.000  H
  H92      1.0000 0.86800  0.16680  0.53570  Biso   1.000  H
  H93      1.0000 0.36800  0.33320  0.96430  Biso   1.000  H
  H94      1.0000 0.63200  0.66680  0.96430  Biso   1.000  H
  H95      1.0000 0.63200  0.33320  0.53570  Biso   1.000  H
  H96      1.0000 0.36800  0.66680  0.53570  Biso   1.000  H
