data_image0
_cell_length_a       10.824
_cell_length_b       13.31
_cell_length_c       13.347
_cell_angle_alpha    98.744
_cell_angle_beta     112.719
_cell_angle_gamma    96.281

_symmetry_space_group_name_H-M    "P 1"
_symmetry_int_tables_number       1

loop_
  _symmetry_equiv_pos_as_xyz
  'x, y, z'

loop_
  _atom_site_label
  _atom_site_occupancy
  _atom_site_fract_x
  _atom_site_fract_y
  _atom_site_fract_z
  _atom_site_thermal_displace_type
  _atom_site_B_iso_or_equiv
  _atom_site_type_symbol
  Cu1      1.0000 0.50000  0.50000  0.50000  Biso   1.000  Cu
  O1       1.0000 0.36600  0.37435  0.47131  Biso   1.000  O
  O2       1.0000 0.63400  0.62565  0.52869  Biso   1.000  O
  C1       1.0000 0.20040  0.25620  0.48250  Biso   1.000  C
  C2       1.0000 0.79960  0.74380  0.51750  Biso   1.000  C
  F1       1.0000 0.10540  0.24662  0.52030  Biso   1.000  F
  F2       1.0000 0.89460  0.75338  0.47970  Biso   1.000  F
  F3       1.0000 0.14650  0.21080  0.36700  Biso   1.000  F
  F4       1.0000 0.85350  0.78920  0.63300  Biso   1.000  F
  F5       1.0000 0.27700  0.20440  0.52730  Biso   1.000  F
  F6       1.0000 0.72300  0.79560  0.47270  Biso   1.000  F
  F7       1.0000 0.14500  0.21820  0.38810  Biso   1.000  F
  F8       1.0000 0.85500  0.78180  0.61190  Biso   1.000  F
  F9       1.0000 0.29900  0.19370  0.53440  Biso   1.000  F
  F10      1.0000 0.70100  0.80630  0.46560  Biso   1.000  F
  C3       1.0000 0.27430  0.36700  0.50590  Biso   1.000  C
  C4       1.0000 0.72570  0.63300  0.49410  Biso   1.000  C
  C5       1.0000 0.23450  0.44430  0.55950  Biso   1.000  C
  C6       1.0000 0.76550  0.55570  0.44050  Biso   1.000  C
  H1       1.0000 0.17900  0.43100  0.57400  Biso   1.000  H
  H2       1.0000 0.82100  0.56900  0.42600  Biso   1.000  H
  C7       1.0000 0.29390  0.54720  0.58330  Biso   1.000  C
  C8       1.0000 0.70610  0.45280  0.41670  Biso   1.000  C
  C9       1.0000 0.24530  0.62650  0.64670  Biso   1.000  C
  C10      1.0000 0.75470  0.37350  0.35330  Biso   1.000  C
  F11      1.0000 0.21480  0.70090  0.59500  Biso   1.000  F
  F12      1.0000 0.78520  0.29910  0.40500  Biso   1.000  F
  F13      1.0000 0.15940  0.59300  0.67850  Biso   1.000  F
  F14      1.0000 0.84060  0.40700  0.32150  Biso   1.000  F
  F15      1.0000 0.35670  0.67720  0.74240  Biso   1.000  F
  F16      1.0000 0.64330  0.32280  0.25760  Biso   1.000  F
  F17      1.0000 0.29660  0.63080  0.74850  Biso   1.000  F
  F18      1.0000 0.70340  0.36920  0.25150  Biso   1.000  F
  F19      1.0000 0.10510  0.59770  0.61600  Biso   1.000  F
  F20      1.0000 0.89490  0.40230  0.38400  Biso   1.000  F
  F21      1.0000 0.24770  0.71380  0.62040  Biso   1.000  F
  F22      1.0000 0.75230  0.28620  0.37960  Biso   1.000  F
  O3       1.0000 0.38660  0.58494  0.55938  Biso   1.000  O
  O4       1.0000 0.61340  0.41506  0.44062  Biso   1.000  O
  Cu2      1.0000 0.00000  0.00000  0.00000  Biso   1.000  Cu
  O5       1.0000 0.02710  0.95445  0.13995  Biso   1.000  O
  O6       1.0000 0.97290  0.04555  0.86005  Biso   1.000  O
  C11      1.0000 0.01910  0.95000  0.31110  Biso   1.000  C
  C12      1.0000 0.98090  0.05000  0.68890  Biso   1.000  C
  F23      1.0000 0.99350  0.00440  0.38748  Biso   1.000  F
  F24      1.0000 0.00650  0.99560  0.61252  Biso   1.000  F
  F25      1.0000 0.97260  0.85401  0.29920  Biso   1.000  F
  F26      1.0000 0.02740  0.14599  0.70080  Biso   1.000  F
  F27      1.0000 0.15350  0.95820  0.35500  Biso   1.000  F
  F28      1.0000 0.84650  0.04180  0.64500  Biso   1.000  F
  C13      1.0000 0.96900  0.98410  0.20060  Biso   1.000  C
  C14      1.0000 0.03100  0.01590  0.79940  Biso   1.000  C
  C15      1.0000 0.86540  0.04120  0.17740  Biso   1.000  C
  C16      1.0000 0.13460  0.95880  0.82260  Biso   1.000  C
  H3       1.0000 0.83800  0.05100  0.22000  Biso   1.000  H
  H4       1.0000 0.16200  0.94900  0.78000  Biso   1.000  H
  C17      1.0000 0.80950  0.07280  0.07870  Biso   1.000  C
  C18      1.0000 0.19050  0.92720  0.92130  Biso   1.000  C
  C19      1.0000 0.69080  0.13060  0.05640  Biso   1.000  C
  C20      1.0000 0.30920  0.86940  0.94360  Biso   1.000  C
  F29      1.0000 0.59100  0.09300  0.95440  Biso   1.000  F
  F30      1.0000 0.40900  0.90700  0.04560  Biso   1.000  F
  F31      1.0000 0.73200  0.22900  0.06300  Biso   1.000  F
  F32      1.0000 0.26800  0.77100  0.93700  Biso   1.000  F
  F33      1.0000 0.63000  0.13030  0.12200  Biso   1.000  F
  F34      1.0000 0.37000  0.86970  0.87800  Biso   1.000  F
  F35      1.0000 0.65600  0.13880  0.14300  Biso   1.000  F
  F36      1.0000 0.34400  0.86120  0.85700  Biso   1.000  F
  F37      1.0000 0.58600  0.07920  0.96990  Biso   1.000  F
  F38      1.0000 0.41400  0.92080  0.03010  Biso   1.000  F
  F39      1.0000 0.72100  0.22100  0.04000  Biso   1.000  F
  F40      1.0000 0.27900  0.77900  0.96000  Biso   1.000  F
  O7       1.0000 0.84560  0.06125  0.99909  Biso   1.000  O
  O8       1.0000 0.15440  0.93875  0.00091  Biso   1.000  O
  O9       1.0000 0.41010  0.51851  0.32560  Biso   1.000  O
  O10      1.0000 0.58990  0.48149  0.67440  Biso   1.000  O
  N1       1.0000 0.28330  0.52662  0.27280  Biso   1.000  N
  N2       1.0000 0.71670  0.47338  0.72720  Biso   1.000  N
  C21      1.0000 0.24200  0.62830  0.25440  Biso   1.000  C
  C22      1.0000 0.75800  0.37170  0.74560  Biso   1.000  C
  C23      1.0000 0.31420  0.71110  0.36040  Biso   1.000  C
  C24      1.0000 0.68580  0.28890  0.63960  Biso   1.000  C
  H5       1.0000 0.41060  0.72220  0.38020  Biso   1.000  H
  H6       1.0000 0.58940  0.27780  0.61980  Biso   1.000  H
  H7       1.0000 0.29610  0.68910  0.41940  Biso   1.000  H
  H8       1.0000 0.70390  0.31090  0.58060  Biso   1.000  H
  H9       1.0000 0.28160  0.77440  0.34870  Biso   1.000  H
  H10      1.0000 0.71840  0.22560  0.65130  Biso   1.000  H
  C25      1.0000 0.28410  0.65630  0.16400  Biso   1.000  C
  C26      1.0000 0.71590  0.34370  0.83600  Biso   1.000  C
  H11      1.0000 0.37100  0.65900  0.18800  Biso   1.000  H
  H12      1.0000 0.62900  0.34100  0.81200  Biso   1.000  H
  H13      1.0000 0.26500  0.72900  0.15100  Biso   1.000  H
  H14      1.0000 0.73500  0.27100  0.84900  Biso   1.000  H
  H15      1.0000 0.24500  0.60900  0.10000  Biso   1.000  H
  H16      1.0000 0.75500  0.39100  0.90000  Biso   1.000  H
  C27      1.0000 0.08560  0.59780  0.21430  Biso   1.000  C
  C28      1.0000 0.91440  0.40220  0.78570  Biso   1.000  C
  C29      1.0000 0.03870  0.60600  0.30860  Biso   1.000  C
  C30      1.0000 0.96130  0.39400  0.69140  Biso   1.000  C
  H17      1.0000 0.94100  0.57400  0.27200  Biso   1.000  H
  H18      1.0000 0.05900  0.42600  0.72800  Biso   1.000  H
  H19      1.0000 0.04600  0.67000  0.33900  Biso   1.000  H
  H20      1.0000 0.95400  0.33000  0.66100  Biso   1.000  H
  H21      1.0000 0.09500  0.56900  0.37200  Biso   1.000  H
  H22      1.0000 0.90500  0.43100  0.62800  Biso   1.000  H
  C31      1.0000 0.00150  0.64960  0.12430  Biso   1.000  C
  C32      1.0000 0.99850  0.35040  0.87570  Biso   1.000  C
  H23      1.0000 0.91000  0.62500  0.10300  Biso   1.000  H
  H24      1.0000 0.09000  0.37500  0.89700  Biso   1.000  H
  H25      1.0000 0.01900  0.63300  0.06200  Biso   1.000  H
  H26      1.0000 0.98100  0.36700  0.93800  Biso   1.000  H
  H27      1.0000 0.02700  0.72600  0.15100  Biso   1.000  H
  H28      1.0000 0.97300  0.27400  0.84900  Biso   1.000  H
  N3       1.0000 0.06480  0.48460  0.16820  Biso   1.000  N
  N4       1.0000 0.93520  0.51540  0.83180  Biso   1.000  N
  O11      1.0000 0.94690  0.43071  0.10750  Biso   1.000  O
  O12      1.0000 0.05310  0.56929  0.89250  Biso   1.000  O
  C33      1.0000 0.18110  0.44710  0.21020  Biso   1.000  C
  C34      1.0000 0.81890  0.55290  0.78980  Biso   1.000  C
  C35      1.0000 0.19310  0.34070  0.18910  Biso   1.000  C
  C36      1.0000 0.80690  0.65930  0.81090  Biso   1.000  C
  C37      1.0000 0.09090  0.25510  0.12230  Biso   1.000  C
  C38      1.0000 0.90910  0.74490  0.87770  Biso   1.000  C
  H29      1.0000 0.00300  0.25400  0.08300  Biso   1.000  H
  H30      1.0000 0.99700  0.74600  0.91700  Biso   1.000  H
  N5       1.0000 0.14030  0.16870  0.12030  Biso   1.000  N
  N6       1.0000 0.85970  0.83130  0.87970  Biso   1.000  N
  N7       1.0000 0.27630  0.19835  0.18800  Biso   1.000  N
  N8       1.0000 0.72370  0.80165  0.81200  Biso   1.000  N
  C39      1.0000 0.36580  0.12230  0.21040  Biso   1.000  C
  C40      1.0000 0.63420  0.87770  0.78960  Biso   1.000  C
  H31      1.0000 0.31380  0.05480  0.16670  Biso   1.000  H
  H32      1.0000 0.68620  0.94520  0.83330  Biso   1.000  H
  H33      1.0000 0.43780  0.13960  0.18640  Biso   1.000  H
  H34      1.0000 0.56220  0.86040  0.81360  Biso   1.000  H
  C41      1.0000 0.42650  0.11640  0.32590  Biso   1.000  C
  C42      1.0000 0.57350  0.88360  0.67410  Biso   1.000  C
  H35      1.0000 0.36130  0.12380  0.35880  Biso   1.000  H
  H36      1.0000 0.63870  0.87620  0.64120  Biso   1.000  H
  H37      1.0000 0.50520  0.17140  0.36650  Biso   1.000  H
  H38      1.0000 0.49480  0.82860  0.63350  Biso   1.000  H
  C43      1.0000 0.48020  0.98430  0.33290  Biso   1.000  C
  C44      1.0000 0.51980  0.01570  0.66710  Biso   1.000  C
  H39      1.0000 0.47580  0.95460  0.39370  Biso   1.000  H
  H40      1.0000 0.52420  0.04540  0.60630  Biso   1.000  H
  H41      1.0000 0.44300  0.93420  0.26290  Biso   1.000  H
  H42      1.0000 0.55700  0.06580  0.73710  Biso   1.000  H
  C45      1.0000 0.59150  0.04280  0.35430  Biso   1.000  C
  C46      1.0000 0.40850  0.95720  0.64570  Biso   1.000  C
  H43      1.0000 0.66520  0.00600  0.38030  Biso   1.000  H
  H44      1.0000 0.33480  0.99400  0.61970  Biso   1.000  H
  H45      1.0000 0.60520  0.10240  0.41050  Biso   1.000  H
  H46      1.0000 0.39480  0.89760  0.58950  Biso   1.000  H
  H47      1.0000 0.58840  0.06450  0.28810  Biso   1.000  H
  H48      1.0000 0.41160  0.93550  0.71190  Biso   1.000  H
  C47      1.0000 0.31030  0.29940  0.22920  Biso   1.000  C
  C48      1.0000 0.68970  0.70060  0.77080  Biso   1.000  C
  H49      1.0000 0.39800  0.32800  0.27600  Biso   1.000  H
  H50      1.0000 0.60200  0.67200  0.72400  Biso   1.000  H
  C49      1.0000 0.63700  0.73120  0.12700  Biso   1.000  C
  C50      1.0000 0.36300  0.26880  0.87300  Biso   1.000  C
  C51      1.0000 0.61600  0.67700  0.00700  Biso   1.000  C
  C52      1.0000 0.38400  0.32300  0.99300  Biso   1.000  C
  C53      1.0000 0.54800  0.57030  0.01200  Biso   1.000  C
  C54      1.0000 0.45200  0.42970  0.98800  Biso   1.000  C
  C55      1.0000 0.48700  0.45500  0.99600  Biso   1.000  C
  C56      1.0000 0.51300  0.54500  0.00400  Biso   1.000  C
  C57      1.0000 0.61700  0.61200  0.11800  Biso   1.000  C
  C58      1.0000 0.38300  0.38800  0.88200  Biso   1.000  C
  C59      1.0000 0.56000  0.65550  0.01300  Biso   1.000  C
  C60      1.0000 0.44000  0.34450  0.98700  Biso   1.000  C
  C61      1.0000 0.65900  0.76040  0.04900  Biso   1.000  C
  C62      1.0000 0.34100  0.23960  0.95100  Biso   1.000  C
