data_image0
_cell_length_a       10.782
_cell_length_b       13.282
_cell_length_c       13.332
_cell_angle_alpha    98.78
_cell_angle_beta     113.062
_cell_angle_gamma    96.112

_symmetry_space_group_name_H-M    "P 1"
_symmetry_int_tables_number       1

loop_
  _symmetry_equiv_pos_as_xyz
  'x, y, z'

loop_
  _atom_site_label
  _atom_site_occupancy
  _atom_site_fract_x
  _atom_site_fract_y
  _atom_site_fract_z
  _atom_site_thermal_displace_type
  _atom_site_B_iso_or_equiv
  _atom_site_type_symbol
  Cu1      1.0000 0.50000  0.50000  0.50000  Biso   1.000  Cu
  O1       1.0000 0.36350  0.37538  0.47063  Biso   1.000  O
  O2       1.0000 0.63650  0.62462  0.52937  Biso   1.000  O
  C1       1.0000 0.19990  0.25730  0.48330  Biso   1.000  C
  C2       1.0000 0.80010  0.74270  0.51670  Biso   1.000  C
  F1       1.0000 0.10390  0.24721  0.52070  Biso   1.000  F
  F2       1.0000 0.89610  0.75279  0.47930  Biso   1.000  F
  F3       1.0000 0.14340  0.20960  0.36410  Biso   1.000  F
  F4       1.0000 0.85660  0.79040  0.63590  Biso   1.000  F
  F5       1.0000 0.28070  0.20440  0.53000  Biso   1.000  F
  F6       1.0000 0.71930  0.79560  0.47000  Biso   1.000  F
  F7       1.0000 0.14500  0.22030  0.38980  Biso   1.000  F
  F8       1.0000 0.85500  0.77970  0.61020  Biso   1.000  F
  F9       1.0000 0.29750  0.19510  0.53460  Biso   1.000  F
  F10      1.0000 0.70250  0.80490  0.46540  Biso   1.000  F
  C3       1.0000 0.27290  0.36800  0.50630  Biso   1.000  C
  C4       1.0000 0.72710  0.63200  0.49370  Biso   1.000  C
  C5       1.0000 0.23320  0.44530  0.56080  Biso   1.000  C
  C6       1.0000 0.76680  0.55470  0.43920  Biso   1.000  C
  H1       1.0000 0.17600  0.43100  0.57400  Biso   1.000  H
  H2       1.0000 0.82400  0.56900  0.42600  Biso   1.000  H
  C7       1.0000 0.29170  0.54820  0.58450  Biso   1.000  C
  C8       1.0000 0.70830  0.45180  0.41550  Biso   1.000  C
  C9       1.0000 0.24390  0.62740  0.64910  Biso   1.000  C
  C10      1.0000 0.75610  0.37260  0.35090  Biso   1.000  C
  F11      1.0000 0.21160  0.70180  0.59830  Biso   1.000  F
  F12      1.0000 0.78840  0.29820  0.40170  Biso   1.000  F
  F13      1.0000 0.15740  0.59300  0.68130  Biso   1.000  F
  F14      1.0000 0.84260  0.40700  0.31870  Biso   1.000  F
  F15      1.0000 0.35700  0.67900  0.74360  Biso   1.000  F
  F16      1.0000 0.64300  0.32100  0.25640  Biso   1.000  F
  F17      1.0000 0.29960  0.63380  0.75140  Biso   1.000  F
  F18      1.0000 0.70040  0.36620  0.24860  Biso   1.000  F
  F19      1.0000 0.10560  0.59860  0.61870  Biso   1.000  F
  F20      1.0000 0.89440  0.40140  0.38130  Biso   1.000  F
  F21      1.0000 0.24200  0.71440  0.62040  Biso   1.000  F
  F22      1.0000 0.75800  0.28560  0.37960  Biso   1.000  F
  O3       1.0000 0.38330  0.58686  0.55982  Biso   1.000  O
  O4       1.0000 0.61670  0.41314  0.44018  Biso   1.000  O
  Cu2      1.0000 0.00000  0.00000  0.00000  Biso   1.000  Cu
  O5       1.0000 0.02750  0.95456  0.14039  Biso   1.000  O
  O6       1.0000 0.97250  0.04544  0.85961  Biso   1.000  O
  C11      1.0000 0.02090  0.95100  0.31220  Biso   1.000  C
  C12      1.0000 0.97910  0.04900  0.68780  Biso   1.000  C
  F23      1.0000 0.99410  0.00588  0.38825  Biso   1.000  F
  F24      1.0000 0.00590  0.99412  0.61175  Biso   1.000  F
  F25      1.0000 0.97480  0.85490  0.30060  Biso   1.000  F
  F26      1.0000 0.02520  0.14510  0.69940  Biso   1.000  F
  F27      1.0000 0.15640  0.96040  0.35690  Biso   1.000  F
  F28      1.0000 0.84360  0.03960  0.64310  Biso   1.000  F
  C13      1.0000 0.96900  0.98480  0.20100  Biso   1.000  C
  C14      1.0000 0.03100  0.01520  0.79900  Biso   1.000  C
  C15      1.0000 0.86480  0.04160  0.17720  Biso   1.000  C
  C16      1.0000 0.13520  0.95840  0.82280  Biso   1.000  C
  H3       1.0000 0.83400  0.05400  0.21900  Biso   1.000  H
  H4       1.0000 0.16600  0.94600  0.78100  Biso   1.000  H
  C17      1.0000 0.80830  0.07270  0.07750  Biso   1.000  C
  C18      1.0000 0.19170  0.92730  0.92250  Biso   1.000  C
  C19      1.0000 0.68850  0.13050  0.05400  Biso   1.000  C
  C20      1.0000 0.31150  0.86950  0.94600  Biso   1.000  C
  F29      1.0000 0.58820  0.09560  0.95030  Biso   1.000  F
  F30      1.0000 0.41180  0.90440  0.04970  Biso   1.000  F
  F31      1.0000 0.72970  0.23080  0.05910  Biso   1.000  F
  F32      1.0000 0.27030  0.76920  0.94090  Biso   1.000  F
  F33      1.0000 0.62530  0.13050  0.11860  Biso   1.000  F
  F34      1.0000 0.37470  0.86950  0.88140  Biso   1.000  F
  F35      1.0000 0.65250  0.13690  0.14090  Biso   1.000  F
  F36      1.0000 0.34750  0.86310  0.85910  Biso   1.000  F
  F37      1.0000 0.58330  0.07530  0.96630  Biso   1.000  F
  F38      1.0000 0.41670  0.92470  0.03370  Biso   1.000  F
  F39      1.0000 0.71830  0.22000  0.03870  Biso   1.000  F
  F40      1.0000 0.28170  0.78000  0.96130  Biso   1.000  F
  O7       1.0000 0.84430  0.06112  0.99785  Biso   1.000  O
  O8       1.0000 0.15570  0.93888  0.00215  Biso   1.000  O
  O9       1.0000 0.41200  0.51807  0.32860  Biso   1.000  O
  O10      1.0000 0.58800  0.48193  0.67140  Biso   1.000  O
  N1       1.0000 0.28500  0.52676  0.27550  Biso   1.000  N
  N2       1.0000 0.71500  0.47324  0.72450  Biso   1.000  N
  C21      1.0000 0.24360  0.62860  0.25620  Biso   1.000  C
  C22      1.0000 0.75640  0.37140  0.74380  Biso   1.000  C
  C23      1.0000 0.31660  0.71190  0.36260  Biso   1.000  C
  C24      1.0000 0.68340  0.28810  0.63740  Biso   1.000  C
  H5       1.0000 0.41350  0.72310  0.38240  Biso   1.000  H
  H6       1.0000 0.58650  0.27690  0.61760  Biso   1.000  H
  H7       1.0000 0.29890  0.69000  0.42180  Biso   1.000  H
  H8       1.0000 0.70110  0.31000  0.57820  Biso   1.000  H
  H9       1.0000 0.28340  0.77530  0.35050  Biso   1.000  H
  H10      1.0000 0.71660  0.22470  0.64950  Biso   1.000  H
  C25      1.0000 0.28720  0.65530  0.16630  Biso   1.000  C
  C26      1.0000 0.71280  0.34470  0.83370  Biso   1.000  C
  H11      1.0000 0.37600  0.66100  0.18900  Biso   1.000  H
  H12      1.0000 0.62400  0.33900  0.81100  Biso   1.000  H
  H13      1.0000 0.26800  0.72500  0.14800  Biso   1.000  H
  H14      1.0000 0.73200  0.27500  0.85200  Biso   1.000  H
  H15      1.0000 0.24500  0.60500  0.09700  Biso   1.000  H
  H16      1.0000 0.75500  0.39500  0.90300  Biso   1.000  H
  C27      1.0000 0.08630  0.59900  0.21530  Biso   1.000  C
  C28      1.0000 0.91370  0.40100  0.78470  Biso   1.000  C
  C29      1.0000 0.03930  0.60720  0.30910  Biso   1.000  C
  C30      1.0000 0.96070  0.39280  0.69090  Biso   1.000  C
  H17      1.0000 0.94300  0.57800  0.27400  Biso   1.000  H
  H18      1.0000 0.05700  0.42200  0.72600  Biso   1.000  H
  H19      1.0000 0.04800  0.67100  0.33900  Biso   1.000  H
  H20      1.0000 0.95200  0.32900  0.66100  Biso   1.000  H
  H21      1.0000 0.09500  0.56900  0.37200  Biso   1.000  H
  H22      1.0000 0.90500  0.43100  0.62800  Biso   1.000  H
  C31      1.0000 0.00200  0.65090  0.12460  Biso   1.000  C
  C32      1.0000 0.99800  0.34910  0.87540  Biso   1.000  C
  H23      1.0000 0.90700  0.62500  0.10200  Biso   1.000  H
  H24      1.0000 0.09300  0.37500  0.89800  Biso   1.000  H
  H25      1.0000 0.01900  0.63200  0.05700  Biso   1.000  H
  H26      1.0000 0.98100  0.36800  0.94300  Biso   1.000  H
  H27      1.0000 0.02800  0.72700  0.15300  Biso   1.000  H
  H28      1.0000 0.97200  0.27300  0.84700  Biso   1.000  H
  N3       1.0000 0.06520  0.48520  0.16890  Biso   1.000  N
  N4       1.0000 0.93480  0.51480  0.83110  Biso   1.000  N
  O11      1.0000 0.94680  0.43148  0.10690  Biso   1.000  O
  O12      1.0000 0.05320  0.56852  0.89310  Biso   1.000  O
  C33      1.0000 0.18200  0.44730  0.21200  Biso   1.000  C
  C34      1.0000 0.81800  0.55270  0.78800  Biso   1.000  C
  C35      1.0000 0.19360  0.34070  0.19060  Biso   1.000  C
  C36      1.0000 0.80640  0.65930  0.80940  Biso   1.000  C
  C37      1.0000 0.09030  0.25520  0.12290  Biso   1.000  C
  C38      1.0000 0.90970  0.74480  0.87710  Biso   1.000  C
  H29      1.0000 0.99700  0.25500  0.08100  Biso   1.000  H
  H30      1.0000 0.00300  0.74500  0.91900  Biso   1.000  H
  N5       1.0000 0.14000  0.16874  0.12130  Biso   1.000  N
  N6       1.0000 0.86000  0.83126  0.87870  Biso   1.000  N
  N7       1.0000 0.27660  0.19787  0.18940  Biso   1.000  N
  N8       1.0000 0.72340  0.80213  0.81060  Biso   1.000  N
  C39      1.0000 0.36640  0.12150  0.21250  Biso   1.000  C
  C40      1.0000 0.63360  0.87850  0.78750  Biso   1.000  C
  H31      1.0000 0.31360  0.05360  0.16980  Biso   1.000  H
  H32      1.0000 0.68640  0.94640  0.83020  Biso   1.000  H
  H33      1.0000 0.43800  0.13780  0.18760  Biso   1.000  H
  H34      1.0000 0.56200  0.86220  0.81240  Biso   1.000  H
  C41      1.0000 0.42940  0.11740  0.32970  Biso   1.000  C
  C42      1.0000 0.57060  0.88260  0.67030  Biso   1.000  C
  H35      1.0000 0.36480  0.12570  0.36310  Biso   1.000  H
  H36      1.0000 0.63520  0.87430  0.63690  Biso   1.000  H
  H37      1.0000 0.50900  0.17220  0.36950  Biso   1.000  H
  H38      1.0000 0.49100  0.82780  0.63050  Biso   1.000  H
  C43      1.0000 0.48200  0.98440  0.33590  Biso   1.000  C
  C44      1.0000 0.51800  0.01560  0.66410  Biso   1.000  C
  H39      1.0000 0.48040  0.95560  0.39810  Biso   1.000  H
  H40      1.0000 0.51960  0.04440  0.60190  Biso   1.000  H
  H41      1.0000 0.44100  0.93360  0.26600  Biso   1.000  H
  H42      1.0000 0.55900  0.06640  0.73400  Biso   1.000  H
  C45      1.0000 0.59570  0.04150  0.35420  Biso   1.000  C
  C46      1.0000 0.40430  0.95850  0.64580  Biso   1.000  C
  H43      1.0000 0.66810  0.00210  0.37540  Biso   1.000  H
  H44      1.0000 0.33190  0.99790  0.62460  Biso   1.000  H
  H45      1.0000 0.61560  0.10040  0.41330  Biso   1.000  H
  H46      1.0000 0.38440  0.89960  0.58670  Biso   1.000  H
  H47      1.0000 0.58840  0.06460  0.28770  Biso   1.000  H
  H48      1.0000 0.41160  0.93540  0.71230  Biso   1.000  H
  C47      1.0000 0.31130  0.29940  0.23080  Biso   1.000  C
  C48      1.0000 0.68870  0.70060  0.76920  Biso   1.000  C
  H49      1.0000 0.39900  0.32600  0.28000  Biso   1.000  H
  H50      1.0000 0.60100  0.67400  0.72000  Biso   1.000  H
  C49      1.0000 0.64240  0.73260  0.14260  Biso   1.000  C
  C50      1.0000 0.35760  0.26740  0.85740  Biso   1.000  C
  C51      1.0000 0.64010  0.72820  0.02450  Biso   1.000  C
  C52      1.0000 0.35990  0.27180  0.97550  Biso   1.000  C
  C53      1.0000 0.57800  0.60480  0.99700  Biso   1.000  C
  C54      1.0000 0.42200  0.39520  0.00300  Biso   1.000  C
  C55      1.0000 0.47400  0.51180  0.97060  Biso   1.000  C
  C56      1.0000 0.52600  0.48820  0.02940  Biso   1.000  C
  C57      1.0000 0.59000  0.60080  0.08500  Biso   1.000  C
  C58      1.0000 0.41000  0.39920  0.91500  Biso   1.000  C
  C59      1.0000 0.56000  0.66700  0.00100  Biso   1.000  C
  C60      1.0000 0.44000  0.33300  0.99900  Biso   1.000  C
  C61      1.0000 0.32800  0.23690  0.93300  Biso   1.000  C
  C62      1.0000 0.67200  0.76310  0.06700  Biso   1.000  C
