data_image0
_cell_length_a       10.858
_cell_length_b       13.071
_cell_length_c       13.421
_cell_angle_alpha    98.01
_cell_angle_beta     114.7
_cell_angle_gamma    95.4

_symmetry_space_group_name_H-M    "P 1"
_symmetry_int_tables_number       1

loop_
  _symmetry_equiv_pos_as_xyz
  'x, y, z'

loop_
  _atom_site_label
  _atom_site_occupancy
  _atom_site_fract_x
  _atom_site_fract_y
  _atom_site_fract_z
  _atom_site_thermal_displace_type
  _atom_site_B_iso_or_equiv
  _atom_site_type_symbol
  Cu1      1.0000 0.50000  0.50000  0.50000  Biso   1.000  Cu
  O1       1.0000 0.35640  0.38096  0.46818  Biso   1.000  O
  O2       1.0000 0.64360  0.61904  0.53182  Biso   1.000  O
  C1       1.0000 0.20630  0.25740  0.48830  Biso   1.000  C
  C2       1.0000 0.79370  0.74260  0.51170  Biso   1.000  C
  F1       1.0000 0.11380  0.24418  0.52818  Biso   1.000  F
  F2       1.0000 0.88620  0.75582  0.47182  Biso   1.000  F
  F3       1.0000 0.14610  0.20780  0.37040  Biso   1.000  F
  F4       1.0000 0.85390  0.79220  0.62960  Biso   1.000  F
  F5       1.0000 0.29100  0.20810  0.53030  Biso   1.000  F
  F6       1.0000 0.70900  0.79190  0.46970  Biso   1.000  F
  F7       1.0000 0.14100  0.22530  0.39030  Biso   1.000  F
  F8       1.0000 0.85900  0.77470  0.60970  Biso   1.000  F
  F9       1.0000 0.30970  0.19030  0.54070  Biso   1.000  F
  F10      1.0000 0.69030  0.80970  0.45930  Biso   1.000  F
  C3       1.0000 0.27250  0.37100  0.50950  Biso   1.000  C
  C4       1.0000 0.72750  0.62900  0.49050  Biso   1.000  C
  C5       1.0000 0.23560  0.44640  0.56830  Biso   1.000  C
  C6       1.0000 0.76440  0.55360  0.43170  Biso   1.000  C
  H1       1.0000 0.17300  0.42600  0.59200  Biso   1.000  H
  H2       1.0000 0.82700  0.57400  0.40800  Biso   1.000  H
  C7       1.0000 0.28890  0.55250  0.59130  Biso   1.000  C
  C8       1.0000 0.71110  0.44750  0.40870  Biso   1.000  C
  C9       1.0000 0.24030  0.62850  0.65910  Biso   1.000  C
  C10      1.0000 0.75970  0.37150  0.34090  Biso   1.000  C
  F11      1.0000 0.15400  0.67850  0.60020  Biso   1.000  F
  F12      1.0000 0.84600  0.32150  0.39980  Biso   1.000  F
  F13      1.0000 0.20030  0.58830  0.72420  Biso   1.000  F
  F14      1.0000 0.79970  0.41170  0.27580  Biso   1.000  F
  F15      1.0000 0.34750  0.70280  0.73330  Biso   1.000  F
  F16      1.0000 0.65250  0.29720  0.26670  Biso   1.000  F
  F17      1.0000 0.31230  0.63860  0.75890  Biso   1.000  F
  F18      1.0000 0.68770  0.36140  0.24110  Biso   1.000  F
  F19      1.0000 0.11090  0.59610  0.63760  Biso   1.000  F
  F20      1.0000 0.88910  0.40390  0.36240  Biso   1.000  F
  F21      1.0000 0.22670  0.71300  0.62760  Biso   1.000  F
  F22      1.0000 0.77330  0.28700  0.37240  Biso   1.000  F
  O3       1.0000 0.37117  0.59508  0.56168  Biso   1.000  O
  O4       1.0000 0.62883  0.40492  0.43832  Biso   1.000  O
  Cu2      1.0000 0.00000  0.00000  0.00000  Biso   1.000  Cu
  O5       1.0000 0.02741  0.95349  0.14102  Biso   1.000  O
  O6       1.0000 0.97259  0.04651  0.85898  Biso   1.000  O
  C11      1.0000 0.02480  0.95330  0.31370  Biso   1.000  C
  C12      1.0000 0.97520  0.04670  0.68630  Biso   1.000  C
  F23      1.0000 0.99730  0.01078  0.38780  Biso   1.000  F
  F24      1.0000 0.00270  0.98922  0.61220  Biso   1.000  F
  F25      1.0000 0.97220  0.85588  0.30323  Biso   1.000  F
  F26      1.0000 0.02780  0.14412  0.69677  Biso   1.000  F
  F27      1.0000 0.15990  0.95990  0.35889  Biso   1.000  F
  F28      1.0000 0.84010  0.04010  0.64111  Biso   1.000  F
  C13      1.0000 0.97080  0.98630  0.20030  Biso   1.000  C
  C14      1.0000 0.02920  0.01370  0.79970  Biso   1.000  C
  C15      1.0000 0.86460  0.04460  0.17310  Biso   1.000  C
  C16      1.0000 0.13540  0.95540  0.82690  Biso   1.000  C
  H3       1.0000 0.83400  0.05800  0.22000  Biso   1.000  H
  H4       1.0000 0.16600  0.94200  0.78000  Biso   1.000  H
  C17      1.0000 0.80730  0.07550  0.07110  Biso   1.000  C
  C18      1.0000 0.19270  0.92450  0.92890  Biso   1.000  C
  C19      1.0000 0.68600  0.13470  0.04440  Biso   1.000  C
  C20      1.0000 0.31400  0.86530  0.95560  Biso   1.000  C
  F29      1.0000 0.59720  0.11080  0.93530  Biso   1.000  F
  F30      1.0000 0.40280  0.88920  0.06470  Biso   1.000  F
  F31      1.0000 0.72570  0.23660  0.05990  Biso   1.000  F
  F32      1.0000 0.27430  0.76340  0.94010  Biso   1.000  F
  F33      1.0000 0.61310  0.12280  0.09890  Biso   1.000  F
  F34      1.0000 0.38690  0.87720  0.90110  Biso   1.000  F
  F35      1.0000 0.64330  0.13400  0.12590  Biso   1.000  F
  F36      1.0000 0.35670  0.86600  0.87410  Biso   1.000  F
  F37      1.0000 0.58330  0.08620  0.94980  Biso   1.000  F
  F38      1.0000 0.41670  0.91380  0.05020  Biso   1.000  F
  F39      1.0000 0.72160  0.23020  0.04160  Biso   1.000  F
  F40      1.0000 0.27840  0.76980  0.95840  Biso   1.000  F
  O7       1.0000 0.84450  0.06441  0.99379  Biso   1.000  O
  O8       1.0000 0.15550  0.93559  0.00621  Biso   1.000  O
  O9       1.0000 0.42032  0.51625  0.33964  Biso   1.000  O
  O10      1.0000 0.57968  0.48375  0.66036  Biso   1.000  O
  N1       1.0000 0.29160  0.52678  0.28394  Biso   1.000  N
  N2       1.0000 0.70840  0.47322  0.71606  Biso   1.000  N
  C21      1.0000 0.25210  0.63070  0.26190  Biso   1.000  C
  C22      1.0000 0.74790  0.36930  0.73810  Biso   1.000  C
  C23      1.0000 0.32440  0.71590  0.36640  Biso   1.000  C
  C24      1.0000 0.67560  0.28410  0.63360  Biso   1.000  C
  H5       1.0000 0.42130  0.72780  0.38710  Biso   1.000  H
  H6       1.0000 0.57870  0.27220  0.61290  Biso   1.000  H
  H7       1.0000 0.30890  0.69440  0.42630  Biso   1.000  H
  H8       1.0000 0.69110  0.30560  0.57370  Biso   1.000  H
  H9       1.0000 0.28860  0.77950  0.35190  Biso   1.000  H
  H10      1.0000 0.71140  0.22050  0.64810  Biso   1.000  H
  C25      1.0000 0.29440  0.65530  0.17180  Biso   1.000  C
  C26      1.0000 0.70560  0.34470  0.82820  Biso   1.000  C
  H11      1.0000 0.38700  0.65800  0.20000  Biso   1.000  H
  H12      1.0000 0.61300  0.34200  0.80000  Biso   1.000  H
  H13      1.0000 0.27200  0.72300  0.15200  Biso   1.000  H
  H14      1.0000 0.72800  0.27700  0.84800  Biso   1.000  H
  H15      1.0000 0.25000  0.60400  0.10400  Biso   1.000  H
  H16      1.0000 0.75000  0.39600  0.89600  Biso   1.000  H
  C27      1.0000 0.09390  0.60290  0.21830  Biso   1.000  C
  C28      1.0000 0.90610  0.39710  0.78170  Biso   1.000  C
  C29      1.0000 0.04750  0.61040  0.31120  Biso   1.000  C
  C30      1.0000 0.95250  0.38960  0.68880  Biso   1.000  C
  H17      1.0000 0.95200  0.58200  0.27700  Biso   1.000  H
  H18      1.0000 0.04800  0.41800  0.72300  Biso   1.000  H
  H19      1.0000 0.05400  0.67500  0.33900  Biso   1.000  H
  H20      1.0000 0.94600  0.32500  0.66100  Biso   1.000  H
  H21      1.0000 0.10200  0.57000  0.37200  Biso   1.000  H
  H22      1.0000 0.89800  0.43000  0.62800  Biso   1.000  H
  C31      1.0000 0.00990  0.65760  0.12700  Biso   1.000  C
  C32      1.0000 0.99010  0.34240  0.87300  Biso   1.000  C
  H23      1.0000 0.91700  0.63300  0.10500  Biso   1.000  H
  H24      1.0000 0.08300  0.36700  0.89500  Biso   1.000  H
  H25      1.0000 0.02600  0.64200  0.06300  Biso   1.000  H
  H26      1.0000 0.97400  0.35800  0.93700  Biso   1.000  H
  H27      1.0000 0.03500  0.73700  0.15300  Biso   1.000  H
  H28      1.0000 0.96500  0.26300  0.84700  Biso   1.000  H
  N3       1.0000 0.07210  0.48797  0.17195  Biso   1.000  N
  N4       1.0000 0.92790  0.51203  0.82805  Biso   1.000  N
  O11      1.0000 0.95416  0.43592  0.10643  Biso   1.000  O
  O12      1.0000 0.04584  0.56408  0.89357  Biso   1.000  O
  C33      1.0000 0.18950  0.44730  0.21880  Biso   1.000  C
  C34      1.0000 0.81050  0.55270  0.78120  Biso   1.000  C
  C35      1.0000 0.20040  0.33950  0.19710  Biso   1.000  C
  C36      1.0000 0.79960  0.66050  0.80290  Biso   1.000  C
  C37      1.0000 0.09570  0.25460  0.12620  Biso   1.000  C
  C38      1.0000 0.90430  0.74540  0.87380  Biso   1.000  C
  H29      1.0000 0.00800  0.25700  0.08500  Biso   1.000  H
  H30      1.0000 0.99200  0.74300  0.91500  Biso   1.000  H
  N5       1.0000 0.14460  0.16619  0.12496  Biso   1.000  N
  N6       1.0000 0.85540  0.83381  0.87504  Biso   1.000  N
  N7       1.0000 0.28190  0.19276  0.19613  Biso   1.000  N
  N8       1.0000 0.71810  0.80724  0.80387  Biso   1.000  N
  C39      1.0000 0.37050  0.11300  0.22020  Biso   1.000  C
  C40      1.0000 0.62950  0.88700  0.77980  Biso   1.000  C
  H31      1.0000 0.43870  0.12600  0.19240  Biso   1.000  H
  H32      1.0000 0.56130  0.87400  0.80760  Biso   1.000  H
  H33      1.0000 0.31520  0.04480  0.18030  Biso   1.000  H
  H34      1.0000 0.68480  0.95520  0.81970  Biso   1.000  H
  C41      1.0000 0.44320  0.11090  0.34290  Biso   1.000  C
  C42      1.0000 0.55680  0.88910  0.65710  Biso   1.000  C
  H35      1.0000 0.37570  0.10500  0.37250  Biso   1.000  H
  H36      1.0000 0.62430  0.89500  0.62750  Biso   1.000  H
  H37      1.0000 0.50570  0.17660  0.38180  Biso   1.000  H
  H38      1.0000 0.49430  0.82340  0.61820  Biso   1.000  H
  C43      1.0000 0.52410  0.02050  0.36680  Biso   1.000  C
  C44      1.0000 0.47590  0.97950  0.63320  Biso   1.000  C
  H39      1.0000 0.55470  0.01700  0.44500  Biso   1.000  H
  H40      1.0000 0.44530  0.98300  0.55500  Biso   1.000  H
  H41      1.0000 0.46250  0.95550  0.32280  Biso   1.000  H
  H42      1.0000 0.53750  0.04450  0.67720  Biso   1.000  H
  C45      1.0000 0.64270  0.02760  0.34310  Biso   1.000  C
  C46      1.0000 0.35730  0.97240  0.65690  Biso   1.000  C
  H43      1.0000 0.68940  0.96960  0.36380  Biso   1.000  H
  H44      1.0000 0.31060  0.03040  0.63620  Biso   1.000  H
  H45      1.0000 0.70400  0.09210  0.38510  Biso   1.000  H
  H46      1.0000 0.29600  0.90790  0.61490  Biso   1.000  H
  H47      1.0000 0.61320  0.02560  0.26460  Biso   1.000  H
  H48      1.0000 0.38680  0.97440  0.73540  Biso   1.000  H
  C47      1.0000 0.31800  0.29480  0.23950  Biso   1.000  C
  C48      1.0000 0.68200  0.70520  0.76050  Biso   1.000  C
  H49      1.0000 0.40800  0.31800  0.29000  Biso   1.000  H
  H50      1.0000 0.59200  0.68200  0.71000  Biso   1.000  H
  C49      1.0000 0.64890  0.72470  0.13230  Biso   1.000  C
  C50      1.0000 0.35110  0.27530  0.86770  Biso   1.000  C
  C51      1.0000 0.65230  0.72620  0.02130  Biso   1.000  C
  C52      1.0000 0.34770  0.27380  0.97870  Biso   1.000  C
  C53      1.0000 0.60970  0.60440  0.98740  Biso   1.000  C
  C54      1.0000 0.39030  0.39560  0.01260  Biso   1.000  C
  C55      1.0000 0.49460  0.53510  0.99220  Biso   1.000  C
  C56      1.0000 0.50540  0.46490  0.00780  Biso   1.000  C
  C57      1.0000 0.56800  0.58380  0.06210  Biso   1.000  C
  C58      1.0000 0.43200  0.41620  0.93790  Biso   1.000  C
  C59      1.0000 0.41900  0.33250  0.99400  Biso   1.000  C
  C60      1.0000 0.58100  0.66750  0.00600  Biso   1.000  C
  C61      1.0000 0.32760  0.23120  0.94550  Biso   1.000  C
  C62      1.0000 0.67240  0.76880  0.05450  Biso   1.000  C
