data_image0
_cell_length_a       10.958
_cell_length_b       13.378
_cell_length_c       13.42
_cell_angle_alpha    98.345
_cell_angle_beta     112.438
_cell_angle_gamma    96.676

_symmetry_space_group_name_H-M    "P 1"
_symmetry_int_tables_number       1

loop_
  _symmetry_equiv_pos_as_xyz
  'x, y, z'

loop_
  _atom_site_label
  _atom_site_occupancy
  _atom_site_fract_x
  _atom_site_fract_y
  _atom_site_fract_z
  _atom_site_thermal_displace_type
  _atom_site_B_iso_or_equiv
  _atom_site_type_symbol
  Cu1      1.0000 0.50000  0.50000  0.50000  Biso   1.000  Cu
  O1       1.0000 0.37240  0.37272  0.47308  Biso   1.000  O
  O2       1.0000 0.62760  0.62728  0.52692  Biso   1.000  O
  C1       1.0000 0.20640  0.25600  0.48220  Biso   1.000  C
  C2       1.0000 0.79360  0.74400  0.51780  Biso   1.000  C
  F1       1.0000 0.11630  0.24410  0.52110  Biso   1.000  F
  F2       1.0000 0.88370  0.75590  0.47890  Biso   1.000  F
  F3       1.0000 0.15460  0.20780  0.36960  Biso   1.000  F
  F4       1.0000 0.84540  0.79220  0.63040  Biso   1.000  F
  F5       1.0000 0.27060  0.20540  0.52740  Biso   1.000  F
  F6       1.0000 0.72940  0.79460  0.47260  Biso   1.000  F
  F7       1.0000 0.15490  0.22290  0.39790  Biso   1.000  F
  F8       1.0000 0.84510  0.77710  0.60210  Biso   1.000  F
  F9       1.0000 0.30310  0.19100  0.53100  Biso   1.000  F
  F10      1.0000 0.69690  0.80900  0.46900  Biso   1.000  F
  C3       1.0000 0.28060  0.36480  0.50630  Biso   1.000  C
  C4       1.0000 0.71940  0.63520  0.49370  Biso   1.000  C
  C5       1.0000 0.24060  0.44220  0.55880  Biso   1.000  C
  C6       1.0000 0.75940  0.55780  0.44120  Biso   1.000  C
  H1       1.0000 0.18600  0.42500  0.58500  Biso   1.000  H
  H2       1.0000 0.81400  0.57500  0.41500  Biso   1.000  H
  C7       1.0000 0.30010  0.54340  0.58250  Biso   1.000  C
  C8       1.0000 0.69990  0.45660  0.41750  Biso   1.000  C
  C9       1.0000 0.25130  0.62310  0.64400  Biso   1.000  C
  C10      1.0000 0.74870  0.37690  0.35600  Biso   1.000  C
  F11      1.0000 0.21960  0.69610  0.59260  Biso   1.000  F
  F12      1.0000 0.78040  0.30390  0.40740  Biso   1.000  F
  F13      1.0000 0.17000  0.58980  0.68260  Biso   1.000  F
  F14      1.0000 0.83000  0.41020  0.31740  Biso   1.000  F
  F15      1.0000 0.36130  0.67740  0.73750  Biso   1.000  F
  F16      1.0000 0.63870  0.32260  0.26250  Biso   1.000  F
  F17      1.0000 0.29710  0.62570  0.74220  Biso   1.000  F
  F18      1.0000 0.70290  0.37430  0.25780  Biso   1.000  F
  F19      1.0000 0.11510  0.59660  0.60860  Biso   1.000  F
  F20      1.0000 0.88490  0.40340  0.39140  Biso   1.000  F
  F21      1.0000 0.26010  0.70960  0.61970  Biso   1.000  F
  F22      1.0000 0.73990  0.29040  0.38030  Biso   1.000  F
  O3       1.0000 0.39310  0.58135  0.55933  Biso   1.000  O
  O4       1.0000 0.60690  0.41865  0.44067  Biso   1.000  O
  Cu2      1.0000 0.00000  0.00000  0.00000  Biso   1.000  Cu
  O5       1.0000 0.02710  0.95406  0.13840  Biso   1.000  O
  O6       1.0000 0.97290  0.04594  0.86160  Biso   1.000  O
  C11      1.0000 0.02000  0.94700  0.30840  Biso   1.000  C
  C12      1.0000 0.98000  0.05300  0.69160  Biso   1.000  C
  F23      1.0000 0.99930  0.00170  0.38570  Biso   1.000  F
  F24      1.0000 0.00070  0.99830  0.61430  Biso   1.000  F
  F25      1.0000 0.97240  0.85214  0.29620  Biso   1.000  F
  F26      1.0000 0.02760  0.14786  0.70380  Biso   1.000  F
  F27      1.0000 0.14930  0.95100  0.34930  Biso   1.000  F
  F28      1.0000 0.85070  0.04900  0.65070  Biso   1.000  F
  C13      1.0000 0.97110  0.98280  0.20030  Biso   1.000  C
  C14      1.0000 0.02890  0.01720  0.79970  Biso   1.000  C
  C15      1.0000 0.87090  0.04070  0.17920  Biso   1.000  C
  C16      1.0000 0.12910  0.95930  0.82080  Biso   1.000  C
  H3       1.0000 0.84400  0.04900  0.22600  Biso   1.000  H
  H4       1.0000 0.15600  0.95100  0.77400  Biso   1.000  H
  C17      1.0000 0.81700  0.07370  0.08240  Biso   1.000  C
  C18      1.0000 0.18300  0.92630  0.91760  Biso   1.000  C
  C19      1.0000 0.70250  0.13330  0.06380  Biso   1.000  C
  C20      1.0000 0.29750  0.86670  0.93620  Biso   1.000  C
  F29      1.0000 0.60970  0.10860  0.95980  Biso   1.000  F
  F30      1.0000 0.39030  0.89140  0.04020  Biso   1.000  F
  F31      1.0000 0.74240  0.23030  0.07690  Biso   1.000  F
  F32      1.0000 0.25760  0.76970  0.92310  Biso   1.000  F
  F33      1.0000 0.63880  0.12810  0.12490  Biso   1.000  F
  F34      1.0000 0.36120  0.87190  0.87510  Biso   1.000  F
  F35      1.0000 0.68170  0.15170  0.15460  Biso   1.000  F
  F36      1.0000 0.31830  0.84830  0.84540  Biso   1.000  F
  F37      1.0000 0.59380  0.07420  0.99120  Biso   1.000  F
  F38      1.0000 0.40620  0.92580  0.00880  Biso   1.000  F
  F39      1.0000 0.72560  0.21430  0.03310  Biso   1.000  F
  F40      1.0000 0.27440  0.78570  0.96690  Biso   1.000  F
  O7       1.0000 0.85070  0.06238  0.00302  Biso   1.000  O
  O8       1.0000 0.14930  0.93762  0.99698  Biso   1.000  O
  O9       1.0000 0.40510  0.51826  0.32049  Biso   1.000  O
  O10      1.0000 0.59490  0.48174  0.67951  Biso   1.000  O
  N1       1.0000 0.28090  0.52507  0.26890  Biso   1.000  N
  N2       1.0000 0.71910  0.47493  0.73110  Biso   1.000  N
  C21      1.0000 0.23930  0.62640  0.25180  Biso   1.000  C
  C22      1.0000 0.76070  0.37360  0.74820  Biso   1.000  C
  C23      1.0000 0.31070  0.70730  0.35720  Biso   1.000  C
  C24      1.0000 0.68930  0.29270  0.64280  Biso   1.000  C
  H5       1.0000 0.40580  0.71820  0.37660  Biso   1.000  H
  H6       1.0000 0.59420  0.28180  0.62340  Biso   1.000  H
  H7       1.0000 0.29220  0.68440  0.41550  Biso   1.000  H
  H8       1.0000 0.70780  0.31560  0.58450  Biso   1.000  H
  H9       1.0000 0.27920  0.77060  0.34630  Biso   1.000  H
  H10      1.0000 0.72080  0.22940  0.65370  Biso   1.000  H
  C25      1.0000 0.27940  0.65520  0.16210  Biso   1.000  C
  C26      1.0000 0.72060  0.34480  0.83790  Biso   1.000  C
  H11      1.0000 0.36600  0.65800  0.18800  Biso   1.000  H
  H12      1.0000 0.63400  0.34200  0.81200  Biso   1.000  H
  H13      1.0000 0.26500  0.72300  0.15400  Biso   1.000  H
  H14      1.0000 0.73500  0.27700  0.84600  Biso   1.000  H
  H15      1.0000 0.24500  0.61100  0.09900  Biso   1.000  H
  H16      1.0000 0.75500  0.38900  0.90100  Biso   1.000  H
  C27      1.0000 0.08610  0.59480  0.21400  Biso   1.000  C
  C28      1.0000 0.91390  0.40520  0.78600  Biso   1.000  C
  C29      1.0000 0.04000  0.60120  0.30750  Biso   1.000  C
  C30      1.0000 0.96000  0.39880  0.69250  Biso   1.000  C
  H17      1.0000 0.94000  0.57400  0.27800  Biso   1.000  H
  H18      1.0000 0.06000  0.42600  0.72200  Biso   1.000  H
  H19      1.0000 0.04200  0.66300  0.33600  Biso   1.000  H
  H20      1.0000 0.95800  0.33700  0.66400  Biso   1.000  H
  H21      1.0000 0.09500  0.56100  0.36700  Biso   1.000  H
  H22      1.0000 0.90500  0.43900  0.63300  Biso   1.000  H
  C31      1.0000 0.00140  0.64530  0.12500  Biso   1.000  C
  C32      1.0000 0.99860  0.35470  0.87500  Biso   1.000  C
  H23      1.0000 0.91100  0.61700  0.10400  Biso   1.000  H
  H24      1.0000 0.08900  0.38300  0.89600  Biso   1.000  H
  H25      1.0000 0.01800  0.63400  0.06300  Biso   1.000  H
  H26      1.0000 0.98200  0.36600  0.93700  Biso   1.000  H
  H27      1.0000 0.03000  0.72200  0.15100  Biso   1.000  H
  H28      1.0000 0.97000  0.27800  0.84900  Biso   1.000  H
  N3       1.0000 0.06610  0.48198  0.16730  Biso   1.000  N
  N4       1.0000 0.93390  0.51802  0.83270  Biso   1.000  N
  O11      1.0000 0.95040  0.42798  0.10930  Biso   1.000  O
  O12      1.0000 0.04960  0.57202  0.89070  Biso   1.000  O
  C33      1.0000 0.18130  0.44600  0.20850  Biso   1.000  C
  C34      1.0000 0.81870  0.55400  0.79150  Biso   1.000  C
  C35      1.0000 0.19310  0.33990  0.18640  Biso   1.000  C
  C36      1.0000 0.80690  0.66010  0.81360  Biso   1.000  C
  C37      1.0000 0.09380  0.25510  0.12060  Biso   1.000  C
  C38      1.0000 0.90620  0.74490  0.87940  Biso   1.000  C
  H29      1.0000 0.00800  0.25200  0.08900  Biso   1.000  H
  H30      1.0000 0.99200  0.74800  0.91100  Biso   1.000  H
  N5       1.0000 0.14260  0.16945  0.11710  Biso   1.000  N
  N6       1.0000 0.85740  0.83055  0.88290  Biso   1.000  N
  N7       1.0000 0.27530  0.19918  0.18280  Biso   1.000  N
  N8       1.0000 0.72470  0.80082  0.81720  Biso   1.000  N
  C39      1.0000 0.36450  0.12380  0.20280  Biso   1.000  C
  C40      1.0000 0.63550  0.87620  0.79720  Biso   1.000  C
  H31      1.0000 0.42700  0.14900  0.18100  Biso   1.000  H
  H32      1.0000 0.57300  0.85100  0.81900  Biso   1.000  H
  H33      1.0000 0.31800  0.06700  0.16000  Biso   1.000  H
  H34      1.0000 0.68200  0.93300  0.84000  Biso   1.000  H
  C41      1.0000 0.42710  0.11530  0.31590  Biso   1.000  C
  C42      1.0000 0.57290  0.88470  0.68410  Biso   1.000  C
  H35      1.0000 0.35500  0.05800  0.27700  Biso   1.000  H
  H36      1.0000 0.64500  0.94200  0.72300  Biso   1.000  H
  H37      1.0000 0.44000  0.16200  0.36100  Biso   1.000  H
  H38      1.0000 0.56000  0.83800  0.63900  Biso   1.000  H
  C43      1.0000 0.51280  0.03770  0.32810  Biso   1.000  C
  C44      1.0000 0.48720  0.96230  0.67190  Biso   1.000  C
  H39      1.0000 0.46700  0.96600  0.30000  Biso   1.000  H
  H40      1.0000 0.53300  0.03400  0.70000  Biso   1.000  H
  H41      1.0000 0.48600  0.93600  0.36600  Biso   1.000  H
  H42      1.0000 0.51400  0.06400  0.63400  Biso   1.000  H
  C45      1.0000 0.61140  0.04090  0.36810  Biso   1.000  C
  C46      1.0000 0.38860  0.95910  0.63190  Biso   1.000  C
  H43      1.0000 0.90600  0.91900  0.32800  Biso   1.000  H
  H44      1.0000 0.09400  0.08100  0.67200  Biso   1.000  H
  H45      1.0000 0.06900  0.24400  0.40100  Biso   1.000  H
  H46      1.0000 0.93100  0.75600  0.59900  Biso   1.000  H
  H47      1.0000 0.48000  0.92000  0.27000  Biso   1.000  H
  H48      1.0000 0.52000  0.08000  0.73000  Biso   1.000  H
  C47      1.0000 0.30800  0.29950  0.22450  Biso   1.000  C
  C48      1.0000 0.69200  0.70050  0.77550  Biso   1.000  C
  H49      1.0000 0.39200  0.32900  0.26700  Biso   1.000  H
  H50      1.0000 0.60800  0.67100  0.73300  Biso   1.000  H
  C49      1.0000 0.64600  0.74950  0.13320  Biso   1.000  C
  C50      1.0000 0.35400  0.25050  0.86680  Biso   1.000  C
  C51      1.0000 0.60800  0.69600  0.01460  Biso   1.000  C
  C52      1.0000 0.39200  0.30400  0.98540  Biso   1.000  C
  C53      1.0000 0.54400  0.58930  0.02100  Biso   1.000  C
  C54      1.0000 0.45600  0.41070  0.97900  Biso   1.000  C
  C55      1.0000 0.49900  0.49000  0.05400  Biso   1.000  C
  C56      1.0000 0.50100  0.51000  0.94600  Biso   1.000  C
  C57      1.0000 0.56600  0.55200  0.07100  Biso   1.000  C
  C58      1.0000 0.43400  0.44800  0.92900  Biso   1.000  C
  C59      1.0000 0.60200  0.66980  0.09000  Biso   1.000  C
  C60      1.0000 0.39800  0.33020  0.91000  Biso   1.000  C
  C61      1.0000 0.66060  0.76110  0.05600  Biso   1.000  C
  C62      1.0000 0.33940  0.23890  0.94400  Biso   1.000  C
