data_image0
_cell_length_a       11.17
_cell_length_b       10.853
_cell_length_c       18.57
_cell_angle_alpha    90
_cell_angle_beta     103.74
_cell_angle_gamma    90

_symmetry_space_group_name_H-M    "P 1"
_symmetry_int_tables_number       1

loop_
  _symmetry_equiv_pos_as_xyz
  'x, y, z'

loop_
  _atom_site_label
  _atom_site_occupancy
  _atom_site_fract_x
  _atom_site_fract_y
  _atom_site_fract_z
  _atom_site_thermal_displace_type
  _atom_site_B_iso_or_equiv
  _atom_site_type_symbol
  Cu1      1.0000 0.12339  0.04249  0.08104  Biso   1.000  Cu
  Cu2      1.0000 0.87661  0.54249  0.91896  Biso   1.000  Cu
  N1       1.0000 0.18680  0.19550  0.14250  Biso   1.000  N
  N2       1.0000 0.81320  0.69550  0.85750  Biso   1.000  N
  N3       1.0000 0.94770  0.99280  0.08210  Biso   1.000  N
  N4       1.0000 0.05230  0.49280  0.91790  Biso   1.000  N
  N5       1.0000 0.29470  0.03330  0.07700  Biso   1.000  N
  N6       1.0000 0.70530  0.53330  0.92300  Biso   1.000  N
  N7       1.0000 0.11650  0.88820  0.02940  Biso   1.000  N
  N8       1.0000 0.88350  0.38820  0.97060  Biso   1.000  N
  C1       1.0000 0.30380  0.22140  0.14040  Biso   1.000  C
  C2       1.0000 0.69620  0.72140  0.85960  Biso   1.000  C
  C3       1.0000 0.36100  0.32610  0.16880  Biso   1.000  C
  C4       1.0000 0.63900  0.82610  0.83120  Biso   1.000  C
  C5       1.0000 0.29950  0.41220  0.20290  Biso   1.000  C
  C6       1.0000 0.70050  0.91220  0.79710  Biso   1.000  C
  C7       1.0000 0.18040  0.38590  0.20790  Biso   1.000  C
  C8       1.0000 0.81960  0.88590  0.79210  Biso   1.000  C
  C9       1.0000 0.12630  0.27810  0.17630  Biso   1.000  C
  C10      1.0000 0.87370  0.77810  0.82370  Biso   1.000  C
  C11      1.0000 0.36990  0.12430  0.10440  Biso   1.000  C
  C12      1.0000 0.63010  0.62430  0.89560  Biso   1.000  C
  O1       1.0000 0.48080  0.13510  0.10630  Biso   1.000  O
  O2       1.0000 0.51920  0.63510  0.89370  Biso   1.000  O
  C13      1.0000 0.33450  0.92090  0.04810  Biso   1.000  C
  C14      1.0000 0.66550  0.42090  0.95190  Biso   1.000  C
  C15      1.0000 0.22110  0.85980  0.99840  Biso   1.000  C
  C16      1.0000 0.77890  0.35980  0.00160  Biso   1.000  C
  C17      1.0000 0.40130  0.83150  0.10990  Biso   1.000  C
  C18      1.0000 0.59870  0.33150  0.89010  Biso   1.000  C
  C19      1.0000 0.45570  0.72600  0.08950  Biso   1.000  C
  C20      1.0000 0.54430  0.22600  0.91050  Biso   1.000  C
  C21      1.0000 0.51820  0.64610  0.14300  Biso   1.000  C
  C22      1.0000 0.48180  0.14610  0.85700  Biso   1.000  C
  C23      1.0000 0.52520  0.66650  0.21650  Biso   1.000  C
  C24      1.0000 0.47480  0.16650  0.78350  Biso   1.000  C
  C25      1.0000 0.46880  0.76920  0.23860  Biso   1.000  C
  C26      1.0000 0.53120  0.26920  0.76140  Biso   1.000  C
  C27      1.0000 0.40540  0.84990  0.18450  Biso   1.000  C
  C28      1.0000 0.59460  0.34990  0.81550  Biso   1.000  C
  C29      1.0000 0.20350  0.90610  0.92000  Biso   1.000  C
  C30      1.0000 0.79650  0.40610  0.08000  Biso   1.000  C
  C31      1.0000 0.11850  0.99730  0.89030  Biso   1.000  C
  C32      1.0000 0.88150  0.49730  0.10970  Biso   1.000  C
  C33      1.0000 0.10980  0.04130  0.81890  Biso   1.000  C
  C34      1.0000 0.89020  0.54130  0.18110  Biso   1.000  C
  C35      1.0000 0.18140  0.99610  0.77530  Biso   1.000  C
  C36      1.0000 0.81860  0.49610  0.22470  Biso   1.000  C
  C37      1.0000 0.26650  0.90380  0.80190  Biso   1.000  C
  C38      1.0000 0.73350  0.40380  0.19810  Biso   1.000  C
  C39      1.0000 0.27570  0.85810  0.87510  Biso   1.000  C
  C40      1.0000 0.72430  0.35810  0.12490  Biso   1.000  C
  O3       1.0000 0.99420  0.20860  0.00100  Biso   1.000  O
  O4       1.0000 0.00580  0.70860  0.99900  Biso   1.000  O
  C41      1.0000 0.02330  0.81410  0.02370  Biso   1.000  C
  C42      1.0000 0.97670  0.31410  0.97630  Biso   1.000  C
  C43      1.0000 0.92340  0.87890  0.05430  Biso   1.000  C
  C44      1.0000 0.07660  0.37890  0.94570  Biso   1.000  C
  C45      1.0000 0.80650  0.82470  0.04670  Biso   1.000  C
  C46      1.0000 0.19350  0.32470  0.95330  Biso   1.000  C
  C47      1.0000 0.71530  0.89410  0.06570  Biso   1.000  C
  C48      1.0000 0.28470  0.39410  0.93430  Biso   1.000  C
  C49      1.0000 0.73910  0.01170  0.09350  Biso   1.000  C
  C50      1.0000 0.26090  0.51170  0.90650  Biso   1.000  C
  C51      1.0000 0.85890  0.05480  0.10040  Biso   1.000  C
  C52      1.0000 0.14110  0.55480  0.89960  Biso   1.000  C
  Cu3      1.0000 0.39508  0.47140  0.42888  Biso   1.000  Cu
  Cu4      1.0000 0.60492  0.97140  0.57112  Biso   1.000  Cu
  N9       1.0000 0.34610  0.29950  0.39060  Biso   1.000  N
  N10      1.0000 0.65390  0.79950  0.60940  Biso   1.000  N
  N11      1.0000 0.56440  0.51960  0.41970  Biso   1.000  N
  N12      1.0000 0.43560  0.01960  0.58030  Biso   1.000  N
  N13      1.0000 0.23820  0.46830  0.45100  Biso   1.000  N
  N14      1.0000 0.76180  0.96830  0.54900  Biso   1.000  N
  N15      1.0000 0.37670  0.64660  0.43820  Biso   1.000  N
  N16      1.0000 0.62330  0.14660  0.56180  Biso   1.000  N
  C53      1.0000 0.22860  0.27530  0.39550  Biso   1.000  C
  C54      1.0000 0.77140  0.77530  0.60450  Biso   1.000  C
  C55      1.0000 0.17390  0.16260  0.37490  Biso   1.000  C
  C56      1.0000 0.82610  0.66260  0.62510  Biso   1.000  C
  C57      1.0000 0.24010  0.07010  0.35000  Biso   1.000  C
  C58      1.0000 0.75990  0.57010  0.65000  Biso   1.000  C
  C59      1.0000 0.36020  0.09730  0.34590  Biso   1.000  C
  C60      1.0000 0.63980  0.59730  0.65410  Biso   1.000  C
  C61      1.0000 0.40610  0.20920  0.36660  Biso   1.000  C
  C62      1.0000 0.59390  0.70920  0.63340  Biso   1.000  C
  C63      1.0000 0.16310  0.37700  0.42760  Biso   1.000  C
  C64      1.0000 0.83690  0.87700  0.57240  Biso   1.000  C
  O5       1.0000 0.05480  0.36400  0.42970  Biso   1.000  O
  O6       1.0000 0.94520  0.86400  0.57030  Biso   1.000  O
  C65      1.0000 0.19590  0.58300  0.47950  Biso   1.000  C
  C66      1.0000 0.80410  0.08300  0.52050  Biso   1.000  C
  C67      1.0000 0.25980  0.69300  0.44880  Biso   1.000  C
  C68      1.0000 0.74020  0.19300  0.55120  Biso   1.000  C
  C69      1.0000 0.22220  0.58670  0.56330  Biso   1.000  C
  C70      1.0000 0.77780  0.08670  0.43670  Biso   1.000  C
  C71      1.0000 0.32060  0.52370  0.60990  Biso   1.000  C
  C72      1.0000 0.67940  0.02370  0.39010  Biso   1.000  C
  C73      1.0000 0.34280  0.53910  0.68570  Biso   1.000  C
  C74      1.0000 0.65720  0.03910  0.31430  Biso   1.000  C
  C75      1.0000 0.27000  0.61470  0.71740  Biso   1.000  C
  C76      1.0000 0.73000  0.11470  0.28260  Biso   1.000  C
  C77      1.0000 0.17220  0.67760  0.67200  Biso   1.000  C
  C78      1.0000 0.82780  0.17760  0.32800  Biso   1.000  C
  C79      1.0000 0.14960  0.66070  0.59630  Biso   1.000  C
  C80      1.0000 0.85040  0.16070  0.40370  Biso   1.000  C
  C81      1.0000 0.17570  0.74660  0.38080  Biso   1.000  C
  C82      1.0000 0.82430  0.24660  0.61920  Biso   1.000  C
  C83      1.0000 0.19490  0.73470  0.31040  Biso   1.000  C
  C84      1.0000 0.80510  0.23470  0.68960  Biso   1.000  C
  C85      1.0000 0.11290  0.78700  0.24890  Biso   1.000  C
  C86      1.0000 0.88710  0.28700  0.75110  Biso   1.000  C
  C87      1.0000 0.00770  0.84350  0.25740  Biso   1.000  C
  C88      1.0000 0.99230  0.34350  0.74260  Biso   1.000  C
  C89      1.0000 0.98700  0.86040  0.32760  Biso   1.000  C
  C90      1.0000 0.01300  0.36040  0.67240  Biso   1.000  C
  C91      1.0000 0.07090  0.80860  0.38950  Biso   1.000  C
  C92      1.0000 0.92910  0.30860  0.61050  Biso   1.000  C
  O7       1.0000 0.51560  0.33180  0.54820  Biso   1.000  O
  O8       1.0000 0.48440  0.83180  0.45180  Biso   1.000  O
  C93      1.0000 0.47450  0.71640  0.44200  Biso   1.000  C
  C94      1.0000 0.52550  0.21640  0.55800  Biso   1.000  C
  C95      1.0000 0.58670  0.64160  0.43050  Biso   1.000  C
  C96      1.0000 0.41330  0.14160  0.56950  Biso   1.000  C
  C97      1.0000 0.69590  0.69530  0.43080  Biso   1.000  C
  C98      1.0000 0.30410  0.19530  0.56920  Biso   1.000  C
  C99      1.0000 0.79270  0.62420  0.42340  Biso   1.000  C
  C100     1.0000 0.20730  0.12420  0.57660  Biso   1.000  C
  C101     1.0000 0.77680  0.49610  0.41460  Biso   1.000  C
  C102     1.0000 0.22320  0.99610  0.58540  Biso   1.000  C
  C103     1.0000 0.66050  0.44960  0.41200  Biso   1.000  C
  C104     1.0000 0.33950  0.94960  0.58800  Biso   1.000  C
