data_image0
_cell_length_a       6.267
_cell_length_b       7.681
_cell_length_c       16.879
_cell_angle_alpha    86.36
_cell_angle_beta     83.74
_cell_angle_gamma    66.44

_symmetry_space_group_name_H-M    "P 1"
_symmetry_int_tables_number       1

loop_
  _symmetry_equiv_pos_as_xyz
  'x, y, z'

loop_
  _atom_site_label
  _atom_site_occupancy
  _atom_site_fract_x
  _atom_site_fract_y
  _atom_site_fract_z
  _atom_site_thermal_displace_type
  _atom_site_B_iso_or_equiv
  _atom_site_type_symbol
  Cu1      1.0000 0.50000  0.00000  0.50000  Biso   1.000  Cu
  C1       1.0000 0.34610  0.90320  0.25422  Biso   1.000  C
  C2       1.0000 0.65390  0.09680  0.74578  Biso   1.000  C
  C3       1.0000 0.40470  0.18760  0.19382  Biso   1.000  C
  C4       1.0000 0.59530  0.81240  0.80618  Biso   1.000  C
  H1       1.0000 0.48910  0.12100  0.14580  Biso   1.000  H
  H2       1.0000 0.51090  0.87900  0.85420  Biso   1.000  H
  H3       1.0000 0.51730  0.16480  0.23250  Biso   1.000  H
  H4       1.0000 0.48270  0.83520  0.76750  Biso   1.000  H
  C5       1.0000 0.05130  0.12640  0.16959  Biso   1.000  C
  C6       1.0000 0.94870  0.87360  0.83041  Biso   1.000  C
  H5       1.0000 0.95830  0.26060  0.16120  Biso   1.000  H
  H6       1.0000 0.04170  0.73940  0.83880  Biso   1.000  H
  H7       1.0000 0.94740  0.06940  0.19480  Biso   1.000  H
  H8       1.0000 0.05260  0.93060  0.80520  Biso   1.000  H
  C7       1.0000 0.15090  0.03690  0.08889  Biso   1.000  C
  C8       1.0000 0.84910  0.96310  0.91111  Biso   1.000  C
  H9       1.0000 0.26000  0.90660  0.09640  Biso   1.000  H
  H10      1.0000 0.74000  0.09340  0.90360  Biso   1.000  H
  H11      1.0000 0.23530  0.10590  0.05950  Biso   1.000  H
  H12      1.0000 0.76470  0.89410  0.94050  Biso   1.000  H
  C9       1.0000 0.95570  0.04060  0.04135  Biso   1.000  C
  C10      1.0000 0.04430  0.95940  0.95865  Biso   1.000  C
  H13      1.0000 0.87510  0.96820  0.07040  Biso   1.000  H
  H14      1.0000 0.12490  0.03180  0.92960  Biso   1.000  H
  H15      1.0000 0.84360  0.17070  0.03630  Biso   1.000  H
  H16      1.0000 0.15640  0.82930  0.96370  Biso   1.000  H
  N1       1.0000 0.23270  0.10590  0.22622  Biso   1.000  N
  N2       1.0000 0.76730  0.89410  0.77378  Biso   1.000  N
  O1       1.0000 0.59670  0.65260  0.35844  Biso   1.000  O
  O2       1.0000 0.40330  0.34740  0.64156  Biso   1.000  O
  O3       1.0000 0.79070  0.84480  0.27594  Biso   1.000  O
  O4       1.0000 0.20930  0.15520  0.72406  Biso   1.000  O
  H17      1.0000 0.88100  0.73470  0.26710  Biso   1.000  H
  H18      1.0000 0.11900  0.26530  0.73290  Biso   1.000  H
  O5       1.0000 0.47950  0.00460  0.38386  Biso   1.000  O
  O6       1.0000 0.52050  0.99540  0.61614  Biso   1.000  O
  O7       1.0000 0.10090  0.52510  0.24028  Biso   1.000  O
  O8       1.0000 0.89910  0.47490  0.75972  Biso   1.000  O
  O9       1.0000 0.18540  0.48370  0.08996  Biso   1.000  O
  O10      1.0000 0.81460  0.51630  0.91004  Biso   1.000  O
  O11      1.0000 0.49310  0.49110  0.17466  Biso   1.000  O
  O12      1.0000 0.50690  0.50890  0.82534  Biso   1.000  O
  H19      1.0000 0.52930  0.52830  0.13070  Biso   1.000  H
  H20      1.0000 0.47070  0.47170  0.86930  Biso   1.000  H
  O13      1.0000 0.50220  0.25560  0.48647  Biso   1.000  O
  O14      1.0000 0.49780  0.74440  0.51353  Biso   1.000  O
  P1       1.0000 0.56482  0.84648  0.32511  Biso   1.000  P
  P2       1.0000 0.43518  0.15352  0.67489  Biso   1.000  P
  P3       1.0000 0.27579  0.44208  0.17028  Biso   1.000  P
  P4       1.0000 0.72421  0.55792  0.82972  Biso   1.000  P
  H21      1.0000 0.41000  0.82800  0.21160  Biso   1.000  H
  H22      1.0000 0.59000  0.17200  0.78840  Biso   1.000  H
  H23      1.0000 0.16000  0.16300  0.26440  Biso   1.000  H
  H24      1.0000 0.84000  0.83700  0.73560  Biso   1.000  H
  H25      1.0000 0.22800  0.87800  0.27990  Biso   1.000  H
  H26      1.0000 0.77200  0.12200  0.72010  Biso   1.000  H
  O15      1.0000 0.92490  0.84760  0.49059  Biso   1.000  O
  O16      1.0000 0.07510  0.15240  0.50941  Biso   1.000  O
  H27      1.0000 0.47100  0.30200  0.52600  Biso   1.000  H
  H28      1.0000 0.52900  0.69800  0.47400  Biso   1.000  H
  H29      1.0000 0.42000  0.32000  0.45500  Biso   1.000  H
  H30      1.0000 0.58000  0.68000  0.54500  Biso   1.000  H
  H31      1.0000 0.00500  0.75200  0.45500  Biso   1.000  H
  H32      1.0000 0.99500  0.24800  0.54500  Biso   1.000  H
  H33      1.0000 0.91300  0.91300  0.45500  Biso   1.000  H
  H34      1.0000 0.08700  0.08700  0.54500  Biso   1.000  H
  O17      1.0000 0.23560  0.53610  0.39169  Biso   1.000  O
  O18      1.0000 0.76440  0.46390  0.60831  Biso   1.000  O
  H35      1.0000 0.19100  0.50600  0.36200  Biso   1.000  H
  H36      1.0000 0.80900  0.49400  0.63800  Biso   1.000  H
  H37      1.0000 0.39100  0.58200  0.36800  Biso   1.000  H
  H38      1.0000 0.60900  0.41800  0.63200  Biso   1.000  H
  O19      1.0000 0.71370  0.61500  0.06581  Biso   1.000  O
  O20      1.0000 0.28630  0.38500  0.93419  Biso   1.000  O
  H39      1.0000 0.85600  0.57200  0.08300  Biso   1.000  H
  H40      1.0000 0.14400  0.42800  0.91700  Biso   1.000  H
  H41      1.0000 0.71800  0.58600  0.02500  Biso   1.000  H
  H42      1.0000 0.28200  0.41400  0.97500  Biso   1.000  H
  O21      1.0000 0.89780  0.26490  0.35123  Biso   1.000  O
  O22      1.0000 0.10220  0.73510  0.64877  Biso   1.000  O
  H43      1.0000 0.99100  0.29900  0.35430  Biso   1.000  H
  H44      1.0000 0.00900  0.70100  0.64570  Biso   1.000  H
  H45      1.0000 0.82500  0.36800  0.35000  Biso   1.000  H
  H46      1.0000 0.17500  0.63200  0.65000  Biso   1.000  H
