data_image0
_cell_length_a       9.1552
_cell_length_b       10.7244
_cell_length_c       12.2586
_cell_angle_alpha    93.343
_cell_angle_beta     100.822
_cell_angle_gamma    105.48

_symmetry_space_group_name_H-M    "P 1"
_symmetry_int_tables_number       1

loop_
  _symmetry_equiv_pos_as_xyz
  'x, y, z'

loop_
  _atom_site_label
  _atom_site_occupancy
  _atom_site_fract_x
  _atom_site_fract_y
  _atom_site_fract_z
  _atom_site_thermal_displace_type
  _atom_site_B_iso_or_equiv
  _atom_site_type_symbol
  Cu1      1.0000 0.64164  0.05829  0.53769  Biso   1.000  Cu
  Cu2      1.0000 0.35836  0.94171  0.46231  Biso   1.000  Cu
  I1       1.0000 0.58783  0.83959  0.41586  Biso   1.000  I
  I2       1.0000 0.41217  0.16041  0.58414  Biso   1.000  I
  Cu3      1.0000 0.49553  0.36792  0.47394  Biso   1.000  Cu
  Cu4      1.0000 0.50447  0.63208  0.52606  Biso   1.000  Cu
  I3       1.0000 0.74205  0.53924  0.59711  Biso   1.000  I
  I4       1.0000 0.25795  0.46076  0.40289  Biso   1.000  I
  S1       1.0000 0.79840  0.06859  0.71081  Biso   1.000  S
  S2       1.0000 0.20160  0.93141  0.28919  Biso   1.000  S
  N1       1.0000 0.79580  0.22450  0.50160  Biso   1.000  N
  N2       1.0000 0.20420  0.77550  0.49840  Biso   1.000  N
  H1       1.0000 0.76300  0.28500  0.53500  Biso   1.000  H
  H2       1.0000 0.23700  0.71500  0.46500  Biso   1.000  H
  C1       1.0000 0.94510  0.24440  0.58000  Biso   1.000  C
  C2       1.0000 0.05490  0.75560  0.42000  Biso   1.000  C
  H3       1.0000 0.01050  0.33160  0.57870  Biso   1.000  H
  H4       1.0000 0.98950  0.66840  0.42130  Biso   1.000  H
  H5       1.0000 0.99710  0.18310  0.55610  Biso   1.000  H
  H6       1.0000 0.00290  0.81690  0.44390  Biso   1.000  H
  C3       1.0000 0.92490  0.22650  0.69630  Biso   1.000  C
  C4       1.0000 0.07510  0.77350  0.30370  Biso   1.000  C
  H7       1.0000 0.88280  0.29390  0.72240  Biso   1.000  H
  H8       1.0000 0.11720  0.70610  0.27760  Biso   1.000  H
  H9       1.0000 0.02580  0.23800  0.74410  Biso   1.000  H
  H10      1.0000 0.97420  0.76200  0.25590  Biso   1.000  H
  C5       1.0000 0.91620  0.95940  0.69200  Biso   1.000  C
  C6       1.0000 0.08380  0.04060  0.30800  Biso   1.000  C
  H11      1.0000 0.84820  0.87380  0.66110  Biso   1.000  H
  H12      1.0000 0.15180  0.12620  0.33890  Biso   1.000  H
  H13      1.0000 0.97900  0.99110  0.63850  Biso   1.000  H
  H14      1.0000 0.02100  0.00890  0.36150  Biso   1.000  H
  C7       1.0000 0.02040  0.94750  0.79840  Biso   1.000  C
  C8       1.0000 0.97960  0.05250  0.20160  Biso   1.000  C
  C9       1.0000 0.17080  0.02280  0.82670  Biso   1.000  C
  C10      1.0000 0.82920  0.97720  0.17330  Biso   1.000  C
  H15      1.0000 0.20790  0.08500  0.78120  Biso   1.000  H
  H16      1.0000 0.79210  0.91500  0.21880  Biso   1.000  H
  C11      1.0000 0.27020  0.00690  0.92400  Biso   1.000  C
  C12      1.0000 0.72980  0.99310  0.07600  Biso   1.000  C
  H17      1.0000 0.37310  0.05730  0.94230  Biso   1.000  H
  H18      1.0000 0.62690  0.94270  0.05770  Biso   1.000  H
  C13      1.0000 0.21580  0.91900  0.99000  Biso   1.000  C
  C14      1.0000 0.78420  0.08100  0.01000  Biso   1.000  C
  H19      1.0000 0.28160  0.90890  0.05440  Biso   1.000  H
  H20      1.0000 0.71840  0.09110  0.94560  Biso   1.000  H
  C15      1.0000 0.06560  0.84400  0.96470  Biso   1.000  C
  C16      1.0000 0.93440  0.15600  0.03530  Biso   1.000  C
  H21      1.0000 0.02940  0.78390  0.01210  Biso   1.000  H
  H22      1.0000 0.97060  0.21610  0.98790  Biso   1.000  H
  C17      1.0000 0.96600  0.85720  0.86750  Biso   1.000  C
  C18      1.0000 0.03400  0.14280  0.13250  Biso   1.000  C
  H23      1.0000 0.86370  0.80540  0.84960  Biso   1.000  H
  H24      1.0000 0.13630  0.19460  0.15040  Biso   1.000  H
  S3       1.0000 0.53240  0.29283  0.30161  Biso   1.000  S
  S4       1.0000 0.46760  0.70717  0.69839  Biso   1.000  S
  C19      1.0000 0.66690  0.19640  0.30090  Biso   1.000  C
  C20      1.0000 0.33310  0.80360  0.69910  Biso   1.000  C
  H25      1.0000 0.61390  0.10790  0.31060  Biso   1.000  H
  H26      1.0000 0.38610  0.89210  0.68940  Biso   1.000  H
  H27      1.0000 0.69190  0.19430  0.22750  Biso   1.000  H
  H28      1.0000 0.30810  0.80570  0.77250  Biso   1.000  H
  C21      1.0000 0.62710  0.43640  0.24630  Biso   1.000  C
  C22      1.0000 0.37290  0.56360  0.75370  Biso   1.000  C
  H29      1.0000 0.57100  0.50060  0.25230  Biso   1.000  H
  H30      1.0000 0.42900  0.49940  0.74770  Biso   1.000  H
  H31      1.0000 0.73090  0.47250  0.29170  Biso   1.000  H
  H32      1.0000 0.26910  0.52750  0.70830  Biso   1.000  H
  C23      1.0000 0.81510  0.23860  0.38550  Biso   1.000  C
  C24      1.0000 0.18490  0.76140  0.61450  Biso   1.000  C
  H33      1.0000 0.88260  0.18790  0.36800  Biso   1.000  H
  H34      1.0000 0.11740  0.81210  0.63200  Biso   1.000  H
  H35      1.0000 0.86580  0.32930  0.38040  Biso   1.000  H
  H36      1.0000 0.13420  0.67070  0.61960  Biso   1.000  H
  C25      1.0000 0.63860  0.41290  0.12510  Biso   1.000  C
  C26      1.0000 0.36140  0.58710  0.87490  Biso   1.000  C
  C27      1.0000 0.50980  0.34540  0.04240  Biso   1.000  C
  C28      1.0000 0.49020  0.65460  0.95760  Biso   1.000  C
  H37      1.0000 0.41510  0.30930  0.06160  Biso   1.000  H
  H38      1.0000 0.58490  0.69070  0.93840  Biso   1.000  H
  C29      1.0000 0.52270  0.33220  0.93150  Biso   1.000  C
  C30      1.0000 0.47730  0.66780  0.06850  Biso   1.000  C
  H39      1.0000 0.43700  0.28730  0.87650  Biso   1.000  H
  H40      1.0000 0.56300  0.71270  0.12350  Biso   1.000  H
  C31      1.0000 0.66150  0.38520  0.90390  Biso   1.000  C
  C32      1.0000 0.33850  0.61480  0.09610  Biso   1.000  C
  H41      1.0000 0.67130  0.37520  0.82990  Biso   1.000  H
  H42      1.0000 0.32870  0.62480  0.17010  Biso   1.000  H
  C33      1.0000 0.78130  0.45010  0.98120  Biso   1.000  C
  C34      1.0000 0.21870  0.54990  0.01880  Biso   1.000  C
  H43      1.0000 0.87390  0.49070  0.96090  Biso   1.000  H
  H44      1.0000 0.12610  0.50930  0.03910  Biso   1.000  H
  C35      1.0000 0.77260  0.45940  0.09250  Biso   1.000  C
  C36      1.0000 0.22740  0.54060  0.90750  Biso   1.000  C
  H45      1.0000 0.86210  0.49900  0.14620  Biso   1.000  H
  H46      1.0000 0.13790  0.50100  0.85380  Biso   1.000  H
