data_image0
_cell_length_a       12.515
_cell_length_b       12.54
_cell_length_c       11.61
_cell_angle_alpha    106.18
_cell_angle_beta     119.15
_cell_angle_gamma    91.14

_symmetry_space_group_name_H-M    "P 1"
_symmetry_int_tables_number       1

loop_
  _symmetry_equiv_pos_as_xyz
  'x, y, z'

loop_
  _atom_site_label
  _atom_site_occupancy
  _atom_site_fract_x
  _atom_site_fract_y
  _atom_site_fract_z
  _atom_site_thermal_displace_type
  _atom_site_B_iso_or_equiv
  _atom_site_type_symbol
  O1       1.0000 0.89000  0.07570  0.05480  Biso   1.000  O
  O2       1.0000 0.11000  0.92430  0.94520  Biso   1.000  O
  O3       1.0000 0.07540  0.95070  0.16370  Biso   1.000  O
  O4       1.0000 0.92460  0.04930  0.83630  Biso   1.000  O
  F1       1.0000 0.84190  0.27250  0.18370  Biso   1.000  F
  F2       1.0000 0.15810  0.72750  0.81630  Biso   1.000  F
  F3       1.0000 0.70510  0.13630  0.10500  Biso   1.000  F
  F4       1.0000 0.29490  0.86370  0.89500  Biso   1.000  F
  F5       1.0000 0.83540  0.20340  0.32030  Biso   1.000  F
  F6       1.0000 0.16460  0.79660  0.67970  Biso   1.000  F
  F7       1.0000 0.07980  0.88150  0.40870  Biso   1.000  F
  F8       1.0000 0.92020  0.11850  0.59130  Biso   1.000  F
  F9       1.0000 0.19830  0.03150  0.50580  Biso   1.000  F
  F10      1.0000 0.80170  0.96850  0.49420  Biso   1.000  F
  F11      1.0000 0.22420  0.89520  0.37830  Biso   1.000  F
  F12      1.0000 0.77580  0.10480  0.62170  Biso   1.000  F
  C1       1.0000 0.90460  0.09700  0.17380  Biso   1.000  C
  C2       1.0000 0.09540  0.90300  0.82620  Biso   1.000  C
  C3       1.0000 0.98350  0.05980  0.28020  Biso   1.000  C
  C4       1.0000 0.01650  0.94020  0.71980  Biso   1.000  C
  C5       1.0000 0.06290  0.98750  0.26610  Biso   1.000  C
  C6       1.0000 0.93710  0.01250  0.73390  Biso   1.000  C
  C7       1.0000 0.82020  0.17580  0.19830  Biso   1.000  C
  C8       1.0000 0.17980  0.82420  0.80170  Biso   1.000  C
  C9       1.0000 0.14390  0.95090  0.39020  Biso   1.000  C
  C10      1.0000 0.85610  0.04910  0.60980  Biso   1.000  C
  O5       1.0000 0.34640  0.48170  0.82800  Biso   1.000  O
  O6       1.0000 0.65360  0.51830  0.17200  Biso   1.000  O
  O7       1.0000 0.53940  0.36040  0.91910  Biso   1.000  O
  O8       1.0000 0.46060  0.63960  0.08090  Biso   1.000  O
  F13      1.0000 0.15720  0.49810  0.60770  Biso   1.000  F
  F14      1.0000 0.84280  0.50190  0.39230  Biso   1.000  F
  F15      1.0000 0.16640  0.36510  0.47890  Biso   1.000  F
  F16      1.0000 0.83360  0.63490  0.52110  Biso   1.000  F
  F17      1.0000 0.09330  0.34820  0.58490  Biso   1.000  F
  F18      1.0000 0.90670  0.65180  0.41510  Biso   1.000  F
  F19      1.0000 0.49330  0.15150  0.63140  Biso   1.000  F
  F20      1.0000 0.50670  0.84850  0.36860  Biso   1.000  F
  F21      1.0000 0.64140  0.19700  0.84210  Biso   1.000  F
  F22      1.0000 0.35860  0.80300  0.15790  Biso   1.000  F
  F23      1.0000 0.46820  0.10540  0.77610  Biso   1.000  F
  F24      1.0000 0.53180  0.89460  0.22390  Biso   1.000  F
  C11      1.0000 0.30620  0.40080  0.71850  Biso   1.000  C
  C12      1.0000 0.69380  0.59920  0.28150  Biso   1.000  C
  C13      1.0000 0.36090  0.30870  0.69360  Biso   1.000  C
  C14      1.0000 0.63910  0.69130  0.30640  Biso   1.000  C
  C15      1.0000 0.47270  0.29620  0.79720  Biso   1.000  C
  C16      1.0000 0.52730  0.70380  0.20280  Biso   1.000  C
  C17      1.0000 0.18240  0.40520  0.59740  Biso   1.000  C
  C18      1.0000 0.81760  0.59480  0.40260  Biso   1.000  C
  C19      1.0000 0.52180  0.18810  0.76040  Biso   1.000  C
  C20      1.0000 0.47820  0.81190  0.23960  Biso   1.000  C
  O9       1.0000 0.14650  0.17680  0.16260  Biso   1.000  O
  O10      1.0000 0.85350  0.82320  0.83740  Biso   1.000  O
  O11      1.0000 0.35580  0.38100  0.03390  Biso   1.000  O
  O12      1.0000 0.64420  0.61900  0.96610  Biso   1.000  O
  O13      1.0000 0.68660  0.41570  0.75930  Biso   1.000  O
  O14      1.0000 0.31340  0.58430  0.24070  Biso   1.000  O
  O15      1.0000 0.75660  0.44210  0.63870  Biso   1.000  O
  O16      1.0000 0.24340  0.55790  0.36130  Biso   1.000  O
  N1       1.0000 0.23320  0.22540  0.15520  Biso   1.000  N
  N2       1.0000 0.76680  0.77460  0.84480  Biso   1.000  N
  N3       1.0000 0.33240  0.31950  0.09200  Biso   1.000  N
  N4       1.0000 0.66760  0.68050  0.90800  Biso   1.000  N
  N5       1.0000 0.76620  0.41500  0.73300  Biso   1.000  N
  N6       1.0000 0.23380  0.58500  0.26700  Biso   1.000  N
  C21      1.0000 0.21970  0.29050  0.07580  Biso   1.000  C
  C22      1.0000 0.78030  0.70950  0.92420  Biso   1.000  C
  C23      1.0000 0.36820  0.22550  0.25260  Biso   1.000  C
  C24      1.0000 0.63180  0.77450  0.74740  Biso   1.000  C
  C25      1.0000 0.42590  0.25480  0.17230  Biso   1.000  C
  C26      1.0000 0.57410  0.74520  0.82770  Biso   1.000  C
  C27      1.0000 0.38180  0.11230  0.27500  Biso   1.000  C
  C28      1.0000 0.61820  0.88770  0.72500  Biso   1.000  C
  C29      1.0000 0.40560  0.32040  0.38910  Biso   1.000  C
  C30      1.0000 0.59440  0.67960  0.61090  Biso   1.000  C
  C31      1.0000 0.55420  0.32520  0.25870  Biso   1.000  C
  C32      1.0000 0.44580  0.67480  0.74130  Biso   1.000  C
  C33      1.0000 0.41860  0.15050  0.06010  Biso   1.000  C
  C34      1.0000 0.58140  0.84950  0.93990  Biso   1.000  C
  C35      1.0000 0.10370  0.32340  0.98810  Biso   1.000  C
  C36      1.0000 0.89630  0.67660  0.01190  Biso   1.000  C
  C37      1.0000 0.08680  0.35360  0.87540  Biso   1.000  C
  C38      1.0000 0.91320  0.64640  0.12460  Biso   1.000  C
  C39      1.0000 0.97670  0.38340  0.79250  Biso   1.000  C
  C40      1.0000 0.02330  0.61660  0.20750  Biso   1.000  C
  C41      1.0000 0.88490  0.38320  0.82360  Biso   1.000  C
  C42      1.0000 0.11510  0.61680  0.17640  Biso   1.000  C
  C43      1.0000 0.89870  0.35600  0.93500  Biso   1.000  C
  C44      1.0000 0.10130  0.64400  0.06500  Biso   1.000  C
  C45      1.0000 0.00870  0.32530  0.01820  Biso   1.000  C
  C46      1.0000 0.99130  0.67470  0.98180  Biso   1.000  C
  Cu1      1.0000 0.00000  0.00000  0.00000  Biso   1.000  Cu
  Cu2      1.0000 0.50000  0.50000  0.00000  Biso   1.000  Cu
