data_image0
_cell_length_a       11.284
_cell_length_b       13.548
_cell_length_c       16.159
_cell_angle_alpha    90
_cell_angle_beta     120.59
_cell_angle_gamma    90

_symmetry_space_group_name_H-M    "P 1"
_symmetry_int_tables_number       1

loop_
  _symmetry_equiv_pos_as_xyz
  'x, y, z'

loop_
  _atom_site_label
  _atom_site_occupancy
  _atom_site_fract_x
  _atom_site_fract_y
  _atom_site_fract_z
  _atom_site_thermal_displace_type
  _atom_site_B_iso_or_equiv
  _atom_site_type_symbol
  Hg1      1.0000 0.88566  0.31933  0.99831  Biso   1.000  Hg
  Hg2      1.0000 0.11434  0.81933  0.50169  Biso   1.000  Hg
  Hg3      1.0000 0.11434  0.68067  0.00169  Biso   1.000  Hg
  Hg4      1.0000 0.88566  0.18067  0.49831  Biso   1.000  Hg
  Cu1      1.0000 0.30446  0.01325  0.26460  Biso   1.000  Cu
  Cu2      1.0000 0.69554  0.51325  0.23540  Biso   1.000  Cu
  Cu3      1.0000 0.69554  0.98675  0.73540  Biso   1.000  Cu
  Cu4      1.0000 0.30446  0.48675  0.76460  Biso   1.000  Cu
  S1       1.0000 0.00400  0.28360  0.17920  Biso   1.000  S
  S2       1.0000 0.99600  0.78360  0.32080  Biso   1.000  S
  S3       1.0000 0.99600  0.71640  0.82080  Biso   1.000  S
  S4       1.0000 0.00400  0.21640  0.67920  Biso   1.000  S
  C1       1.0000 0.10280  0.18780  0.19230  Biso   1.000  C
  C2       1.0000 0.89720  0.68780  0.30770  Biso   1.000  C
  C3       1.0000 0.89720  0.81220  0.80770  Biso   1.000  C
  C4       1.0000 0.10280  0.31220  0.69230  Biso   1.000  C
  N1       1.0000 0.17510  0.12270  0.20440  Biso   1.000  N
  N2       1.0000 0.82490  0.62270  0.29560  Biso   1.000  N
  N3       1.0000 0.82490  0.87730  0.79560  Biso   1.000  N
  N4       1.0000 0.17510  0.37730  0.70440  Biso   1.000  N
  S5       1.0000 0.84620  0.50230  0.99580  Biso   1.000  S
  S6       1.0000 0.15380  0.00230  0.50420  Biso   1.000  S
  S7       1.0000 0.15380  0.49770  0.00420  Biso   1.000  S
  S8       1.0000 0.84620  0.99770  0.49580  Biso   1.000  S
  C5       1.0000 0.79050  0.50080  0.07260  Biso   1.000  C
  C6       1.0000 0.20950  0.00080  0.42740  Biso   1.000  C
  C7       1.0000 0.20950  0.49920  0.92740  Biso   1.000  C
  C8       1.0000 0.79050  0.99920  0.57260  Biso   1.000  C
  N5       1.0000 0.75160  0.49800  0.12470  Biso   1.000  N
  N6       1.0000 0.24840  0.99800  0.37530  Biso   1.000  N
  N7       1.0000 0.24840  0.50200  0.87530  Biso   1.000  N
  N8       1.0000 0.75160  0.00200  0.62470  Biso   1.000  N
  S9       1.0000 0.00580  0.25120  0.91880  Biso   1.000  S
  S10      1.0000 0.99420  0.75120  0.58120  Biso   1.000  S
  S11      1.0000 0.99420  0.74880  0.08120  Biso   1.000  S
  S12      1.0000 0.00580  0.24880  0.41880  Biso   1.000  S
  C9       1.0000 0.90540  0.15280  0.86690  Biso   1.000  C
  C10      1.0000 0.09460  0.65280  0.63310  Biso   1.000  C
  C11      1.0000 0.09460  0.84720  0.13310  Biso   1.000  C
  C12      1.0000 0.90540  0.34720  0.36690  Biso   1.000  C
  N9       1.0000 0.83930  0.08870  0.82710  Biso   1.000  N
  N10      1.0000 0.16070  0.58870  0.67290  Biso   1.000  N
  N11      1.0000 0.16070  0.91130  0.17290  Biso   1.000  N
  N12      1.0000 0.83930  0.41130  0.32710  Biso   1.000  N
  S13      1.0000 0.65200  0.23320  0.93840  Biso   1.000  S
  S14      1.0000 0.34800  0.73320  0.56160  Biso   1.000  S
  S15      1.0000 0.34800  0.76680  0.06160  Biso   1.000  S
  S16      1.0000 0.65200  0.26680  0.43840  Biso   1.000  S
  C13      1.0000 0.54290  0.32470  0.88810  Biso   1.000  C
  C14      1.0000 0.45710  0.82470  0.61190  Biso   1.000  C
  C15      1.0000 0.45710  0.67530  0.11190  Biso   1.000  C
  C16      1.0000 0.54290  0.17530  0.38810  Biso   1.000  C
  N13      1.0000 0.46090  0.38580  0.84930  Biso   1.000  N
  N14      1.0000 0.53910  0.88580  0.65070  Biso   1.000  N
  N15      1.0000 0.53910  0.61420  0.15070  Biso   1.000  N
  N16      1.0000 0.46090  0.11420  0.34930  Biso   1.000  N
  O1       1.0000 0.40990  0.01930  0.17530  Biso   1.000  O
  O2       1.0000 0.59010  0.51930  0.32470  Biso   1.000  O
  O3       1.0000 0.59010  0.98070  0.82470  Biso   1.000  O
  O4       1.0000 0.40990  0.48070  0.67530  Biso   1.000  O
  N17      1.0000 0.44330  0.90460  0.31510  Biso   1.000  N
  N18      1.0000 0.55670  0.40460  0.18490  Biso   1.000  N
  N19      1.0000 0.55670  0.09540  0.68490  Biso   1.000  N
  N20      1.0000 0.44330  0.59540  0.81510  Biso   1.000  N
  C17      1.0000 0.45200  0.83710  0.37890  Biso   1.000  C
  C18      1.0000 0.54800  0.33710  0.12110  Biso   1.000  C
  C19      1.0000 0.54800  0.16290  0.62110  Biso   1.000  C
  C20      1.0000 0.45200  0.66290  0.87890  Biso   1.000  C
  H1       1.0000 0.39270  0.84300  0.40280  Biso   1.000  H
  H2       1.0000 0.60730  0.34300  0.09720  Biso   1.000  H
  H3       1.0000 0.60730  0.15700  0.59720  Biso   1.000  H
  H4       1.0000 0.39270  0.65700  0.90280  Biso   1.000  H
  C21      1.0000 0.54200  0.76120  0.41020  Biso   1.000  C
  C22      1.0000 0.45800  0.26120  0.08980  Biso   1.000  C
  C23      1.0000 0.45800  0.23880  0.58980  Biso   1.000  C
  C24      1.0000 0.54200  0.73880  0.91020  Biso   1.000  C
  H5       1.0000 0.54080  0.71530  0.45260  Biso   1.000  H
  H6       1.0000 0.45920  0.21530  0.04740  Biso   1.000  H
  H7       1.0000 0.45920  0.28470  0.54740  Biso   1.000  H
  H8       1.0000 0.54080  0.78470  0.95260  Biso   1.000  H
  C25      1.0000 0.63350  0.75100  0.38130  Biso   1.000  C
  C26      1.0000 0.36650  0.25100  0.11870  Biso   1.000  C
  C27      1.0000 0.36650  0.24900  0.61870  Biso   1.000  C
  C28      1.0000 0.63350  0.74900  0.88130  Biso   1.000  C
  H9       1.0000 0.69460  0.69820  0.40120  Biso   1.000  H
  H10      1.0000 0.30540  0.19820  0.09880  Biso   1.000  H
  H11      1.0000 0.30540  0.30180  0.59880  Biso   1.000  H
  H12      1.0000 0.69460  0.80180  0.90120  Biso   1.000  H
  C29      1.0000 0.63240  0.82330  0.31990  Biso   1.000  C
  C30      1.0000 0.36760  0.32330  0.18010  Biso   1.000  C
  C31      1.0000 0.36760  0.17670  0.68010  Biso   1.000  C
  C32      1.0000 0.63240  0.67670  0.81990  Biso   1.000  C
  H13      1.0000 0.70020  0.82400  0.30340  Biso   1.000  H
  H14      1.0000 0.29980  0.32400  0.19660  Biso   1.000  H
  H15      1.0000 0.29980  0.17600  0.69660  Biso   1.000  H
  H16      1.0000 0.70020  0.67600  0.80340  Biso   1.000  H
  C33      1.0000 0.53330  0.89210  0.28470  Biso   1.000  C
  C34      1.0000 0.46670  0.39210  0.21530  Biso   1.000  C
  C35      1.0000 0.46670  0.10790  0.71530  Biso   1.000  C
  C36      1.0000 0.53330  0.60790  0.78470  Biso   1.000  C
  C37      1.0000 0.50920  0.96750  0.20540  Biso   1.000  C
  C38      1.0000 0.49080  0.46750  0.29460  Biso   1.000  C
  C39      1.0000 0.49080  0.03250  0.79460  Biso   1.000  C
  C40      1.0000 0.50920  0.53250  0.70540  Biso   1.000  C
  C41      1.0000 0.61890  0.98290  0.18360  Biso   1.000  C
  C42      1.0000 0.38110  0.48290  0.31640  Biso   1.000  C
  C43      1.0000 0.38110  0.01710  0.81640  Biso   1.000  C
  C44      1.0000 0.61890  0.51710  0.68360  Biso   1.000  C
  C45      1.0000 0.74800  0.00700  0.23500  Biso   1.000  C
  C46      1.0000 0.25200  0.50700  0.26500  Biso   1.000  C
  C47      1.0000 0.25200  0.99300  0.76500  Biso   1.000  C
  C48      1.0000 0.74800  0.49300  0.73500  Biso   1.000  C
  H17      1.0000 0.78130  0.00870  0.30120  Biso   1.000  H
  H18      1.0000 0.21870  0.50870  0.19880  Biso   1.000  H
  H19      1.0000 0.21870  0.99130  0.69880  Biso   1.000  H
  H20      1.0000 0.78130  0.49130  0.80120  Biso   1.000  H
  C49      1.0000 0.84300  0.02900  0.20900  Biso   1.000  C
  C50      1.0000 0.15700  0.52900  0.29100  Biso   1.000  C
  C51      1.0000 0.15700  0.97100  0.79100  Biso   1.000  C
  C52      1.0000 0.84300  0.47100  0.70900  Biso   1.000  C
  H21      1.0000 0.92840  0.05640  0.25250  Biso   1.000  H
  H22      1.0000 0.07160  0.55640  0.24750  Biso   1.000  H
  H23      1.0000 0.07160  0.94360  0.74750  Biso   1.000  H
  H24      1.0000 0.92840  0.44360  0.75250  Biso   1.000  H
  C53      1.0000 0.80600  0.01000  0.11400  Biso   1.000  C
  C54      1.0000 0.19400  0.51000  0.38600  Biso   1.000  C
  C55      1.0000 0.19400  0.99000  0.88600  Biso   1.000  C
  C56      1.0000 0.80600  0.49000  0.61400  Biso   1.000  C
  H25      1.0000 0.87360  0.01660  0.09790  Biso   1.000  H
  H26      1.0000 0.12640  0.51660  0.40210  Biso   1.000  H
  H27      1.0000 0.12640  0.98340  0.90210  Biso   1.000  H
  H28      1.0000 0.87360  0.48340  0.59790  Biso   1.000  H
  C57      1.0000 0.67100  0.98100  0.03900  Biso   1.000  C
  C58      1.0000 0.32900  0.48100  0.46100  Biso   1.000  C
  C59      1.0000 0.32900  0.01900  0.96100  Biso   1.000  C
  C60      1.0000 0.67100  0.51900  0.53900  Biso   1.000  C
  H29      1.0000 0.64890  0.96730  0.97650  Biso   1.000  H
  H30      1.0000 0.35110  0.46730  0.52350  Biso   1.000  H
  H31      1.0000 0.35110  0.03270  0.02350  Biso   1.000  H
  H32      1.0000 0.64890  0.53270  0.47650  Biso   1.000  H
  C61      1.0000 0.57200  0.97390  0.07070  Biso   1.000  C
  C62      1.0000 0.42800  0.47390  0.42930  Biso   1.000  C
  C63      1.0000 0.42800  0.02610  0.92930  Biso   1.000  C
  C64      1.0000 0.57200  0.52610  0.57070  Biso   1.000  C
  H33      1.0000 0.47950  0.96410  0.02540  Biso   1.000  H
  H34      1.0000 0.52050  0.46410  0.47460  Biso   1.000  H
  H35      1.0000 0.52050  0.03590  0.97460  Biso   1.000  H
  H36      1.0000 0.47950  0.53590  0.52540  Biso   1.000  H
  C65      1.0000 0.68800  0.07100  0.21800  Biso   1.000  C
  C66      1.0000 0.31200  0.57100  0.28200  Biso   1.000  C
  C67      1.0000 0.31200  0.92900  0.78200  Biso   1.000  C
  C68      1.0000 0.68800  0.42900  0.71800  Biso   1.000  C
  C69      1.0000 0.78600  0.10300  0.19200  Biso   1.000  C
  C70      1.0000 0.21400  0.60300  0.30800  Biso   1.000  C
  C71      1.0000 0.21400  0.89700  0.80800  Biso   1.000  C
  C72      1.0000 0.78600  0.39700  0.69200  Biso   1.000  C
  C73      1.0000 0.82700  0.01800  0.15800  Biso   1.000  C
  C74      1.0000 0.17300  0.51800  0.34200  Biso   1.000  C
  C75      1.0000 0.17300  0.98200  0.84200  Biso   1.000  C
  C76      1.0000 0.82700  0.48200  0.65800  Biso   1.000  C
  C77      1.0000 0.77300  0.93600  0.14400  Biso   1.000  C
  C78      1.0000 0.22700  0.43600  0.35600  Biso   1.000  C
  C79      1.0000 0.22700  0.06400  0.85600  Biso   1.000  C
  C80      1.0000 0.77300  0.56400  0.64400  Biso   1.000  C
  C81      1.0000 0.67500  0.90800  0.16500  Biso   1.000  C
  C82      1.0000 0.32500  0.40800  0.33500  Biso   1.000  C
  C83      1.0000 0.32500  0.09200  0.83500  Biso   1.000  C
  C84      1.0000 0.67500  0.59200  0.66500  Biso   1.000  C
  H37      1.0000 0.67160  0.10950  0.25890  Biso   1.000  H
  H38      1.0000 0.32840  0.60950  0.24110  Biso   1.000  H
  H39      1.0000 0.32840  0.89050  0.74110  Biso   1.000  H
  H40      1.0000 0.67160  0.39050  0.75890  Biso   1.000  H
  H41      1.0000 0.81810  0.16750  0.19610  Biso   1.000  H
  H42      1.0000 0.18190  0.66750  0.30390  Biso   1.000  H
  H43      1.0000 0.18190  0.83250  0.80390  Biso   1.000  H
  H44      1.0000 0.81810  0.33250  0.69610  Biso   1.000  H
  H45      1.0000 0.89900  0.02520  0.14630  Biso   1.000  H
  H46      1.0000 0.10100  0.52520  0.35370  Biso   1.000  H
  H47      1.0000 0.10100  0.97480  0.85370  Biso   1.000  H
  H48      1.0000 0.89900  0.47480  0.64630  Biso   1.000  H
  H49      1.0000 0.80150  0.88880  0.11620  Biso   1.000  H
  H50      1.0000 0.19850  0.38880  0.38380  Biso   1.000  H
  H51      1.0000 0.19850  0.11120  0.88380  Biso   1.000  H
  H52      1.0000 0.80150  0.61120  0.61620  Biso   1.000  H
  H53      1.0000 0.65010  0.84260  0.16520  Biso   1.000  H
  H54      1.0000 0.34990  0.34260  0.33480  Biso   1.000  H
  H55      1.0000 0.34990  0.15740  0.83480  Biso   1.000  H
  H56      1.0000 0.65010  0.65740  0.66520  Biso   1.000  H
