data_image0
_cell_length_a       11.284
_cell_length_b       13.548
_cell_length_c       14.243
_cell_angle_alpha    90
_cell_angle_beta     102.41
_cell_angle_gamma    90

_symmetry_space_group_name_H-M    "P 1"
_symmetry_int_tables_number       1

loop_
  _symmetry_equiv_pos_as_xyz
  'x, y, z'

loop_
  _atom_site_label
  _atom_site_occupancy
  _atom_site_fract_x
  _atom_site_fract_y
  _atom_site_fract_z
  _atom_site_thermal_displace_type
  _atom_site_B_iso_or_equiv
  _atom_site_type_symbol
  Hg1      1.0000 0.40809  0.57525  0.41329  Biso   1.000  Hg
  Hg2      1.0000 0.90809  0.42475  0.91329  Biso   1.000  Hg
  S1       1.0000 0.48665  0.52783  0.58983  Biso   1.000  S
  S2       1.0000 0.98665  0.47217  0.08983  Biso   1.000  S
  N1       1.0000 0.33200  0.37540  0.61620  Biso   1.000  N
  N2       1.0000 0.83200  0.62460  0.11620  Biso   1.000  N
  C1       1.0000 0.39340  0.43780  0.60300  Biso   1.000  C
  C2       1.0000 0.89340  0.56220  0.10300  Biso   1.000  C
  S3       1.0000 0.57630  0.48528  0.34513  Biso   1.000  S
  S4       1.0000 0.07630  0.51472  0.84513  Biso   1.000  S
  C3       1.0000 0.63260  0.57310  0.28880  Biso   1.000  C
  C4       1.0000 0.13260  0.42690  0.78880  Biso   1.000  C
  N3       1.0000 0.67710  0.63130  0.24860  Biso   1.000  N
  N4       1.0000 0.17710  0.36870  0.74860  Biso   1.000  N
  S5       1.0000 0.20876  0.51014  0.33300  Biso   1.000  S
  S6       1.0000 0.70876  0.48986  0.83300  Biso   1.000  S
  C5       1.0000 0.25630  0.40940  0.28650  Biso   1.000  C
  C6       1.0000 0.75630  0.59060  0.78650  Biso   1.000  C
  N5       1.0000 0.28880  0.34140  0.25280  Biso   1.000  N
  N6       1.0000 0.78880  0.65860  0.75280  Biso   1.000  N
  S7       1.0000 0.45074  0.75746  0.41505  Biso   1.000  S
  S8       1.0000 0.95074  0.24254  0.91505  Biso   1.000  S
  C7       1.0000 0.58080  0.75010  0.49370  Biso   1.000  C
  C8       1.0000 0.08080  0.24990  0.99370  Biso   1.000  C
  N7       1.0000 0.67040  0.74330  0.54870  Biso   1.000  N
  N8       1.0000 0.17040  0.25670  0.04870  Biso   1.000  N
  Hg3      1.0000 0.18292  0.93649  0.41664  Biso   1.000  Hg
  Hg4      1.0000 0.68292  0.06351  0.91664  Biso   1.000  Hg
  S9       1.0000 0.13506  0.96219  0.23204  Biso   1.000  S
  S10      1.0000 0.63506  0.03781  0.73204  Biso   1.000  S
  C9       1.0000 0.21470  0.06150  0.21940  Biso   1.000  C
  C10      1.0000 0.71470  0.93850  0.71940  Biso   1.000  C
  N9       1.0000 0.27190  0.12740  0.20640  Biso   1.000  N
  N10      1.0000 0.77190  0.87260  0.70640  Biso   1.000  N
  S11      1.0000 0.50340  0.98145  0.96757  Biso   1.000  S
  S12      1.0000 0.00340  0.01855  0.46757  Biso   1.000  S
  C11      1.0000 0.44390  0.07610  0.01380  Biso   1.000  C
  C12      1.0000 0.94390  0.92390  0.51380  Biso   1.000  C
  N11      1.0000 0.40100  0.13960  0.04690  Biso   1.000  N
  N12      1.0000 0.90100  0.86040  0.54690  Biso   1.000  N
  S13      1.0000 0.38250  0.00726  0.49479  Biso   1.000  S
  S14      1.0000 0.88250  0.99274  0.99479  Biso   1.000  S
  C13      1.0000 0.33710  0.10070  0.55420  Biso   1.000  C
  C14      1.0000 0.83710  0.89930  0.05420  Biso   1.000  C
  N13      1.0000 0.31230  0.16490  0.59730  Biso   1.000  N
  N14      1.0000 0.81230  0.83510  0.09730  Biso   1.000  N
  S15      1.0000 0.65140  0.24750  0.92320  Biso   1.000  S
  S16      1.0000 0.15140  0.75250  0.42320  Biso   1.000  S
  C15      1.0000 0.51580  0.25100  0.84890  Biso   1.000  C
  C16      1.0000 0.01580  0.74900  0.34890  Biso   1.000  C
  N15      1.0000 0.42380  0.25410  0.79810  Biso   1.000  N
  N16      1.0000 0.92380  0.74590  0.29810  Biso   1.000  N
  Cu1      1.0000 0.25382  0.26850  0.67736  Biso   1.000  Cu
  Cu2      1.0000 0.75382  0.73150  0.17736  Biso   1.000  Cu
  N17      1.0000 0.15790  0.16350  0.72840  Biso   1.000  N
  N18      1.0000 0.65790  0.83650  0.22840  Biso   1.000  N
  C17      1.0000 0.20920  0.10320  0.79850  Biso   1.000  C
  C18      1.0000 0.70920  0.89680  0.29850  Biso   1.000  C
  H1       1.0000 0.29070  0.11280  0.82690  Biso   1.000  H
  H2       1.0000 0.79070  0.88720  0.32690  Biso   1.000  H
  C19      1.0000 0.14820  0.02640  0.83210  Biso   1.000  C
  C20      1.0000 0.64820  0.97360  0.33210  Biso   1.000  C
  H3       1.0000 0.18700  0.98580  0.88200  Biso   1.000  H
  H4       1.0000 0.68700  0.01420  0.38200  Biso   1.000  H
  C21      1.0000 0.03040  0.01290  0.78950  Biso   1.000  C
  C22      1.0000 0.53040  0.98710  0.28950  Biso   1.000  C
  H5       1.0000 0.98700  0.96090  0.80830  Biso   1.000  H
  H6       1.0000 0.48700  0.03910  0.30830  Biso   1.000  H
  C23      1.0000 0.97510  0.07550  0.71910  Biso   1.000  C
  C24      1.0000 0.47510  0.92450  0.21910  Biso   1.000  C
  H7       1.0000 0.89350  0.06670  0.69080  Biso   1.000  H
  H8       1.0000 0.39350  0.93330  0.19080  Biso   1.000  H
  C25      1.0000 0.03870  0.15200  0.68910  Biso   1.000  C
  C26      1.0000 0.53870  0.84800  0.18910  Biso   1.000  C
  C27      1.0000 0.98660  0.21840  0.60840  Biso   1.000  C
  C28      1.0000 0.48660  0.78160  0.10840  Biso   1.000  C
  O1       1.0000 0.05340  0.26250  0.56620  Biso   1.000  O
  O2       1.0000 0.55340  0.73750  0.06620  Biso   1.000  O
  C29      1.0000 0.85160  0.23190  0.58070  Biso   1.000  C
  C30      1.0000 0.35160  0.76810  0.08070  Biso   1.000  C
  C31      1.0000 0.78500  0.25530  0.64820  Biso   1.000  C
  C32      1.0000 0.28500  0.74470  0.14820  Biso   1.000  C
  H9       1.0000 0.82370  0.25860  0.71270  Biso   1.000  H
  H10      1.0000 0.32370  0.74140  0.21270  Biso   1.000  H
  C33      1.0000 0.66370  0.27390  0.62220  Biso   1.000  C
  C34      1.0000 0.16370  0.72610  0.12220  Biso   1.000  C
  H11      1.0000 0.62090  0.29370  0.66800  Biso   1.000  H
  H12      1.0000 0.12090  0.70630  0.16800  Biso   1.000  H
  C35      1.0000 0.60490  0.26270  0.52700  Biso   1.000  C
  C36      1.0000 0.10490  0.73730  0.02700  Biso   1.000  C
  H13      1.0000 0.52150  0.27180  0.50880  Biso   1.000  H
  H14      1.0000 0.02150  0.72820  0.00880  Biso   1.000  H
  C37      1.0000 0.67000  0.23830  0.45980  Biso   1.000  C
  C38      1.0000 0.17000  0.76170  0.95980  Biso   1.000  C
  H15      1.0000 0.63020  0.23120  0.39580  Biso   1.000  H
  H16      1.0000 0.13020  0.76880  0.89580  Biso   1.000  H
  C39      1.0000 0.79400  0.22400  0.48550  Biso   1.000  C
  C40      1.0000 0.29400  0.77600  0.98550  Biso   1.000  C
  H17      1.0000 0.83800  0.20920  0.43910  Biso   1.000  H
  H18      1.0000 0.33800  0.79080  0.93910  Biso   1.000  H
  Cu3      1.0000 0.33396  0.24210  0.14842  Biso   1.000  Cu
  Cu4      1.0000 0.83396  0.75790  0.64842  Biso   1.000  Cu
  N19      1.0000 0.41370  0.35700  0.09630  Biso   1.000  N
  N20      1.0000 0.91370  0.64300  0.59630  Biso   1.000  N
  C41      1.0000 0.35200  0.42680  0.04190  Biso   1.000  C
  C42      1.0000 0.85200  0.57320  0.54190  Biso   1.000  C
  H19      1.0000 0.26770  0.42380  0.02720  Biso   1.000  H
  H20      1.0000 0.76770  0.57620  0.52720  Biso   1.000  H
  C43      1.0000 0.40800  0.50320  0.00660  Biso   1.000  C
  C44      1.0000 0.90800  0.49680  0.50660  Biso   1.000  C
  H21      1.0000 0.36210  0.55240  0.97030  Biso   1.000  H
  H22      1.0000 0.86210  0.44760  0.47030  Biso   1.000  H
  C45      1.0000 0.53360  0.50720  0.02500  Biso   1.000  C
  C46      1.0000 0.03360  0.49280  0.52500  Biso   1.000  C
  H23      1.0000 0.57340  0.55760  0.00000  Biso   1.000  H
  H24      1.0000 0.07340  0.44240  0.50000  Biso   1.000  H
  C47      1.0000 0.59730  0.43480  0.08120  Biso   1.000  C
  C48      1.0000 0.09730  0.56520  0.58120  Biso   1.000  C
  H25      1.0000 0.68160  0.43420  0.09410  Biso   1.000  H
  H26      1.0000 0.18160  0.56580  0.59410  Biso   1.000  H
  C49      1.0000 0.53390  0.36210  0.11870  Biso   1.000  C
  C50      1.0000 0.03390  0.63790  0.61870  Biso   1.000  C
  C51      1.0000 0.59160  0.28210  0.18650  Biso   1.000  C
  C52      1.0000 0.09160  0.71790  0.68650  Biso   1.000  C
  O3       1.0000 0.52470  0.22590  0.21750  Biso   1.000  O
  O4       1.0000 0.02470  0.77410  0.71750  Biso   1.000  O
  C53      1.0000 0.72490  0.26740  0.21380  Biso   1.000  C
  C54      1.0000 0.22490  0.73260  0.71380  Biso   1.000  C
  C55      1.0000 0.76610  0.17440  0.20140  Biso   1.000  C
  C56      1.0000 0.26610  0.82560  0.70140  Biso   1.000  C
  H27      1.0000 0.71150  0.12540  0.17480  Biso   1.000  H
  H28      1.0000 0.21150  0.87460  0.67480  Biso   1.000  H
  C57      1.0000 0.88830  0.15290  0.22800  Biso   1.000  C
  C58      1.0000 0.38830  0.84710  0.72800  Biso   1.000  C
  H29      1.0000 0.91650  0.08920  0.22180  Biso   1.000  H
  H30      1.0000 0.41650  0.91080  0.72180  Biso   1.000  H
  C59      1.0000 0.96730  0.22780  0.26390  Biso   1.000  C
  C60      1.0000 0.46730  0.77220  0.76390  Biso   1.000  C
  H31      1.0000 0.05010  0.21460  0.28010  Biso   1.000  H
  H32      1.0000 0.55010  0.78540  0.78010  Biso   1.000  H
  C61      1.0000 0.92740  0.32110  0.27650  Biso   1.000  C
  C62      1.0000 0.42740  0.67890  0.77650  Biso   1.000  C
  H33      1.0000 0.98180  0.37040  0.30300  Biso   1.000  H
  H34      1.0000 0.48180  0.62960  0.80300  Biso   1.000  H
  C63      1.0000 0.80470  0.34080  0.24910  Biso   1.000  C
  C64      1.0000 0.30470  0.65920  0.74910  Biso   1.000  C
  H35      1.0000 0.77640  0.40460  0.25460  Biso   1.000  H
  H36      1.0000 0.27640  0.59540  0.75460  Biso   1.000  H
