data_image0
_cell_length_a       14.057
_cell_length_b       11.091
_cell_length_c       9.341
_cell_angle_alpha    90
_cell_angle_beta     92.149
_cell_angle_gamma    90

_symmetry_space_group_name_H-M    "P 1"
_symmetry_int_tables_number       1

loop_
  _symmetry_equiv_pos_as_xyz
  'x, y, z'

loop_
  _atom_site_label
  _atom_site_occupancy
  _atom_site_fract_x
  _atom_site_fract_y
  _atom_site_fract_z
  _atom_site_thermal_displace_type
  _atom_site_B_iso_or_equiv
  _atom_site_type_symbol
  Cu1      1.0000 0.34611  0.21748  0.21546  Biso   1.000  Cu
  Cu2      1.0000 0.65389  0.71748  0.28454  Biso   1.000  Cu
  Cu3      1.0000 0.65389  0.78252  0.78454  Biso   1.000  Cu
  Cu4      1.0000 0.34611  0.28252  0.71546  Biso   1.000  Cu
  O1       1.0000 0.33721  0.05034  0.31210  Biso   1.000  O
  O2       1.0000 0.66279  0.55034  0.18790  Biso   1.000  O
  O3       1.0000 0.66279  0.94966  0.68790  Biso   1.000  O
  O4       1.0000 0.33721  0.44966  0.81210  Biso   1.000  O
  O5       1.0000 0.00270  0.69390  0.19350  Biso   1.000  O
  O6       1.0000 0.99730  0.19390  0.30650  Biso   1.000  O
  O7       1.0000 0.99730  0.30610  0.80650  Biso   1.000  O
  O8       1.0000 0.00270  0.80610  0.69350  Biso   1.000  O
  O9       1.0000 0.08570  0.59280  0.35170  Biso   1.000  O
  O10      1.0000 0.91430  0.09280  0.14830  Biso   1.000  O
  O11      1.0000 0.91430  0.40720  0.64830  Biso   1.000  O
  O12      1.0000 0.08570  0.90720  0.85170  Biso   1.000  O
  O13      1.0000 0.46402  0.18082  0.11310  Biso   1.000  O
  O14      1.0000 0.53598  0.68082  0.38690  Biso   1.000  O
  O15      1.0000 0.53598  0.81918  0.88690  Biso   1.000  O
  O16      1.0000 0.46402  0.31918  0.61310  Biso   1.000  O
  O17      1.0000 0.38373  0.22285  0.91396  Biso   1.000  O
  O18      1.0000 0.61627  0.72285  0.58604  Biso   1.000  O
  O19      1.0000 0.61627  0.77715  0.08604  Biso   1.000  O
  O20      1.0000 0.38373  0.27715  0.41396  Biso   1.000  O
  N1       1.0000 0.21186  0.18230  0.12900  Biso   1.000  N
  N2       1.0000 0.78814  0.68230  0.37100  Biso   1.000  N
  N3       1.0000 0.78814  0.81770  0.87100  Biso   1.000  N
  N4       1.0000 0.21186  0.31770  0.62900  Biso   1.000  N
  N5       1.0000 0.30670  0.39880  0.14300  Biso   1.000  N
  N6       1.0000 0.69330  0.89880  0.35700  Biso   1.000  N
  N7       1.0000 0.69330  0.60120  0.85700  Biso   1.000  N
  N8       1.0000 0.30670  0.10120  0.64300  Biso   1.000  N
  N9       1.0000 0.07209  0.68220  0.27520  Biso   1.000  N
  N10      1.0000 0.92791  0.18220  0.22480  Biso   1.000  N
  N11      1.0000 0.92791  0.31780  0.72480  Biso   1.000  N
  N12      1.0000 0.07209  0.81780  0.77520  Biso   1.000  N
  C1       1.0000 0.18825  0.97890  0.21340  Biso   1.000  C
  C2       1.0000 0.81175  0.47890  0.28660  Biso   1.000  C
  C3       1.0000 0.81175  0.02110  0.78660  Biso   1.000  C
  C4       1.0000 0.18825  0.52110  0.71340  Biso   1.000  C
  C5       1.0000 0.27492  0.96770  0.29900  Biso   1.000  C
  C6       1.0000 0.72508  0.46770  0.20100  Biso   1.000  C
  C7       1.0000 0.72508  0.03230  0.70100  Biso   1.000  C
  C8       1.0000 0.27492  0.53230  0.79900  Biso   1.000  C
  C9       1.0000 0.28740  0.85770  0.37500  Biso   1.000  C
  C10      1.0000 0.71260  0.35770  0.12500  Biso   1.000  C
  C11      1.0000 0.71260  0.14230  0.62500  Biso   1.000  C
  C12      1.0000 0.28740  0.64230  0.87500  Biso   1.000  C
  H1       1.0000 0.34270  0.84740  0.43140  Biso   1.000  H
  H2       1.0000 0.65730  0.34740  0.06860  Biso   1.000  H
  H3       1.0000 0.65730  0.15260  0.56860  Biso   1.000  H
  H4       1.0000 0.34270  0.65260  0.93140  Biso   1.000  H
  C13      1.0000 0.22260  0.76660  0.36960  Biso   1.000  C
  C14      1.0000 0.77740  0.26660  0.13040  Biso   1.000  C
  C15      1.0000 0.77740  0.23340  0.63040  Biso   1.000  C
  C16      1.0000 0.22260  0.73340  0.86960  Biso   1.000  C
  H5       1.0000 0.23320  0.69630  0.42220  Biso   1.000  H
  H6       1.0000 0.76680  0.19630  0.07780  Biso   1.000  H
  H7       1.0000 0.76680  0.30370  0.57780  Biso   1.000  H
  H8       1.0000 0.23320  0.80370  0.92220  Biso   1.000  H
  C17      1.0000 0.14060  0.78040  0.28410  Biso   1.000  C
  C18      1.0000 0.85940  0.28040  0.21590  Biso   1.000  C
  C19      1.0000 0.85940  0.21960  0.71590  Biso   1.000  C
  C20      1.0000 0.14060  0.71960  0.78410  Biso   1.000  C
  C21      1.0000 0.12378  0.88380  0.20830  Biso   1.000  C
  C22      1.0000 0.87622  0.38380  0.29170  Biso   1.000  C
  C23      1.0000 0.87622  0.11620  0.79170  Biso   1.000  C
  C24      1.0000 0.12378  0.61620  0.70830  Biso   1.000  C
  H9       1.0000 0.06810  0.89080  0.15200  Biso   1.000  H
  H10      1.0000 0.93190  0.39080  0.34800  Biso   1.000  H
  H11      1.0000 0.93190  0.10920  0.84800  Biso   1.000  H
  H12      1.0000 0.06810  0.60920  0.65200  Biso   1.000  H
  C25      1.0000 0.16244  0.08630  0.13460  Biso   1.000  C
  C26      1.0000 0.83756  0.58630  0.36540  Biso   1.000  C
  C27      1.0000 0.83756  0.91370  0.86540  Biso   1.000  C
  C28      1.0000 0.16244  0.41370  0.63460  Biso   1.000  C
  H13      1.0000 0.10450  0.08550  0.08310  Biso   1.000  H
  H14      1.0000 0.89550  0.58550  0.41690  Biso   1.000  H
  H15      1.0000 0.89550  0.91450  0.91690  Biso   1.000  H
  H16      1.0000 0.10450  0.41450  0.58310  Biso   1.000  H
  C29      1.0000 0.17140  0.28620  0.04940  Biso   1.000  C
  C30      1.0000 0.82860  0.78620  0.45060  Biso   1.000  C
  C31      1.0000 0.82860  0.71380  0.95060  Biso   1.000  C
  C32      1.0000 0.17140  0.21380  0.54940  Biso   1.000  C
  H17      1.0000 0.10250  0.28170  0.04590  Biso   1.000  H
  H18      1.0000 0.89750  0.78170  0.45410  Biso   1.000  H
  H19      1.0000 0.89750  0.71830  0.95410  Biso   1.000  H
  H20      1.0000 0.10250  0.21830  0.54590  Biso   1.000  H
  H21      1.0000 0.19300  0.28590  0.95200  Biso   1.000  H
  H22      1.0000 0.80700  0.78590  0.54800  Biso   1.000  H
  H23      1.0000 0.80700  0.71410  0.04800  Biso   1.000  H
  H24      1.0000 0.19300  0.21410  0.45200  Biso   1.000  H
  C33      1.0000 0.20320  0.39800  0.12370  Biso   1.000  C
  C34      1.0000 0.79680  0.89800  0.37630  Biso   1.000  C
  C35      1.0000 0.79680  0.60200  0.87630  Biso   1.000  C
  C36      1.0000 0.20320  0.10200  0.62370  Biso   1.000  C
  H25      1.0000 0.18270  0.46770  0.06770  Biso   1.000  H
  H26      1.0000 0.81730  0.96770  0.43230  Biso   1.000  H
  H27      1.0000 0.81730  0.53230  0.93230  Biso   1.000  H
  H28      1.0000 0.18270  0.03230  0.56770  Biso   1.000  H
  H29      1.0000 0.17450  0.40290  0.21630  Biso   1.000  H
  H30      1.0000 0.82550  0.90290  0.28370  Biso   1.000  H
  H31      1.0000 0.82550  0.59710  0.78370  Biso   1.000  H
  H32      1.0000 0.17450  0.09710  0.71630  Biso   1.000  H
  C37      1.0000 0.34290  0.50390  0.22740  Biso   1.000  C
  C38      1.0000 0.65710  0.00390  0.27260  Biso   1.000  C
  C39      1.0000 0.65710  0.49610  0.77260  Biso   1.000  C
  C40      1.0000 0.34290  0.99610  0.72740  Biso   1.000  C
  H33      1.0000 0.31000  0.57540  0.19560  Biso   1.000  H
  H34      1.0000 0.69000  0.07540  0.30440  Biso   1.000  H
  H35      1.0000 0.69000  0.42460  0.80440  Biso   1.000  H
  H36      1.0000 0.31000  0.92460  0.69560  Biso   1.000  H
  H37      1.0000 0.40990  0.51330  0.21390  Biso   1.000  H
  H38      1.0000 0.59010  0.01330  0.28610  Biso   1.000  H
  H39      1.0000 0.59010  0.48670  0.78610  Biso   1.000  H
  H40      1.0000 0.40990  0.98670  0.71390  Biso   1.000  H
  H41      1.0000 0.33220  0.49090  0.32710  Biso   1.000  H
  H42      1.0000 0.66780  0.99090  0.17290  Biso   1.000  H
  H43      1.0000 0.66780  0.50910  0.67290  Biso   1.000  H
  H44      1.0000 0.33220  0.00910  0.82710  Biso   1.000  H
  C41      1.0000 0.54490  0.15790  0.89800  Biso   1.000  C
  C42      1.0000 0.45510  0.65790  0.60200  Biso   1.000  C
  C43      1.0000 0.45510  0.84210  0.10200  Biso   1.000  C
  C44      1.0000 0.54490  0.34210  0.39800  Biso   1.000  C
  H45      1.0000 0.53700  0.07870  0.85790  Biso   1.000  H
  H46      1.0000 0.46300  0.57870  0.64210  Biso   1.000  H
  H47      1.0000 0.46300  0.92130  0.14210  Biso   1.000  H
  H48      1.0000 0.53700  0.42130  0.35790  Biso   1.000  H
  H49      1.0000 0.60000  0.15900  0.96190  Biso   1.000  H
  H50      1.0000 0.40000  0.65900  0.53810  Biso   1.000  H
  H51      1.0000 0.40000  0.84100  0.03810  Biso   1.000  H
  H52      1.0000 0.60000  0.34100  0.46190  Biso   1.000  H
  H53      1.0000 0.55300  0.21520  0.82240  Biso   1.000  H
  H54      1.0000 0.44700  0.71520  0.67760  Biso   1.000  H
  H55      1.0000 0.44700  0.78480  0.17760  Biso   1.000  H
  H56      1.0000 0.55300  0.28480  0.32240  Biso   1.000  H
  C45      1.0000 0.45862  0.19040  0.97890  Biso   1.000  C
  C46      1.0000 0.54138  0.69040  0.52110  Biso   1.000  C
  C47      1.0000 0.54138  0.80960  0.02110  Biso   1.000  C
  C48      1.0000 0.45862  0.30960  0.47890  Biso   1.000  C
  H57      1.0000 0.33100  0.40400  0.05510  Biso   1.000  H
  H58      1.0000 0.66900  0.90400  0.44490  Biso   1.000  H
  H59      1.0000 0.66900  0.59600  0.94490  Biso   1.000  H
  H60      1.0000 0.33100  0.09600  0.55510  Biso   1.000  H
