data_image0
_cell_length_a       8.793
_cell_length_b       10.155
_cell_length_c       18.705
_cell_angle_alpha    90
_cell_angle_beta     94.805
_cell_angle_gamma    90

_symmetry_space_group_name_H-M    "P 1"
_symmetry_int_tables_number       1

loop_
  _symmetry_equiv_pos_as_xyz
  'x, y, z'

loop_
  _atom_site_label
  _atom_site_occupancy
  _atom_site_fract_x
  _atom_site_fract_y
  _atom_site_fract_z
  _atom_site_thermal_displace_type
  _atom_site_B_iso_or_equiv
  _atom_site_type_symbol
  Cu1      1.0000 0.33882  0.75119  0.19554  Biso   1.000  Cu
  Cu2      1.0000 0.66118  0.25119  0.30446  Biso   1.000  Cu
  Cu3      1.0000 0.66118  0.24881  0.80446  Biso   1.000  Cu
  Cu4      1.0000 0.33882  0.74881  0.69554  Biso   1.000  Cu
  S1       1.0000 0.60049  0.79502  0.27672  Biso   1.000  S
  S2       1.0000 0.39951  0.29502  0.22328  Biso   1.000  S
  S3       1.0000 0.39951  0.20498  0.72328  Biso   1.000  S
  S4       1.0000 0.60049  0.70498  0.77672  Biso   1.000  S
  N1       1.0000 0.19810  0.76830  0.27646  Biso   1.000  N
  N2       1.0000 0.80190  0.26830  0.22354  Biso   1.000  N
  N3       1.0000 0.80190  0.23170  0.72354  Biso   1.000  N
  N4       1.0000 0.19810  0.73170  0.77646  Biso   1.000  N
  N5       1.0000 0.28740  0.93630  0.18677  Biso   1.000  N
  N6       1.0000 0.71260  0.43630  0.31323  Biso   1.000  N
  N7       1.0000 0.71260  0.06370  0.81323  Biso   1.000  N
  N8       1.0000 0.28740  0.56370  0.68677  Biso   1.000  N
  N9       1.0000 0.41010  0.77850  0.09516  Biso   1.000  N
  N10      1.0000 0.58990  0.27850  0.40484  Biso   1.000  N
  N11      1.0000 0.58990  0.22150  0.90484  Biso   1.000  N
  N12      1.0000 0.41010  0.72150  0.59516  Biso   1.000  N
  N13      1.0000 0.62750  0.06450  0.29453  Biso   1.000  N
  N14      1.0000 0.37250  0.56450  0.20547  Biso   1.000  N
  N15      1.0000 0.37250  0.93550  0.70547  Biso   1.000  N
  N16      1.0000 0.62750  0.43550  0.79453  Biso   1.000  N
  C1       1.0000 0.14640  0.89220  0.28384  Biso   1.000  C
  C2       1.0000 0.85360  0.39220  0.21616  Biso   1.000  C
  C3       1.0000 0.85360  0.10780  0.71616  Biso   1.000  C
  C4       1.0000 0.14640  0.60780  0.78384  Biso   1.000  C
  C5       1.0000 0.04710  0.92600  0.33304  Biso   1.000  C
  C6       1.0000 0.95290  0.42600  0.16696  Biso   1.000  C
  C7       1.0000 0.95290  0.07400  0.66696  Biso   1.000  C
  C8       1.0000 0.04710  0.57400  0.83304  Biso   1.000  C
  H1       1.0000 0.01310  0.01240  0.33650  Biso   1.000  H
  H2       1.0000 0.98690  0.51240  0.16350  Biso   1.000  H
  H3       1.0000 0.98690  0.98760  0.66350  Biso   1.000  H
  H4       1.0000 0.01310  0.48760  0.83650  Biso   1.000  H
  C9       1.0000 0.99780  0.82850  0.37790  Biso   1.000  C
  C10      1.0000 0.00220  0.32850  0.12210  Biso   1.000  C
  C11      1.0000 0.00220  0.17150  0.62210  Biso   1.000  C
  C12      1.0000 0.99780  0.67150  0.87790  Biso   1.000  C
  H5       1.0000 0.92940  0.84810  0.41170  Biso   1.000  H
  H6       1.0000 0.07060  0.34810  0.08830  Biso   1.000  H
  H7       1.0000 0.07060  0.15190  0.58830  Biso   1.000  H
  H8       1.0000 0.92940  0.65190  0.91170  Biso   1.000  H
  C13      1.0000 0.05170  0.70350  0.37138  Biso   1.000  C
  C14      1.0000 0.94830  0.20350  0.12862  Biso   1.000  C
  C15      1.0000 0.94830  0.29650  0.62862  Biso   1.000  C
  C16      1.0000 0.05170  0.79650  0.87138  Biso   1.000  C
  H9       1.0000 0.02140  0.63710  0.40140  Biso   1.000  H
  H10      1.0000 0.97860  0.13710  0.09860  Biso   1.000  H
  H11      1.0000 0.97860  0.36290  0.59860  Biso   1.000  H
  H12      1.0000 0.02140  0.86290  0.90140  Biso   1.000  H
  C17      1.0000 0.15120  0.67590  0.32024  Biso   1.000  C
  C18      1.0000 0.84880  0.17590  0.17976  Biso   1.000  C
  C19      1.0000 0.84880  0.32410  0.67976  Biso   1.000  C
  C20      1.0000 0.15120  0.82410  0.82024  Biso   1.000  C
  H13      1.0000 0.18660  0.59020  0.31610  Biso   1.000  H
  H14      1.0000 0.81340  0.09020  0.18390  Biso   1.000  H
  H15      1.0000 0.81340  0.40980  0.68390  Biso   1.000  H
  H16      1.0000 0.18660  0.90980  0.81610  Biso   1.000  H
  C21      1.0000 0.20230  0.98430  0.23142  Biso   1.000  C
  C22      1.0000 0.79770  0.48430  0.26858  Biso   1.000  C
  C23      1.0000 0.79770  0.01570  0.76858  Biso   1.000  C
  C24      1.0000 0.20230  0.51570  0.73142  Biso   1.000  C
  H17      1.0000 0.17660  0.07310  0.23110  Biso   1.000  H
  H18      1.0000 0.82340  0.57310  0.26890  Biso   1.000  H
  H19      1.0000 0.82340  0.92690  0.76890  Biso   1.000  H
  H20      1.0000 0.17660  0.42690  0.73110  Biso   1.000  H
  C25      1.0000 0.34700  0.00290  0.12656  Biso   1.000  C
  C26      1.0000 0.65300  0.50290  0.37344  Biso   1.000  C
  C27      1.0000 0.65300  0.99710  0.87344  Biso   1.000  C
  C28      1.0000 0.34700  0.49710  0.62656  Biso   1.000  C
  H21      1.0000 0.45130  0.03130  0.13880  Biso   1.000  H
  H22      1.0000 0.54870  0.53130  0.36120  Biso   1.000  H
  H23      1.0000 0.54870  0.96870  0.86120  Biso   1.000  H
  H24      1.0000 0.45130  0.46870  0.63880  Biso   1.000  H
  H25      1.0000 0.28530  0.07930  0.11260  Biso   1.000  H
  H26      1.0000 0.71470  0.57930  0.38740  Biso   1.000  H
  H27      1.0000 0.71470  0.92070  0.88740  Biso   1.000  H
  H28      1.0000 0.28530  0.42070  0.61260  Biso   1.000  H
  C29      1.0000 0.34030  0.90280  0.06662  Biso   1.000  C
  C30      1.0000 0.65970  0.40280  0.43338  Biso   1.000  C
  C31      1.0000 0.65970  0.09720  0.93338  Biso   1.000  C
  C32      1.0000 0.34030  0.59720  0.56662  Biso   1.000  C
  H29      1.0000 0.23510  0.88750  0.04860  Biso   1.000  H
  H30      1.0000 0.76490  0.38750  0.45140  Biso   1.000  H
  H31      1.0000 0.76490  0.11250  0.95140  Biso   1.000  H
  H32      1.0000 0.23510  0.61250  0.54860  Biso   1.000  H
  H33      1.0000 0.39560  0.93520  0.02740  Biso   1.000  H
  H34      1.0000 0.60440  0.43520  0.47260  Biso   1.000  H
  H35      1.0000 0.60440  0.06480  0.97260  Biso   1.000  H
  H36      1.0000 0.39560  0.56480  0.52740  Biso   1.000  H
  C33      1.0000 0.39300  0.66490  0.04386  Biso   1.000  C
  C34      1.0000 0.60700  0.16490  0.45614  Biso   1.000  C
  C35      1.0000 0.60700  0.33510  0.95614  Biso   1.000  C
  C36      1.0000 0.39300  0.83510  0.54386  Biso   1.000  C
  H37      1.0000 0.45760  0.59350  0.06450  Biso   1.000  H
  H38      1.0000 0.54240  0.09350  0.43550  Biso   1.000  H
  H39      1.0000 0.54240  0.40650  0.93550  Biso   1.000  H
  H40      1.0000 0.45760  0.90650  0.56450  Biso   1.000  H
  C37      1.0000 0.22980  0.61470  0.03770  Biso   1.000  C
  C38      1.0000 0.77020  0.11470  0.46230  Biso   1.000  C
  C39      1.0000 0.77020  0.38530  0.96230  Biso   1.000  C
  C40      1.0000 0.22980  0.88530  0.53770  Biso   1.000  C
  H41      1.0000 0.20070  0.59220  0.08450  Biso   1.000  H
  H42      1.0000 0.79930  0.09220  0.41550  Biso   1.000  H
  H43      1.0000 0.79930  0.40780  0.91550  Biso   1.000  H
  H44      1.0000 0.20070  0.90780  0.58450  Biso   1.000  H
  H45      1.0000 0.22240  0.53810  0.00750  Biso   1.000  H
  H46      1.0000 0.77760  0.03810  0.49250  Biso   1.000  H
  H47      1.0000 0.77760  0.46190  0.99250  Biso   1.000  H
  H48      1.0000 0.22240  0.96190  0.50750  Biso   1.000  H
  H49      1.0000 0.16300  0.68210  0.01720  Biso   1.000  H
  H50      1.0000 0.83700  0.18210  0.48280  Biso   1.000  H
  H51      1.0000 0.83700  0.31790  0.98280  Biso   1.000  H
  H52      1.0000 0.16300  0.81790  0.51720  Biso   1.000  H
  C41      1.0000 0.44770  0.69670  0.97140  Biso   1.000  C
  C42      1.0000 0.55230  0.19670  0.52860  Biso   1.000  C
  C43      1.0000 0.55230  0.30330  0.02860  Biso   1.000  C
  C44      1.0000 0.44770  0.80330  0.47140  Biso   1.000  C
  H53      1.0000 0.38320  0.76320  0.94830  Biso   1.000  H
  H54      1.0000 0.61680  0.26320  0.55170  Biso   1.000  H
  H55      1.0000 0.61680  0.23680  0.05170  Biso   1.000  H
  H56      1.0000 0.38320  0.73680  0.44830  Biso   1.000  H
  H57      1.0000 0.44380  0.61870  0.94230  Biso   1.000  H
  H58      1.0000 0.55620  0.11870  0.55770  Biso   1.000  H
  H59      1.0000 0.55620  0.38130  0.05770  Biso   1.000  H
  H60      1.0000 0.44380  0.88130  0.44230  Biso   1.000  H
  H61      1.0000 0.55080  0.72850  0.97750  Biso   1.000  H
  H62      1.0000 0.44920  0.22850  0.52250  Biso   1.000  H
  H63      1.0000 0.44920  0.27150  0.02250  Biso   1.000  H
  H64      1.0000 0.55080  0.77150  0.47750  Biso   1.000  H
  C45      1.0000 0.61600  0.95300  0.28690  Biso   1.000  C
  C46      1.0000 0.38400  0.45300  0.21310  Biso   1.000  C
  C47      1.0000 0.38400  0.04700  0.71310  Biso   1.000  C
  C48      1.0000 0.61600  0.54700  0.78690  Biso   1.000  C
  H65      1.0000 0.51020  0.79200  0.10600  Biso   1.000  H
  H66      1.0000 0.48980  0.29200  0.39400  Biso   1.000  H
  H67      1.0000 0.48980  0.20800  0.89400  Biso   1.000  H
  H68      1.0000 0.51020  0.70800  0.60600  Biso   1.000  H
  Cl1      1.0000 0.84341  0.81600  0.08476  Biso   1.000  Cl
  Cl2      1.0000 0.15659  0.31600  0.41524  Biso   1.000  Cl
  Cl3      1.0000 0.15659  0.18400  0.91524  Biso   1.000  Cl
  Cl4      1.0000 0.84341  0.68400  0.58476  Biso   1.000  Cl
  O1       1.0000 0.96220  0.82760  0.13700  Biso   1.000  O
  O2       1.0000 0.03780  0.32760  0.36300  Biso   1.000  O
  O3       1.0000 0.03780  0.17240  0.86300  Biso   1.000  O
  O4       1.0000 0.96220  0.67240  0.63700  Biso   1.000  O
  O5       1.0000 0.78120  0.69190  0.08960  Biso   1.000  O
  O6       1.0000 0.21880  0.19190  0.41040  Biso   1.000  O
  O7       1.0000 0.21880  0.30810  0.91040  Biso   1.000  O
  O8       1.0000 0.78120  0.80810  0.58960  Biso   1.000  O
  O9       1.0000 0.72420  0.90910  0.09366  Biso   1.000  O
  O10      1.0000 0.27580  0.40910  0.40634  Biso   1.000  O
  O11      1.0000 0.27580  0.09090  0.90634  Biso   1.000  O
  O12      1.0000 0.72420  0.59090  0.59366  Biso   1.000  O
  O13      1.0000 0.88910  0.83060  0.01760  Biso   1.000  O
  O14      1.0000 0.11090  0.33060  0.48240  Biso   1.000  O
  O15      1.0000 0.11090  0.16940  0.98240  Biso   1.000  O
  O16      1.0000 0.88910  0.66940  0.51760  Biso   1.000  O
