data_image0
_cell_length_a       10.181
_cell_length_b       14.436
_cell_length_c       12.894
_cell_angle_alpha    90
_cell_angle_beta     112.94
_cell_angle_gamma    90

_symmetry_space_group_name_H-M    "P 1"
_symmetry_int_tables_number       1

loop_
  _symmetry_equiv_pos_as_xyz
  'x, y, z'

loop_
  _atom_site_label
  _atom_site_occupancy
  _atom_site_fract_x
  _atom_site_fract_y
  _atom_site_fract_z
  _atom_site_thermal_displace_type
  _atom_site_B_iso_or_equiv
  _atom_site_type_symbol
  Cu1      1.0000 0.50000  0.19461  0.25000  Biso   1.000  Cu
  Cu2      1.0000 0.00000  0.69461  0.25000  Biso   1.000  Cu
  Cu3      1.0000 0.50000  0.80539  0.75000  Biso   1.000  Cu
  Cu4      1.0000 0.00000  0.30539  0.75000  Biso   1.000  Cu
  O1       1.0000 0.54770  0.28961  0.36461  Biso   1.000  O
  O2       1.0000 0.45230  0.28961  0.13539  Biso   1.000  O
  O3       1.0000 0.04770  0.78961  0.36461  Biso   1.000  O
  O4       1.0000 0.95230  0.78961  0.13539  Biso   1.000  O
  O5       1.0000 0.45230  0.71039  0.63539  Biso   1.000  O
  O6       1.0000 0.54770  0.71039  0.86461  Biso   1.000  O
  O7       1.0000 0.95230  0.21039  0.63539  Biso   1.000  O
  O8       1.0000 0.04770  0.21039  0.86461  Biso   1.000  O
  O9       1.0000 0.32370  0.29128  0.34980  Biso   1.000  O
  O10      1.0000 0.67630  0.29128  0.15020  Biso   1.000  O
  O11      1.0000 0.82370  0.79128  0.34980  Biso   1.000  O
  O12      1.0000 0.17630  0.79128  0.15020  Biso   1.000  O
  O13      1.0000 0.67630  0.70872  0.65020  Biso   1.000  O
  O14      1.0000 0.32370  0.70872  0.84980  Biso   1.000  O
  O15      1.0000 0.17630  0.20872  0.65020  Biso   1.000  O
  O16      1.0000 0.82370  0.20872  0.84980  Biso   1.000  O
  O17      1.0000 0.55470  0.25988  0.60272  Biso   1.000  O
  O18      1.0000 0.44530  0.25988  0.89728  Biso   1.000  O
  O19      1.0000 0.05470  0.75988  0.60272  Biso   1.000  O
  O20      1.0000 0.94530  0.75988  0.89728  Biso   1.000  O
  O21      1.0000 0.44530  0.74012  0.39728  Biso   1.000  O
  O22      1.0000 0.55470  0.74012  0.10272  Biso   1.000  O
  O23      1.0000 0.94530  0.24012  0.39728  Biso   1.000  O
  O24      1.0000 0.05470  0.24012  0.10272  Biso   1.000  O
  O25      1.0000 0.69490  0.35270  0.73635  Biso   1.000  O
  O26      1.0000 0.30510  0.35270  0.76365  Biso   1.000  O
  O27      1.0000 0.19490  0.85270  0.73635  Biso   1.000  O
  O28      1.0000 0.80510  0.85270  0.76365  Biso   1.000  O
  O29      1.0000 0.30510  0.64730  0.26365  Biso   1.000  O
  O30      1.0000 0.69490  0.64730  0.23635  Biso   1.000  O
  O31      1.0000 0.80510  0.14730  0.26365  Biso   1.000  O
  O32      1.0000 0.19490  0.14730  0.23635  Biso   1.000  O
  H1       1.0000 0.72900  0.30300  0.76400  Biso   1.000  H
  H2       1.0000 0.27100  0.30300  0.73600  Biso   1.000  H
  H3       1.0000 0.22900  0.80300  0.76400  Biso   1.000  H
  H4       1.0000 0.77100  0.80300  0.73600  Biso   1.000  H
  H5       1.0000 0.27100  0.69700  0.23600  Biso   1.000  H
  H6       1.0000 0.72900  0.69700  0.26400  Biso   1.000  H
  H7       1.0000 0.77100  0.19700  0.23600  Biso   1.000  H
  H8       1.0000 0.22900  0.19700  0.26400  Biso   1.000  H
  N1       1.0000 0.56690  0.09132  0.35828  Biso   1.000  N
  N2       1.0000 0.43310  0.09132  0.14172  Biso   1.000  N
  N3       1.0000 0.06690  0.59132  0.35828  Biso   1.000  N
  N4       1.0000 0.93310  0.59132  0.14172  Biso   1.000  N
  N5       1.0000 0.43310  0.90868  0.64172  Biso   1.000  N
  N6       1.0000 0.56690  0.90868  0.85828  Biso   1.000  N
  N7       1.0000 0.93310  0.40868  0.64172  Biso   1.000  N
  N8       1.0000 0.06690  0.40868  0.85828  Biso   1.000  N
  C1       1.0000 0.64120  0.09890  0.46910  Biso   1.000  C
  C2       1.0000 0.35880  0.09890  0.03090  Biso   1.000  C
  C3       1.0000 0.14120  0.59890  0.46910  Biso   1.000  C
  C4       1.0000 0.85880  0.59890  0.03090  Biso   1.000  C
  C5       1.0000 0.35880  0.90110  0.53090  Biso   1.000  C
  C6       1.0000 0.64120  0.90110  0.96910  Biso   1.000  C
  C7       1.0000 0.85880  0.40110  0.53090  Biso   1.000  C
  C8       1.0000 0.14120  0.40110  0.96910  Biso   1.000  C
  H9       1.0000 0.66050  0.15750  0.50150  Biso   1.000  H
  H10      1.0000 0.33950  0.15750  0.99850  Biso   1.000  H
  H11      1.0000 0.16050  0.65750  0.50150  Biso   1.000  H
  H12      1.0000 0.83950  0.65750  0.99850  Biso   1.000  H
  H13      1.0000 0.33950  0.84250  0.49850  Biso   1.000  H
  H14      1.0000 0.66050  0.84250  0.00150  Biso   1.000  H
  H15      1.0000 0.83950  0.34250  0.49850  Biso   1.000  H
  H16      1.0000 0.16050  0.34250  0.00150  Biso   1.000  H
  C9       1.0000 0.68990  0.02240  0.53650  Biso   1.000  C
  C10      1.0000 0.31010  0.02240  0.96350  Biso   1.000  C
  C11      1.0000 0.18990  0.52240  0.53650  Biso   1.000  C
  C12      1.0000 0.81010  0.52240  0.96350  Biso   1.000  C
  C13      1.0000 0.31010  0.97760  0.46350  Biso   1.000  C
  C14      1.0000 0.68990  0.97760  0.03650  Biso   1.000  C
  C15      1.0000 0.81010  0.47760  0.46350  Biso   1.000  C
  C16      1.0000 0.18990  0.47760  0.03650  Biso   1.000  C
  H17      1.0000 0.74090  0.02900  0.61360  Biso   1.000  H
  H18      1.0000 0.25910  0.02900  0.88640  Biso   1.000  H
  H19      1.0000 0.24090  0.52900  0.61360  Biso   1.000  H
  H20      1.0000 0.75910  0.52900  0.88640  Biso   1.000  H
  H21      1.0000 0.25910  0.97100  0.38640  Biso   1.000  H
  H22      1.0000 0.74090  0.97100  0.11360  Biso   1.000  H
  H23      1.0000 0.75910  0.47100  0.38640  Biso   1.000  H
  H24      1.0000 0.24090  0.47100  0.11360  Biso   1.000  H
  C17      1.0000 0.66260  0.93610  0.48880  Biso   1.000  C
  C18      1.0000 0.33740  0.93610  0.01120  Biso   1.000  C
  C19      1.0000 0.16260  0.43610  0.48880  Biso   1.000  C
  C20      1.0000 0.83740  0.43610  0.01120  Biso   1.000  C
  C21      1.0000 0.33740  0.06390  0.51120  Biso   1.000  C
  C22      1.0000 0.66260  0.06390  0.98880  Biso   1.000  C
  C23      1.0000 0.83740  0.56390  0.51120  Biso   1.000  C
  C24      1.0000 0.16260  0.56390  0.98880  Biso   1.000  C
  H25      1.0000 0.69440  0.88350  0.53320  Biso   1.000  H
  H26      1.0000 0.30560  0.88350  0.96680  Biso   1.000  H
  H27      1.0000 0.19440  0.38350  0.53320  Biso   1.000  H
  H28      1.0000 0.80560  0.38350  0.96680  Biso   1.000  H
  H29      1.0000 0.30560  0.11650  0.46680  Biso   1.000  H
  H30      1.0000 0.69440  0.11650  0.03320  Biso   1.000  H
  H31      1.0000 0.80560  0.61650  0.46680  Biso   1.000  H
  H32      1.0000 0.19440  0.61650  0.03320  Biso   1.000  H
  C25      1.0000 0.58810  0.92800  0.37520  Biso   1.000  C
  C26      1.0000 0.41190  0.92800  0.12480  Biso   1.000  C
  C27      1.0000 0.08810  0.42800  0.37520  Biso   1.000  C
  C28      1.0000 0.91190  0.42800  0.12480  Biso   1.000  C
  C29      1.0000 0.41190  0.07200  0.62480  Biso   1.000  C
  C30      1.0000 0.58810  0.07200  0.87520  Biso   1.000  C
  C31      1.0000 0.91190  0.57200  0.62480  Biso   1.000  C
  C32      1.0000 0.08810  0.57200  0.87520  Biso   1.000  C
  H33      1.0000 0.56980  0.86980  0.34160  Biso   1.000  H
  H34      1.0000 0.43020  0.86980  0.15840  Biso   1.000  H
  H35      1.0000 0.06980  0.36980  0.34160  Biso   1.000  H
  H36      1.0000 0.93020  0.36980  0.15840  Biso   1.000  H
  H37      1.0000 0.43020  0.13020  0.65840  Biso   1.000  H
  H38      1.0000 0.56980  0.13020  0.84160  Biso   1.000  H
  H39      1.0000 0.93020  0.63020  0.65840  Biso   1.000  H
  H40      1.0000 0.06980  0.63020  0.84160  Biso   1.000  H
  C33      1.0000 0.54040  0.00670  0.31110  Biso   1.000  C
  C34      1.0000 0.45960  0.00670  0.18890  Biso   1.000  C
  C35      1.0000 0.04040  0.50670  0.31110  Biso   1.000  C
  C36      1.0000 0.95960  0.50670  0.18890  Biso   1.000  C
  C37      1.0000 0.45960  0.99330  0.68890  Biso   1.000  C
  C38      1.0000 0.54040  0.99330  0.81110  Biso   1.000  C
  C39      1.0000 0.95960  0.49330  0.68890  Biso   1.000  C
  C40      1.0000 0.04040  0.49330  0.81110  Biso   1.000  C
  C41      1.0000 0.47470  0.41273  0.44850  Biso   1.000  C
  C42      1.0000 0.52530  0.41273  0.05150  Biso   1.000  C
  C43      1.0000 0.97470  0.91273  0.44850  Biso   1.000  C
  C44      1.0000 0.02530  0.91273  0.05150  Biso   1.000  C
  C45      1.0000 0.52530  0.58727  0.55150  Biso   1.000  C
  C46      1.0000 0.47470  0.58727  0.94850  Biso   1.000  C
  C47      1.0000 0.02530  0.08727  0.55150  Biso   1.000  C
  C48      1.0000 0.97470  0.08727  0.94850  Biso   1.000  C
  C49      1.0000 0.54760  0.42041  0.56480  Biso   1.000  C
  C50      1.0000 0.45240  0.42041  0.93520  Biso   1.000  C
  C51      1.0000 0.04760  0.92041  0.56480  Biso   1.000  C
  C52      1.0000 0.95240  0.92041  0.93520  Biso   1.000  C
  C53      1.0000 0.45240  0.57959  0.43520  Biso   1.000  C
  C54      1.0000 0.54760  0.57959  0.06480  Biso   1.000  C
  C55      1.0000 0.95240  0.07959  0.43520  Biso   1.000  C
  C56      1.0000 0.04760  0.07959  0.06480  Biso   1.000  C
  C57      1.0000 0.57130  0.50781  0.61410  Biso   1.000  C
  C58      1.0000 0.42870  0.50781  0.88590  Biso   1.000  C
  C59      1.0000 0.07130  0.00781  0.61410  Biso   1.000  C
  C60      1.0000 0.92870  0.00781  0.88590  Biso   1.000  C
  C61      1.0000 0.42870  0.49219  0.38590  Biso   1.000  C
  C62      1.0000 0.57130  0.49219  0.11410  Biso   1.000  C
  C63      1.0000 0.92870  0.99219  0.38590  Biso   1.000  C
  C64      1.0000 0.07130  0.99219  0.11410  Biso   1.000  C
  H41      1.0000 0.61960  0.51270  0.69170  Biso   1.000  H
  H42      1.0000 0.38040  0.51270  0.80830  Biso   1.000  H
  H43      1.0000 0.11960  0.01270  0.69170  Biso   1.000  H
  H44      1.0000 0.88040  0.01270  0.80830  Biso   1.000  H
  H45      1.0000 0.38040  0.48730  0.30830  Biso   1.000  H
  H46      1.0000 0.61960  0.48730  0.19170  Biso   1.000  H
  H47      1.0000 0.88040  0.98730  0.30830  Biso   1.000  H
  H48      1.0000 0.11960  0.98730  0.19170  Biso   1.000  H
  C65      1.0000 0.44520  0.32233  0.38420  Biso   1.000  C
  C66      1.0000 0.55480  0.32233  0.11580  Biso   1.000  C
  C67      1.0000 0.94520  0.82233  0.38420  Biso   1.000  C
  C68      1.0000 0.05480  0.82233  0.11580  Biso   1.000  C
  C69      1.0000 0.55480  0.67767  0.61580  Biso   1.000  C
  C70      1.0000 0.44520  0.67767  0.88420  Biso   1.000  C
  C71      1.0000 0.05480  0.17767  0.61580  Biso   1.000  C
  C72      1.0000 0.94520  0.17767  0.88420  Biso   1.000  C
  C73      1.0000 0.59750  0.33555  0.63540  Biso   1.000  C
  C74      1.0000 0.40250  0.33555  0.86460  Biso   1.000  C
  C75      1.0000 0.09750  0.83555  0.63540  Biso   1.000  C
  C76      1.0000 0.90250  0.83555  0.86460  Biso   1.000  C
  C77      1.0000 0.40250  0.66445  0.36460  Biso   1.000  C
  C78      1.0000 0.59750  0.66445  0.13540  Biso   1.000  C
  C79      1.0000 0.90250  0.16445  0.36460  Biso   1.000  C
  C80      1.0000 0.09750  0.16445  0.13540  Biso   1.000  C
