data_image0
_cell_length_a       15.744
_cell_length_b       10.7565
_cell_length_c       15.345
_cell_angle_alpha    90
_cell_angle_beta     97.331
_cell_angle_gamma    90

_symmetry_space_group_name_H-M    "P 1"
_symmetry_int_tables_number       1

loop_
  _symmetry_equiv_pos_as_xyz
  'x, y, z'

loop_
  _atom_site_label
  _atom_site_occupancy
  _atom_site_fract_x
  _atom_site_fract_y
  _atom_site_fract_z
  _atom_site_thermal_displace_type
  _atom_site_B_iso_or_equiv
  _atom_site_type_symbol
  Ba1      1.0000 0.14158  0.46700  0.20870  Biso   1.000  Ba
  Ba2      1.0000 0.64158  0.96700  0.20870  Biso   1.000  Ba
  Ba3      1.0000 0.85842  0.46700  0.29130  Biso   1.000  Ba
  Ba4      1.0000 0.35842  0.96700  0.29130  Biso   1.000  Ba
  Ba5      1.0000 0.85842  0.53300  0.79130  Biso   1.000  Ba
  Ba6      1.0000 0.35842  0.03300  0.79130  Biso   1.000  Ba
  Ba7      1.0000 0.14158  0.53300  0.70870  Biso   1.000  Ba
  Ba8      1.0000 0.64158  0.03300  0.70870  Biso   1.000  Ba
  Cu1      1.0000 0.39269  0.42642  0.54454  Biso   1.000  Cu
  Cu2      1.0000 0.89269  0.92642  0.54454  Biso   1.000  Cu
  Cu3      1.0000 0.60731  0.42642  0.95546  Biso   1.000  Cu
  Cu4      1.0000 0.10731  0.92642  0.95546  Biso   1.000  Cu
  Cu5      1.0000 0.60731  0.57358  0.45546  Biso   1.000  Cu
  Cu6      1.0000 0.10731  0.07358  0.45546  Biso   1.000  Cu
  Cu7      1.0000 0.39269  0.57358  0.04454  Biso   1.000  Cu
  Cu8      1.0000 0.89269  0.07358  0.04454  Biso   1.000  Cu
  O1       1.0000 0.32532  0.31452  0.46364  Biso   1.000  O
  O2       1.0000 0.82532  0.81452  0.46364  Biso   1.000  O
  O3       1.0000 0.67468  0.31452  0.03636  Biso   1.000  O
  O4       1.0000 0.17468  0.81452  0.03636  Biso   1.000  O
  O5       1.0000 0.67468  0.68548  0.53636  Biso   1.000  O
  O6       1.0000 0.17468  0.18548  0.53636  Biso   1.000  O
  O7       1.0000 0.32532  0.68548  0.96364  Biso   1.000  O
  O8       1.0000 0.82532  0.18548  0.96364  Biso   1.000  O
  O9       1.0000 0.32797  0.55628  0.47918  Biso   1.000  O
  O10      1.0000 0.82797  0.05628  0.47918  Biso   1.000  O
  O11      1.0000 0.67203  0.55628  0.02082  Biso   1.000  O
  O12      1.0000 0.17203  0.05628  0.02082  Biso   1.000  O
  O13      1.0000 0.67203  0.44372  0.52082  Biso   1.000  O
  O14      1.0000 0.17203  0.94372  0.52082  Biso   1.000  O
  O15      1.0000 0.32797  0.44372  0.97918  Biso   1.000  O
  O16      1.0000 0.82797  0.94372  0.97918  Biso   1.000  O
  O17      1.0000 0.96519  0.20211  0.10073  Biso   1.000  O
  O18      1.0000 0.46519  0.70211  0.10073  Biso   1.000  O
  O19      1.0000 0.03481  0.20211  0.39927  Biso   1.000  O
  O20      1.0000 0.53481  0.70211  0.39927  Biso   1.000  O
  O21      1.0000 0.03481  0.79789  0.89927  Biso   1.000  O
  O22      1.0000 0.53481  0.29789  0.89927  Biso   1.000  O
  O23      1.0000 0.96519  0.79789  0.60073  Biso   1.000  O
  O24      1.0000 0.46519  0.29789  0.60073  Biso   1.000  O
  O25      1.0000 0.97712  0.95898  0.10183  Biso   1.000  O
  O26      1.0000 0.47712  0.45898  0.10183  Biso   1.000  O
  O27      1.0000 0.02288  0.95898  0.39817  Biso   1.000  O
  O28      1.0000 0.52288  0.45898  0.39817  Biso   1.000  O
  O29      1.0000 0.02288  0.04102  0.89817  Biso   1.000  O
  O30      1.0000 0.52288  0.54102  0.89817  Biso   1.000  O
  O31      1.0000 0.97712  0.04102  0.60183  Biso   1.000  O
  O32      1.0000 0.47712  0.54102  0.60183  Biso   1.000  O
  O33      1.0000 0.09239  0.96396  0.20210  Biso   1.000  O
  O34      1.0000 0.59239  0.46396  0.20210  Biso   1.000  O
  O35      1.0000 0.90761  0.96396  0.29790  Biso   1.000  O
  O36      1.0000 0.40761  0.46396  0.29790  Biso   1.000  O
  O37      1.0000 0.90761  0.03604  0.79790  Biso   1.000  O
  O38      1.0000 0.40761  0.53604  0.79790  Biso   1.000  O
  O39      1.0000 0.09239  0.03604  0.70210  Biso   1.000  O
  O40      1.0000 0.59239  0.53604  0.70210  Biso   1.000  O
  O41      1.0000 0.23179  0.57822  0.36098  Biso   1.000  O
  O42      1.0000 0.73179  0.07822  0.36098  Biso   1.000  O
  O43      1.0000 0.76821  0.57822  0.13902  Biso   1.000  O
  O44      1.0000 0.26821  0.07822  0.13902  Biso   1.000  O
  O45      1.0000 0.76821  0.42178  0.63902  Biso   1.000  O
  O46      1.0000 0.26821  0.92178  0.63902  Biso   1.000  O
  O47      1.0000 0.23179  0.42178  0.86098  Biso   1.000  O
  O48      1.0000 0.73179  0.92178  0.86098  Biso   1.000  O
  O49      1.0000 0.23098  0.32494  0.34220  Biso   1.000  O
  O50      1.0000 0.73098  0.82494  0.34220  Biso   1.000  O
  O51      1.0000 0.76902  0.32494  0.15780  Biso   1.000  O
  O52      1.0000 0.26902  0.82494  0.15780  Biso   1.000  O
  O53      1.0000 0.76902  0.67506  0.65780  Biso   1.000  O
  O54      1.0000 0.26902  0.17506  0.65780  Biso   1.000  O
  O55      1.0000 0.23098  0.67506  0.84220  Biso   1.000  O
  O56      1.0000 0.73098  0.17506  0.84220  Biso   1.000  O
  O57      1.0000 0.08384  0.22003  0.19560  Biso   1.000  O
  O58      1.0000 0.58384  0.72003  0.19560  Biso   1.000  O
  O59      1.0000 0.91616  0.22003  0.30440  Biso   1.000  O
  O60      1.0000 0.41616  0.72003  0.30440  Biso   1.000  O
  O61      1.0000 0.91616  0.77997  0.80440  Biso   1.000  O
  O62      1.0000 0.41616  0.27997  0.80440  Biso   1.000  O
  O63      1.0000 0.08384  0.77997  0.69560  Biso   1.000  O
  O64      1.0000 0.58384  0.27997  0.69560  Biso   1.000  O
  C1       1.0000 0.27787  0.51470  0.41412  Biso   1.000  C
  C2       1.0000 0.77787  0.01470  0.41412  Biso   1.000  C
  C3       1.0000 0.72213  0.51470  0.08588  Biso   1.000  C
  C4       1.0000 0.22213  0.01470  0.08588  Biso   1.000  C
  C5       1.0000 0.72213  0.48530  0.58588  Biso   1.000  C
  C6       1.0000 0.22213  0.98530  0.58588  Biso   1.000  C
  C7       1.0000 0.27787  0.48530  0.91412  Biso   1.000  C
  C8       1.0000 0.77787  0.98530  0.91412  Biso   1.000  C
  C9       1.0000 0.02919  0.15860  0.15113  Biso   1.000  C
  C10      1.0000 0.52919  0.65860  0.15113  Biso   1.000  C
  C11      1.0000 0.97081  0.15860  0.34887  Biso   1.000  C
  C12      1.0000 0.47081  0.65860  0.34887  Biso   1.000  C
  C13      1.0000 0.97081  0.84140  0.84887  Biso   1.000  C
  C14      1.0000 0.47081  0.34140  0.84887  Biso   1.000  C
  C15      1.0000 0.02919  0.84140  0.65113  Biso   1.000  C
  C16      1.0000 0.52919  0.34140  0.65113  Biso   1.000  C
  C17      1.0000 0.03447  0.01450  0.15330  Biso   1.000  C
  C18      1.0000 0.53447  0.51450  0.15330  Biso   1.000  C
  C19      1.0000 0.96553  0.01450  0.34670  Biso   1.000  C
  C20      1.0000 0.46553  0.51450  0.34670  Biso   1.000  C
  C21      1.0000 0.96553  0.98550  0.84670  Biso   1.000  C
  C22      1.0000 0.46553  0.48550  0.84670  Biso   1.000  C
  C23      1.0000 0.03447  0.98550  0.65330  Biso   1.000  C
  C24      1.0000 0.53447  0.48550  0.65330  Biso   1.000  C
  C25      1.0000 0.27694  0.37190  0.40448  Biso   1.000  C
  C26      1.0000 0.77694  0.87190  0.40448  Biso   1.000  C
  C27      1.0000 0.72306  0.37190  0.09552  Biso   1.000  C
  C28      1.0000 0.22306  0.87190  0.09552  Biso   1.000  C
  C29      1.0000 0.72306  0.62810  0.59552  Biso   1.000  C
  C30      1.0000 0.22306  0.12810  0.59552  Biso   1.000  C
  C31      1.0000 0.27694  0.62810  0.90448  Biso   1.000  C
  C32      1.0000 0.77694  0.12810  0.90448  Biso   1.000  C
  O65      1.0000 0.29911  0.57403  0.16050  Biso   1.000  O
  O66      1.0000 0.79911  0.07403  0.16050  Biso   1.000  O
  O67      1.0000 0.70089  0.57403  0.33950  Biso   1.000  O
  O68      1.0000 0.20089  0.07403  0.33950  Biso   1.000  O
  O69      1.0000 0.70089  0.42597  0.83950  Biso   1.000  O
  O70      1.0000 0.20089  0.92597  0.83950  Biso   1.000  O
  O71      1.0000 0.29911  0.42597  0.66050  Biso   1.000  O
  O72      1.0000 0.79911  0.92597  0.66050  Biso   1.000  O
  O73      1.0000 0.21699  0.32422  0.09118  Biso   1.000  O
  O74      1.0000 0.71699  0.82422  0.09118  Biso   1.000  O
  O75      1.0000 0.78301  0.32422  0.40882  Biso   1.000  O
  O76      1.0000 0.28301  0.82422  0.40882  Biso   1.000  O
  O77      1.0000 0.78301  0.67578  0.90882  Biso   1.000  O
  O78      1.0000 0.28301  0.17578  0.90882  Biso   1.000  O
  O79      1.0000 0.21699  0.67578  0.59118  Biso   1.000  O
  O80      1.0000 0.71699  0.17578  0.59118  Biso   1.000  O
  O81      1.0000 0.09995  0.58277  0.04541  Biso   1.000  O
  O82      1.0000 0.59995  0.08277  0.04541  Biso   1.000  O
  O83      1.0000 0.90005  0.58277  0.45459  Biso   1.000  O
  O84      1.0000 0.40005  0.08277  0.45459  Biso   1.000  O
  O85      1.0000 0.90005  0.41723  0.95459  Biso   1.000  O
  O86      1.0000 0.40005  0.91723  0.95459  Biso   1.000  O
  O87      1.0000 0.09995  0.41723  0.54541  Biso   1.000  O
  O88      1.0000 0.59995  0.91723  0.54541  Biso   1.000  O
  O89      1.0000 0.09098  0.70700  0.24223  Biso   1.000  O
  O90      1.0000 0.59098  0.20700  0.24223  Biso   1.000  O
  O91      1.0000 0.90902  0.70700  0.25777  Biso   1.000  O
  O92      1.0000 0.40902  0.20700  0.25777  Biso   1.000  O
  O93      1.0000 0.90902  0.29300  0.75777  Biso   1.000  O
  O94      1.0000 0.40902  0.79300  0.75777  Biso   1.000  O
  O95      1.0000 0.09098  0.29300  0.74223  Biso   1.000  O
  O96      1.0000 0.59098  0.79300  0.74223  Biso   1.000  O
  O97      1.0000 0.93221  0.69350  0.05515  Biso   1.000  O
  O98      1.0000 0.43221  0.19350  0.05515  Biso   1.000  O
  O99      1.0000 0.06779  0.69350  0.44485  Biso   1.000  O
  O100     1.0000 0.56779  0.19350  0.44485  Biso   1.000  O
  O101     1.0000 0.06779  0.30650  0.94485  Biso   1.000  O
  O102     1.0000 0.56779  0.80650  0.94485  Biso   1.000  O
  O103     1.0000 0.93221  0.30650  0.55515  Biso   1.000  O
  O104     1.0000 0.43221  0.80650  0.55515  Biso   1.000  O
  O105     1.0000 0.03947  0.45626  0.34874  Biso   1.000  O
  O106     1.0000 0.53947  0.95626  0.34874  Biso   1.000  O
  O107     1.0000 0.96053  0.45626  0.15126  Biso   1.000  O
  O108     1.0000 0.46053  0.95626  0.15126  Biso   1.000  O
  O109     1.0000 0.96053  0.54374  0.65126  Biso   1.000  O
  O110     1.0000 0.46053  0.04374  0.65126  Biso   1.000  O
  O111     1.0000 0.03947  0.54374  0.84874  Biso   1.000  O
  O112     1.0000 0.53947  0.04374  0.84874  Biso   1.000  O
  H1       1.0000 0.28700  0.64800  0.16600  Biso   1.000  H
  H2       1.0000 0.78700  0.14800  0.16600  Biso   1.000  H
  H3       1.0000 0.71300  0.64800  0.33400  Biso   1.000  H
  H4       1.0000 0.21300  0.14800  0.33400  Biso   1.000  H
  H5       1.0000 0.71300  0.35200  0.83400  Biso   1.000  H
  H6       1.0000 0.21300  0.85200  0.83400  Biso   1.000  H
  H7       1.0000 0.28700  0.35200  0.66600  Biso   1.000  H
  H8       1.0000 0.78700  0.85200  0.66600  Biso   1.000  H
  H9       1.0000 0.33200  0.55700  0.20320  Biso   1.000  H
  H10      1.0000 0.83200  0.05700  0.20320  Biso   1.000  H
  H11      1.0000 0.66800  0.55700  0.29680  Biso   1.000  H
  H12      1.0000 0.16800  0.05700  0.29680  Biso   1.000  H
  H13      1.0000 0.66800  0.44300  0.79680  Biso   1.000  H
  H14      1.0000 0.16800  0.94300  0.79680  Biso   1.000  H
  H15      1.0000 0.33200  0.44300  0.70320  Biso   1.000  H
  H16      1.0000 0.83200  0.94300  0.70320  Biso   1.000  H
  H17      1.0000 0.25700  0.35100  0.06900  Biso   1.000  H
  H18      1.0000 0.75700  0.85100  0.06900  Biso   1.000  H
  H19      1.0000 0.74300  0.35100  0.43100  Biso   1.000  H
  H20      1.0000 0.24300  0.85100  0.43100  Biso   1.000  H
  H21      1.0000 0.74300  0.64900  0.93100  Biso   1.000  H
  H22      1.0000 0.24300  0.14900  0.93100  Biso   1.000  H
  H23      1.0000 0.25700  0.64900  0.56900  Biso   1.000  H
  H24      1.0000 0.75700  0.14900  0.56900  Biso   1.000  H
  H25      1.0000 0.23700  0.25400  0.10600  Biso   1.000  H
  H26      1.0000 0.73700  0.75400  0.10600  Biso   1.000  H
  H27      1.0000 0.76300  0.25400  0.39400  Biso   1.000  H
  H28      1.0000 0.26300  0.75400  0.39400  Biso   1.000  H
  H29      1.0000 0.76300  0.74600  0.89400  Biso   1.000  H
  H30      1.0000 0.26300  0.24600  0.89400  Biso   1.000  H
  H31      1.0000 0.23700  0.74600  0.60600  Biso   1.000  H
  H32      1.0000 0.73700  0.24600  0.60600  Biso   1.000  H
  H33      1.0000 0.12900  0.64300  0.04000  Biso   1.000  H
  H34      1.0000 0.62900  0.14300  0.04000  Biso   1.000  H
  H35      1.0000 0.87100  0.64300  0.46000  Biso   1.000  H
  H36      1.0000 0.37100  0.14300  0.46000  Biso   1.000  H
  H37      1.0000 0.87100  0.35700  0.96000  Biso   1.000  H
  H38      1.0000 0.37100  0.85700  0.96000  Biso   1.000  H
  H39      1.0000 0.12900  0.35700  0.54000  Biso   1.000  H
  H40      1.0000 0.62900  0.85700  0.54000  Biso   1.000  H
  H41      1.0000 0.05390  0.61100  0.04300  Biso   1.000  H
  H42      1.0000 0.55390  0.11100  0.04300  Biso   1.000  H
  H43      1.0000 0.94610  0.61100  0.45700  Biso   1.000  H
  H44      1.0000 0.44610  0.11100  0.45700  Biso   1.000  H
  H45      1.0000 0.94610  0.38900  0.95700  Biso   1.000  H
  H46      1.0000 0.44610  0.88900  0.95700  Biso   1.000  H
  H47      1.0000 0.05390  0.38900  0.54300  Biso   1.000  H
  H48      1.0000 0.55390  0.88900  0.54300  Biso   1.000  H
  H49      1.0000 0.09700  0.77900  0.22600  Biso   1.000  H
  H50      1.0000 0.59700  0.27900  0.22600  Biso   1.000  H
  H51      1.0000 0.90300  0.77900  0.27400  Biso   1.000  H
  H52      1.0000 0.40300  0.27900  0.27400  Biso   1.000  H
  H53      1.0000 0.90300  0.22100  0.77400  Biso   1.000  H
  H54      1.0000 0.40300  0.72100  0.77400  Biso   1.000  H
  H55      1.0000 0.09700  0.22100  0.72600  Biso   1.000  H
  H56      1.0000 0.59700  0.72100  0.72600  Biso   1.000  H
  H57      1.0000 0.07800  0.72100  0.29100  Biso   1.000  H
  H58      1.0000 0.57800  0.22100  0.29100  Biso   1.000  H
  H59      1.0000 0.92200  0.72100  0.20900  Biso   1.000  H
  H60      1.0000 0.42200  0.22100  0.20900  Biso   1.000  H
  H61      1.0000 0.92200  0.27900  0.70900  Biso   1.000  H
  H62      1.0000 0.42200  0.77900  0.70900  Biso   1.000  H
  H63      1.0000 0.07800  0.27900  0.79100  Biso   1.000  H
  H64      1.0000 0.57800  0.77900  0.79100  Biso   1.000  H
  H65      1.0000 0.89400  0.69700  0.01600  Biso   1.000  H
  H66      1.0000 0.39400  0.19700  0.01600  Biso   1.000  H
  H67      1.0000 0.10600  0.69700  0.48400  Biso   1.000  H
  H68      1.0000 0.60600  0.19700  0.48400  Biso   1.000  H
  H69      1.0000 0.10600  0.30300  0.98400  Biso   1.000  H
  H70      1.0000 0.60600  0.80300  0.98400  Biso   1.000  H
  H71      1.0000 0.89400  0.30300  0.51600  Biso   1.000  H
  H72      1.0000 0.39400  0.80300  0.51600  Biso   1.000  H
  H73      1.0000 0.95300  0.76400  0.06100  Biso   1.000  H
  H74      1.0000 0.45300  0.26400  0.06100  Biso   1.000  H
  H75      1.0000 0.04700  0.76400  0.43900  Biso   1.000  H
  H76      1.0000 0.54700  0.26400  0.43900  Biso   1.000  H
  H77      1.0000 0.04700  0.23600  0.93900  Biso   1.000  H
  H78      1.0000 0.54700  0.73600  0.93900  Biso   1.000  H
  H79      1.0000 0.95300  0.23600  0.56100  Biso   1.000  H
  H80      1.0000 0.45300  0.73600  0.56100  Biso   1.000  H
  H81      1.0000 0.04700  0.38600  0.36800  Biso   1.000  H
  H82      1.0000 0.54700  0.88600  0.36800  Biso   1.000  H
  H83      1.0000 0.95300  0.38600  0.13200  Biso   1.000  H
  H84      1.0000 0.45300  0.88600  0.13200  Biso   1.000  H
  H85      1.0000 0.95300  0.61400  0.63200  Biso   1.000  H
  H86      1.0000 0.45300  0.11400  0.63200  Biso   1.000  H
  H87      1.0000 0.04700  0.61400  0.86800  Biso   1.000  H
  H88      1.0000 0.54700  0.11400  0.86800  Biso   1.000  H
  H89      1.0000 0.05900  0.50600  0.38100  Biso   1.000  H
  H90      1.0000 0.55900  0.00600  0.38100  Biso   1.000  H
  H91      1.0000 0.94100  0.50600  0.11900  Biso   1.000  H
  H92      1.0000 0.44100  0.00600  0.11900  Biso   1.000  H
  H93      1.0000 0.94100  0.49400  0.61900  Biso   1.000  H
  H94      1.0000 0.44100  0.99400  0.61900  Biso   1.000  H
  H95      1.0000 0.05900  0.49400  0.88100  Biso   1.000  H
  H96      1.0000 0.55900  0.99400  0.88100  Biso   1.000  H
