data_image0
_cell_length_a       7.0901
_cell_length_b       7.1418
_cell_length_c       11.224
_cell_angle_alpha    90
_cell_angle_beta     90.145
_cell_angle_gamma    90

_symmetry_space_group_name_H-M    "P 1"
_symmetry_int_tables_number       1

loop_
  _symmetry_equiv_pos_as_xyz
  'x, y, z'

loop_
  _atom_site_label
  _atom_site_occupancy
  _atom_site_fract_x
  _atom_site_fract_y
  _atom_site_fract_z
  _atom_site_thermal_displace_type
  _atom_site_B_iso_or_equiv
  _atom_site_type_symbol
  Cu1      1.0000 0.29653  0.25870  0.01033  Biso   1.000  Cu
  Cu2      1.0000 0.70347  0.75870  0.98967  Biso   1.000  Cu
  N1       1.0000 0.24480  0.23680  0.83080  Biso   1.000  N
  N2       1.0000 0.75520  0.73680  0.16920  Biso   1.000  N
  C1       1.0000 0.37550  0.27020  0.54000  Biso   1.000  C
  C2       1.0000 0.62450  0.77020  0.46000  Biso   1.000  C
  H1       1.0000 0.46230  0.17750  0.55960  Biso   1.000  H
  H2       1.0000 0.53770  0.67750  0.44040  Biso   1.000  H
  O1       1.0000 0.90090  0.58630  0.88450  Biso   1.000  O
  O2       1.0000 0.09910  0.08630  0.11550  Biso   1.000  O
  O3       1.0000 0.12130  0.46580  0.00450  Biso   1.000  O
  O4       1.0000 0.87870  0.96580  0.99550  Biso   1.000  O
  C3       1.0000 0.31670  0.28950  0.42280  Biso   1.000  C
  C4       1.0000 0.68330  0.78950  0.57720  Biso   1.000  C
  H3       1.0000 0.36490  0.21030  0.36450  Biso   1.000  H
  H4       1.0000 0.63510  0.71030  0.63550  Biso   1.000  H
  C5       1.0000 0.02060  0.46620  0.91070  Biso   1.000  C
  C6       1.0000 0.97940  0.96620  0.08930  Biso   1.000  C
  C7       1.0000 0.04460  0.29790  0.82750  Biso   1.000  C
  C8       1.0000 0.95540  0.79790  0.17250  Biso   1.000  C
  H5       1.0000 0.96340  0.19630  0.85290  Biso   1.000  H
  H6       1.0000 0.03660  0.69630  0.14710  Biso   1.000  H
  H7       1.0000 0.00960  0.33250  0.74680  Biso   1.000  H
  H8       1.0000 0.99040  0.83250  0.25320  Biso   1.000  H
  C9       1.0000 0.57530  0.31840  0.77110  Biso   1.000  C
  C10      1.0000 0.42470  0.81840  0.22890  Biso   1.000  C
  H9       1.0000 0.60820  0.31040  0.85400  Biso   1.000  H
  H10      1.0000 0.39180  0.81040  0.14600  Biso   1.000  H
  H11      1.0000 0.65160  0.41220  0.73340  Biso   1.000  H
  H12      1.0000 0.34840  0.91220  0.26660  Biso   1.000  H
  H13      1.0000 0.59690  0.19950  0.73360  Biso   1.000  H
  H14      1.0000 0.40310  0.69950  0.26640  Biso   1.000  H
  C11      1.0000 0.27870  0.03690  0.80250  Biso   1.000  C
  C12      1.0000 0.72130  0.53690  0.19750  Biso   1.000  C
  H15      1.0000 0.31440  0.02370  0.71960  Biso   1.000  H
  H16      1.0000 0.68560  0.52370  0.28040  Biso   1.000  H
  H17      1.0000 0.16470  0.96480  0.81580  Biso   1.000  H
  H18      1.0000 0.83530  0.46480  0.18420  Biso   1.000  H
  C13      1.0000 0.36700  0.37110  0.75890  Biso   1.000  C
  C14      1.0000 0.63300  0.87110  0.24110  Biso   1.000  C
  H19      1.0000 0.35210  0.49550  0.79460  Biso   1.000  H
  H20      1.0000 0.64790  0.99550  0.20540  Biso   1.000  H
  C15      1.0000 0.11840  0.54420  0.47810  Biso   1.000  C
  C16      1.0000 0.88160  0.04420  0.52190  Biso   1.000  C
  H21      1.0000 0.03130  0.63620  0.45760  Biso   1.000  H
  H22      1.0000 0.96870  0.13620  0.54240  Biso   1.000  H
  C17      1.0000 0.30660  0.38740  0.62890  Biso   1.000  C
  C18      1.0000 0.69340  0.88740  0.37110  Biso   1.000  C
  C19      1.0000 0.18710  0.42560  0.39200  Biso   1.000  C
  C20      1.0000 0.81290  0.92560  0.60800  Biso   1.000  C
  H23      1.0000 0.14640  0.43690  0.31340  Biso   1.000  H
  H24      1.0000 0.85360  0.93690  0.68660  Biso   1.000  H
  C21      1.0000 0.17850  0.52750  0.59550  Biso   1.000  C
  C22      1.0000 0.82150  0.02750  0.40450  Biso   1.000  C
  H25      1.0000 0.13320  0.61030  0.65270  Biso   1.000  H
  H26      1.0000 0.86680  0.11030  0.34730  Biso   1.000  H
  O5       1.0000 0.53720  0.83170  0.84970  Biso   1.000  O
  O6       1.0000 0.46280  0.33170  0.15030  Biso   1.000  O
  O7       1.0000 0.45430  0.04180  0.98420  Biso   1.000  O
  O8       1.0000 0.54570  0.54180  0.01580  Biso   1.000  O
  C23      1.0000 0.43530  0.96610  0.88230  Biso   1.000  C
  C24      1.0000 0.56470  0.46610  0.11770  Biso   1.000  C
