data_image0
_cell_length_a       5.1829
_cell_length_b       11.1982
_cell_length_c       11.8865
_cell_angle_alpha    65.631
_cell_angle_beta     88.023
_cell_angle_gamma    88.948

_symmetry_space_group_name_H-M    "P 1"
_symmetry_int_tables_number       1

loop_
  _symmetry_equiv_pos_as_xyz
  'x, y, z'

loop_
  _atom_site_label
  _atom_site_occupancy
  _atom_site_fract_x
  _atom_site_fract_y
  _atom_site_fract_z
  _atom_site_thermal_displace_type
  _atom_site_B_iso_or_equiv
  _atom_site_type_symbol
  Cu1      1.0000 0.28227  0.04396  0.02365  Biso   1.000  Cu
  Cu2      1.0000 0.71773  0.95604  0.97635  Biso   1.000  Cu
  O1       1.0000 0.32260  0.18290  0.85950  Biso   1.000  O
  O2       1.0000 0.67740  0.81710  0.14050  Biso   1.000  O
  O3       1.0000 0.69660  0.10440  0.81900  Biso   1.000  O
  O4       1.0000 0.30340  0.89560  0.18100  Biso   1.000  O
  O5       1.0000 0.48780  0.14690  0.08760  Biso   1.000  O
  O6       1.0000 0.51220  0.85310  0.91240  Biso   1.000  O
  O7       1.0000 0.86360  0.07370  0.04730  Biso   1.000  O
  O8       1.0000 0.13640  0.92630  0.95270  Biso   1.000  O
  C1       1.0000 0.72810  0.14150  0.08890  Biso   1.000  C
  C2       1.0000 0.27190  0.85850  0.91110  Biso   1.000  C
  C3       1.0000 0.51590  0.18760  0.79190  Biso   1.000  C
  C4       1.0000 0.48410  0.81240  0.20810  Biso   1.000  C
  C5       1.0000 0.86390  0.21820  0.14710  Biso   1.000  C
  C6       1.0000 0.13610  0.78180  0.85290  Biso   1.000  C
  H1       1.0000 0.02600  0.25700  0.09900  Biso   1.000  H
  H2       1.0000 0.97400  0.74300  0.90100  Biso   1.000  H
  C7       1.0000 0.71640  0.34410  0.13190  Biso   1.000  C
  C8       1.0000 0.28360  0.65590  0.86810  Biso   1.000  C
  H3       1.0000 0.80860  0.38970  0.17070  Biso   1.000  H
  H4       1.0000 0.19140  0.61030  0.82930  Biso   1.000  H
  H5       1.0000 0.54730  0.32180  0.16980  Biso   1.000  H
  H6       1.0000 0.45270  0.67820  0.83020  Biso   1.000  H
  H7       1.0000 0.70120  0.39930  0.04560  Biso   1.000  H
  H8       1.0000 0.29880  0.60070  0.95440  Biso   1.000  H
  C9       1.0000 0.91540  0.12470  0.28050  Biso   1.000  C
  C10      1.0000 0.08460  0.87530  0.71950  Biso   1.000  C
  H9       1.0000 0.75350  0.10510  0.32780  Biso   1.000  H
  H10      1.0000 0.24650  0.89490  0.67220  Biso   1.000  H
  H11      1.0000 0.98570  0.04320  0.28200  Biso   1.000  H
  H12      1.0000 0.01430  0.95680  0.71800  Biso   1.000  H
  C11      1.0000 0.87700  0.40800  0.19900  Biso   1.000  C
  C12      1.0000 0.12300  0.59200  0.80100  Biso   1.000  C
  C13      1.0000 0.10100  0.18100  0.34020  Biso   1.000  C
  C14      1.0000 0.89900  0.81900  0.65980  Biso   1.000  C
  H13      1.0000 0.12920  0.11880  0.42330  Biso   1.000  H
  H14      1.0000 0.87080  0.88120  0.57670  Biso   1.000  H
  H15      1.0000 0.02910  0.26030  0.34150  Biso   1.000  H
  H16      1.0000 0.97090  0.73970  0.65850  Biso   1.000  H
  H17      1.0000 0.26150  0.20020  0.29400  Biso   1.000  H
  H18      1.0000 0.73850  0.79980  0.70600  Biso   1.000  H
  C15      1.0000 0.68400  0.06400  0.36900  Biso   1.000  C
  C16      1.0000 0.31600  0.93600  0.63100  Biso   1.000  C
  C17      1.0000 0.53170  0.29920  0.66550  Biso   1.000  C
  C18      1.0000 0.46830  0.70080  0.33450  Biso   1.000  C
  H19      1.0000 0.38460  0.35880  0.65480  Biso   1.000  H
  H20      1.0000 0.61540  0.64120  0.34520  Biso   1.000  H
  C19      1.0000 0.54100  0.24750  0.55780  Biso   1.000  C
  C20      1.0000 0.45900  0.75250  0.44220  Biso   1.000  C
  H21      1.0000 0.39330  0.19310  0.56690  Biso   1.000  H
  H22      1.0000 0.60670  0.80690  0.43310  Biso   1.000  H
  H23      1.0000 0.69580  0.19750  0.56320  Biso   1.000  H
  H24      1.0000 0.30420  0.80250  0.43680  Biso   1.000  H
  H25      1.0000 0.53810  0.32100  0.47880  Biso   1.000  H
  H26      1.0000 0.46190  0.67900  0.52120  Biso   1.000  H
  C21      1.0000 0.76940  0.37340  0.62660  Biso   1.000  C
  C22      1.0000 0.23060  0.62660  0.37340  Biso   1.000  C
  H27      1.0000 0.76030  0.44510  0.54540  Biso   1.000  H
  H28      1.0000 0.23970  0.55490  0.45460  Biso   1.000  H
  H29      1.0000 0.91930  0.31880  0.63050  Biso   1.000  H
  H30      1.0000 0.08070  0.68120  0.36950  Biso   1.000  H
  C23      1.0000 0.75400  0.41840  0.73010  Biso   1.000  C
  C24      1.0000 0.24600  0.58160  0.26990  Biso   1.000  C
  H31      1.0000 0.89950  0.47310  0.72340  Biso   1.000  H
  H32      1.0000 0.10050  0.52690  0.27660  Biso   1.000  H
  H33      1.0000 0.75540  0.34350  0.80810  Biso   1.000  H
  H34      1.0000 0.24460  0.65650  0.19190  Biso   1.000  H
  H35      1.0000 0.59740  0.46740  0.72460  Biso   1.000  H
  H36      1.0000 0.40260  0.53260  0.27540  Biso   1.000  H
