data_image0
_cell_length_a       10.452
_cell_length_b       12.197
_cell_length_c       14.984
_cell_angle_alpha    90
_cell_angle_beta     90
_cell_angle_gamma    90

_symmetry_space_group_name_H-M    "P 1"
_symmetry_int_tables_number       1

loop_
  _symmetry_equiv_pos_as_xyz
  'x, y, z'

loop_
  _atom_site_label
  _atom_site_occupancy
  _atom_site_fract_x
  _atom_site_fract_y
  _atom_site_fract_z
  _atom_site_thermal_displace_type
  _atom_site_B_iso_or_equiv
  _atom_site_type_symbol
  Cu1      1.0000 0.97460  0.21493  0.16363  Biso   1.000  Cu
  Cu2      1.0000 0.47460  0.28507  0.83637  Biso   1.000  Cu
  Cu3      1.0000 0.02540  0.71493  0.33637  Biso   1.000  Cu
  Cu4      1.0000 0.52540  0.78507  0.66363  Biso   1.000  Cu
  Br1      1.0000 0.96710  0.17918  0.34417  Biso   1.000  Br
  Br2      1.0000 0.46710  0.32082  0.65583  Biso   1.000  Br
  Br3      1.0000 0.03290  0.67918  0.15583  Biso   1.000  Br
  Br4      1.0000 0.53290  0.82082  0.84417  Biso   1.000  Br
  O1       1.0000 0.36300  0.15900  0.82930  Biso   1.000  O
  O2       1.0000 0.86300  0.34100  0.17070  Biso   1.000  O
  O3       1.0000 0.63700  0.65900  0.67070  Biso   1.000  O
  O4       1.0000 0.13700  0.84100  0.32930  Biso   1.000  O
  O5       1.0000 0.39430  0.15110  0.97470  Biso   1.000  O
  O6       1.0000 0.89430  0.34890  0.02530  Biso   1.000  O
  O7       1.0000 0.60570  0.65110  0.52530  Biso   1.000  O
  O8       1.0000 0.10570  0.84890  0.47470  Biso   1.000  O
  O9       1.0000 0.65900  0.34460  0.29950  Biso   1.000  O
  O10      1.0000 0.15900  0.15540  0.70050  Biso   1.000  O
  O11      1.0000 0.34100  0.84460  0.20050  Biso   1.000  O
  O12      1.0000 0.84100  0.65540  0.79950  Biso   1.000  O
  N1       1.0000 0.09130  0.08780  0.13310  Biso   1.000  N
  N2       1.0000 0.59130  0.41220  0.86690  Biso   1.000  N
  N3       1.0000 0.90870  0.58780  0.36690  Biso   1.000  N
  N4       1.0000 0.40870  0.91220  0.63310  Biso   1.000  N
  N5       1.0000 0.14280  0.29440  0.16570  Biso   1.000  N
  N6       1.0000 0.64280  0.20560  0.83430  Biso   1.000  N
  N7       1.0000 0.85720  0.79440  0.33430  Biso   1.000  N
  N8       1.0000 0.35720  0.70560  0.66570  Biso   1.000  N
  N9       1.0000 0.83990  0.10400  0.13150  Biso   1.000  N
  N10      1.0000 0.33990  0.39600  0.86850  Biso   1.000  N
  N11      1.0000 0.16010  0.60400  0.36850  Biso   1.000  N
  N12      1.0000 0.66010  0.89600  0.63150  Biso   1.000  N
  C1       1.0000 0.20900  0.10860  0.18490  Biso   1.000  C
  C2       1.0000 0.70900  0.39140  0.81510  Biso   1.000  C
  C3       1.0000 0.79100  0.60860  0.31510  Biso   1.000  C
  C4       1.0000 0.29100  0.89140  0.68490  Biso   1.000  C
  C5       1.0000 0.24390  0.22840  0.17990  Biso   1.000  C
  C6       1.0000 0.74390  0.27160  0.82010  Biso   1.000  C
  C7       1.0000 0.75610  0.72840  0.32010  Biso   1.000  C
  C8       1.0000 0.25610  0.77160  0.67990  Biso   1.000  C
  C9       1.0000 0.36570  0.26650  0.19150  Biso   1.000  C
  C10      1.0000 0.86570  0.23350  0.80850  Biso   1.000  C
  C11      1.0000 0.63430  0.76650  0.30850  Biso   1.000  C
  C12      1.0000 0.13430  0.73350  0.69150  Biso   1.000  C
  C13      1.0000 0.38500  0.37680  0.18710  Biso   1.000  C
  C14      1.0000 0.88500  0.12320  0.81290  Biso   1.000  C
  C15      1.0000 0.61500  0.87680  0.31290  Biso   1.000  C
  C16      1.0000 0.11500  0.62320  0.68710  Biso   1.000  C
  C17      1.0000 0.28600  0.44790  0.17000  Biso   1.000  C
  C18      1.0000 0.78600  0.05210  0.83000  Biso   1.000  C
  C19      1.0000 0.71400  0.94790  0.33000  Biso   1.000  C
  C20      1.0000 0.21400  0.55210  0.67000  Biso   1.000  C
  C21      1.0000 0.16450  0.40250  0.16020  Biso   1.000  C
  C22      1.0000 0.66450  0.09750  0.83980  Biso   1.000  C
  C23      1.0000 0.83550  0.90250  0.33980  Biso   1.000  C
  C24      1.0000 0.33550  0.59750  0.66020  Biso   1.000  C
  C25      1.0000 0.02050  0.98830  0.15810  Biso   1.000  C
  C26      1.0000 0.52050  0.51170  0.84190  Biso   1.000  C
  C27      1.0000 0.97950  0.48830  0.34190  Biso   1.000  C
  C28      1.0000 0.47950  0.01170  0.65810  Biso   1.000  C
  C29      1.0000 0.88520  0.00060  0.12580  Biso   1.000  C
  C30      1.0000 0.38520  0.49940  0.87420  Biso   1.000  C
  C31      1.0000 0.11480  0.50060  0.37420  Biso   1.000  C
  C32      1.0000 0.61480  0.99940  0.62580  Biso   1.000  C
  C33      1.0000 0.81300  0.91630  0.09690  Biso   1.000  C
  C34      1.0000 0.31300  0.58370  0.90310  Biso   1.000  C
  C35      1.0000 0.18700  0.41630  0.40310  Biso   1.000  C
  C36      1.0000 0.68700  0.08370  0.59690  Biso   1.000  C
  C37      1.0000 0.68800  0.93700  0.06990  Biso   1.000  C
  C38      1.0000 0.18800  0.56300  0.93010  Biso   1.000  C
  C39      1.0000 0.31200  0.43700  0.43010  Biso   1.000  C
  C40      1.0000 0.81200  0.06300  0.56990  Biso   1.000  C
  C41      1.0000 0.64000  0.04160  0.07690  Biso   1.000  C
  C42      1.0000 0.14000  0.45840  0.92310  Biso   1.000  C
  C43      1.0000 0.36000  0.54160  0.42310  Biso   1.000  C
  C44      1.0000 0.86000  0.95840  0.57690  Biso   1.000  C
  C45      1.0000 0.71900  0.12240  0.10870  Biso   1.000  C
  C46      1.0000 0.21900  0.37760  0.89130  Biso   1.000  C
  C47      1.0000 0.28100  0.62240  0.39130  Biso   1.000  C
  C48      1.0000 0.78100  0.87760  0.60870  Biso   1.000  C
  C49      1.0000 0.11700  0.09010  0.03530  Biso   1.000  C
  C50      1.0000 0.61700  0.40990  0.96470  Biso   1.000  C
  C51      1.0000 0.88300  0.59010  0.46470  Biso   1.000  C
  C52      1.0000 0.38300  0.90990  0.53530  Biso   1.000  C
  C53      1.0000 0.19900  0.99610  0.00040  Biso   1.000  C
  C54      1.0000 0.69900  0.50390  0.99960  Biso   1.000  C
  C55      1.0000 0.80100  0.49610  0.49960  Biso   1.000  C
  C56      1.0000 0.30100  0.00390  0.50040  Biso   1.000  C
  C57      1.0000 0.25200  0.02150  0.90820  Biso   1.000  C
  C58      1.0000 0.75200  0.47850  0.09180  Biso   1.000  C
  C59      1.0000 0.74800  0.52150  0.59180  Biso   1.000  C
  C60      1.0000 0.24800  0.97850  0.40820  Biso   1.000  C
  C61      1.0000 0.34560  0.11910  0.90570  Biso   1.000  C
  C62      1.0000 0.84560  0.38090  0.09430  Biso   1.000  C
  C63      1.0000 0.65440  0.61910  0.59430  Biso   1.000  C
  C64      1.0000 0.15440  0.88090  0.40570  Biso   1.000  C
  C65      1.0000 0.62600  0.26800  0.36500  Biso   1.000  C
  C66      1.0000 0.12600  0.23200  0.63500  Biso   1.000  C
  C67      1.0000 0.37400  0.76800  0.13500  Biso   1.000  C
  C68      1.0000 0.87400  0.73200  0.86500  Biso   1.000  C
  H1       1.0000 0.19800  0.08980  0.24580  Biso   1.000  H
  H2       1.0000 0.69800  0.41020  0.75420  Biso   1.000  H
  H3       1.0000 0.80200  0.58980  0.25420  Biso   1.000  H
  H4       1.0000 0.30200  0.91020  0.74580  Biso   1.000  H
  H5       1.0000 0.27940  0.06780  0.16110  Biso   1.000  H
  H6       1.0000 0.77940  0.43220  0.83890  Biso   1.000  H
  H7       1.0000 0.72060  0.56780  0.33890  Biso   1.000  H
  H8       1.0000 0.22060  0.93220  0.66110  Biso   1.000  H
  H9       1.0000 0.43510  0.21840  0.20590  Biso   1.000  H
  H10      1.0000 0.93510  0.28160  0.79410  Biso   1.000  H
  H11      1.0000 0.56490  0.71840  0.29410  Biso   1.000  H
  H12      1.0000 0.06490  0.78160  0.70590  Biso   1.000  H
  H13      1.0000 0.46850  0.40670  0.19410  Biso   1.000  H
  H14      1.0000 0.96850  0.09330  0.80590  Biso   1.000  H
  H15      1.0000 0.53150  0.90670  0.30590  Biso   1.000  H
  H16      1.0000 0.03150  0.59330  0.69410  Biso   1.000  H
  H17      1.0000 0.29920  0.52410  0.16460  Biso   1.000  H
  H18      1.0000 0.79920  0.97590  0.83540  Biso   1.000  H
  H19      1.0000 0.70080  0.02410  0.33540  Biso   1.000  H
  H20      1.0000 0.20080  0.47590  0.66460  Biso   1.000  H
  H21      1.0000 0.09510  0.44980  0.15230  Biso   1.000  H
  H22      1.0000 0.59510  0.05020  0.84770  Biso   1.000  H
  H23      1.0000 0.90490  0.94980  0.34770  Biso   1.000  H
  H24      1.0000 0.40490  0.55020  0.65230  Biso   1.000  H
  H25      1.0000 0.05950  0.92700  0.13190  Biso   1.000  H
  H26      1.0000 0.55950  0.57300  0.86810  Biso   1.000  H
  H27      1.0000 0.94050  0.42700  0.36810  Biso   1.000  H
  H28      1.0000 0.44050  0.07300  0.63190  Biso   1.000  H
  H29      1.0000 0.02020  0.98180  0.22120  Biso   1.000  H
  H30      1.0000 0.52020  0.51820  0.77880  Biso   1.000  H
  H31      1.0000 0.97980  0.48180  0.27880  Biso   1.000  H
  H32      1.0000 0.47980  0.01820  0.72120  Biso   1.000  H
  H33      1.0000 0.84810  0.84480  0.09290  Biso   1.000  H
  H34      1.0000 0.34810  0.65520  0.90710  Biso   1.000  H
  H35      1.0000 0.15190  0.34480  0.40710  Biso   1.000  H
  H36      1.0000 0.65190  0.15520  0.59290  Biso   1.000  H
  H37      1.0000 0.63620  0.87850  0.04820  Biso   1.000  H
  H38      1.0000 0.13620  0.62150  0.95180  Biso   1.000  H
  H39      1.0000 0.36380  0.37850  0.45180  Biso   1.000  H
  H40      1.0000 0.86380  0.12150  0.54820  Biso   1.000  H
  H41      1.0000 0.55280  0.05760  0.05820  Biso   1.000  H
  H42      1.0000 0.05280  0.44240  0.94180  Biso   1.000  H
  H43      1.0000 0.44720  0.55760  0.44180  Biso   1.000  H
  H44      1.0000 0.94720  0.94240  0.55820  Biso   1.000  H
  H45      1.0000 0.68770  0.19380  0.11240  Biso   1.000  H
  H46      1.0000 0.18770  0.30620  0.88760  Biso   1.000  H
  H47      1.0000 0.31230  0.69380  0.38760  Biso   1.000  H
  H48      1.0000 0.81230  0.80620  0.61240  Biso   1.000  H
  H49      1.0000 0.03720  0.08660  0.00520  Biso   1.000  H
  H50      1.0000 0.53720  0.41340  0.99480  Biso   1.000  H
  H51      1.0000 0.96280  0.58660  0.49480  Biso   1.000  H
  H52      1.0000 0.46280  0.91340  0.50520  Biso   1.000  H
  H53      1.0000 0.15940  0.15610  0.02090  Biso   1.000  H
  H54      1.0000 0.65940  0.34390  0.97910  Biso   1.000  H
  H55      1.0000 0.84060  0.65610  0.47910  Biso   1.000  H
  H56      1.0000 0.34060  0.84390  0.52090  Biso   1.000  H
  H57      1.0000 0.26770  0.98430  0.03950  Biso   1.000  H
  H58      1.0000 0.76770  0.51570  0.96050  Biso   1.000  H
  H59      1.0000 0.73230  0.48430  0.46050  Biso   1.000  H
  H60      1.0000 0.23230  0.01570  0.53950  Biso   1.000  H
  H61      1.0000 0.14760  0.93230  0.99590  Biso   1.000  H
  H62      1.0000 0.64760  0.56770  0.00410  Biso   1.000  H
  H63      1.0000 0.85240  0.43230  0.50410  Biso   1.000  H
  H64      1.0000 0.35240  0.06770  0.49590  Biso   1.000  H
  H65      1.0000 0.29730  0.95770  0.88750  Biso   1.000  H
  H66      1.0000 0.79730  0.54230  0.11250  Biso   1.000  H
  H67      1.0000 0.70270  0.45770  0.61250  Biso   1.000  H
  H68      1.0000 0.20270  0.04230  0.38750  Biso   1.000  H
  H69      1.0000 0.18360  0.03600  0.86860  Biso   1.000  H
  H70      1.0000 0.68360  0.46400  0.13140  Biso   1.000  H
  H71      1.0000 0.81640  0.53600  0.63140  Biso   1.000  H
  H72      1.0000 0.31640  0.96400  0.36860  Biso   1.000  H
  H73      1.0000 0.57700  0.30310  0.40990  Biso   1.000  H
  H74      1.0000 0.07700  0.19690  0.59010  Biso   1.000  H
  H75      1.0000 0.42300  0.80310  0.09010  Biso   1.000  H
  H76      1.0000 0.92300  0.69690  0.90990  Biso   1.000  H
  H77      1.0000 0.57660  0.21110  0.33850  Biso   1.000  H
  H78      1.0000 0.07660  0.28890  0.66150  Biso   1.000  H
  H79      1.0000 0.42340  0.71110  0.16150  Biso   1.000  H
  H80      1.0000 0.92340  0.78890  0.83850  Biso   1.000  H
  H81      1.0000 0.70130  0.23810  0.39020  Biso   1.000  H
  H82      1.0000 0.20130  0.26190  0.60980  Biso   1.000  H
  H83      1.0000 0.29870  0.73810  0.10980  Biso   1.000  H
  H84      1.0000 0.79870  0.76190  0.89020  Biso   1.000  H
  H85      1.0000 0.67630  0.39380  0.25360  Biso   1.000  H
  H86      1.0000 0.17630  0.10620  0.74640  Biso   1.000  H
  H87      1.0000 0.32370  0.89380  0.24640  Biso   1.000  H
  H88      1.0000 0.82370  0.60620  0.75360  Biso   1.000  H
