data_image0
_cell_length_a       8.035
_cell_length_b       12.824
_cell_length_c       13.887
_cell_angle_alpha    69.269
_cell_angle_beta     86.401
_cell_angle_gamma    86.384

_symmetry_space_group_name_H-M    "P 1"
_symmetry_int_tables_number       1

loop_
  _symmetry_equiv_pos_as_xyz
  'x, y, z'

loop_
  _atom_site_label
  _atom_site_occupancy
  _atom_site_fract_x
  _atom_site_fract_y
  _atom_site_fract_z
  _atom_site_thermal_displace_type
  _atom_site_B_iso_or_equiv
  _atom_site_type_symbol
  Cu1      1.0000 0.46144  0.18376  0.83701  Biso   1.000  Cu
  Cu2      1.0000 0.53856  0.81624  0.16299  Biso   1.000  Cu
  Cu3      1.0000 0.24464  0.88969  0.61681  Biso   1.000  Cu
  Cu4      1.0000 0.75536  0.11031  0.38319  Biso   1.000  Cu
  S1       1.0000 0.79060  0.47807  0.64106  Biso   1.000  S
  S2       1.0000 0.20940  0.52193  0.35894  Biso   1.000  S
  C1       1.0000 0.68210  0.37900  0.72040  Biso   1.000  C
  C2       1.0000 0.31790  0.62100  0.27960  Biso   1.000  C
  N1       1.0000 0.60290  0.30950  0.77620  Biso   1.000  N
  N2       1.0000 0.39710  0.69050  0.22380  Biso   1.000  N
  S3       1.0000 0.63053  0.08792  0.71175  Biso   1.000  S
  S4       1.0000 0.36947  0.91208  0.28825  Biso   1.000  S
  C3       1.0000 0.49970  0.00350  0.69540  Biso   1.000  C
  C4       1.0000 0.50030  0.99650  0.30460  Biso   1.000  C
  N3       1.0000 0.40710  0.94450  0.68400  Biso   1.000  N
  N4       1.0000 0.59290  0.05550  0.31600  Biso   1.000  N
  O1       1.0000 0.62100  0.11880  0.95340  Biso   1.000  O
  O2       1.0000 0.37900  0.88120  0.04660  Biso   1.000  O
  C5       1.0000 0.57990  0.02050  0.01070  Biso   1.000  C
  C6       1.0000 0.42010  0.97950  0.98930  Biso   1.000  C
  N5       1.0000 0.66160  0.94880  0.08540  Biso   1.000  N
  N6       1.0000 0.33840  0.05120  0.91460  Biso   1.000  N
  C7       1.0000 0.82120  0.98100  0.10990  Biso   1.000  C
  C8       1.0000 0.17880  0.01900  0.89010  Biso   1.000  C
  H1       1.0000 0.87060  0.03550  0.04870  Biso   1.000  H
  H2       1.0000 0.12940  0.96450  0.95130  Biso   1.000  H
  H3       1.0000 0.80200  0.01510  0.16200  Biso   1.000  H
  H4       1.0000 0.19800  0.98490  0.83800  Biso   1.000  H
  C9       1.0000 0.94180  0.87880  0.14960  Biso   1.000  C
  C10      1.0000 0.05820  0.12120  0.85040  Biso   1.000  C
  H5       1.0000 0.04980  0.90300  0.15880  Biso   1.000  H
  H6       1.0000 0.95020  0.09700  0.84120  Biso   1.000  H
  H7       1.0000 0.95670  0.84300  0.09850  Biso   1.000  H
  H8       1.0000 0.04330  0.15700  0.90150  Biso   1.000  H
  C11      1.0000 0.87890  0.79540  0.25050  Biso   1.000  C
  C12      1.0000 0.12110  0.20460  0.74950  Biso   1.000  C
  H9       1.0000 0.83930  0.83540  0.29570  Biso   1.000  H
  H10      1.0000 0.16070  0.16460  0.70430  Biso   1.000  H
  H11      1.0000 0.97200  0.74610  0.28280  Biso   1.000  H
  H12      1.0000 0.02800  0.25390  0.71720  Biso   1.000  H
  N7       1.0000 0.74180  0.72550  0.24230  Biso   1.000  N
  N8       1.0000 0.25820  0.27450  0.75770  Biso   1.000  N
  C13      1.0000 0.68600  0.66140  0.35140  Biso   1.000  C
  C14      1.0000 0.31400  0.33860  0.64860  Biso   1.000  C
  H13      1.0000 0.62820  0.71120  0.38100  Biso   1.000  H
  H14      1.0000 0.37180  0.28880  0.61900  Biso   1.000  H
  H15      1.0000 0.61350  0.60450  0.35230  Biso   1.000  H
  H16      1.0000 0.38650  0.39550  0.64770  Biso   1.000  H
  H17      1.0000 0.78230  0.62730  0.39060  Biso   1.000  H
  H18      1.0000 0.21770  0.37270  0.60940  Biso   1.000  H
  C15      1.0000 0.80710  0.64530  0.19490  Biso   1.000  C
  C16      1.0000 0.19290  0.35470  0.80510  Biso   1.000  C
  H19      1.0000 0.72210  0.59460  0.19820  Biso   1.000  H
  H20      1.0000 0.27790  0.40540  0.80180  Biso   1.000  H
  H21      1.0000 0.84010  0.68440  0.12410  Biso   1.000  H
  H22      1.0000 0.15990  0.31560  0.87590  Biso   1.000  H
  H23      1.0000 0.90190  0.60420  0.23110  Biso   1.000  H
  H24      1.0000 0.09810  0.39580  0.76890  Biso   1.000  H
  O3       1.0000 0.13510  0.04330  0.57220  Biso   1.000  O
  O4       1.0000 0.86490  0.95670  0.42780  Biso   1.000  O
  C17      1.0000 0.01730  0.05080  0.51200  Biso   1.000  C
  C18      1.0000 0.98270  0.94920  0.48800  Biso   1.000  C
  N9       1.0000 0.92300  0.13810  0.46570  Biso   1.000  N
  N10      1.0000 0.07700  0.86190  0.53430  Biso   1.000  N
  C19      1.0000 0.95050  0.24240  0.48240  Biso   1.000  C
  C20      1.0000 0.04950  0.75760  0.51760  Biso   1.000  C
  H25      1.0000 0.92690  0.23200  0.55450  Biso   1.000  H
  H26      1.0000 0.07310  0.76800  0.44550  Biso   1.000  H
  H27      1.0000 0.06690  0.26030  0.46640  Biso   1.000  H
  H28      1.0000 0.93310  0.73970  0.53360  Biso   1.000  H
  C21      1.0000 0.84340  0.33740  0.41780  Biso   1.000  C
  C22      1.0000 0.15660  0.66260  0.58220  Biso   1.000  C
  H29      1.0000 0.87660  0.35270  0.34590  Biso   1.000  H
  H30      1.0000 0.12340  0.64730  0.65410  Biso   1.000  H
  H31      1.0000 0.86380  0.40320  0.43360  Biso   1.000  H
  H32      1.0000 0.13620  0.59680  0.56640  Biso   1.000  H
  C23      1.0000 0.66210  0.31840  0.43190  Biso   1.000  C
  C24      1.0000 0.33790  0.68160  0.56810  Biso   1.000  C
  H33      1.0000 0.63530  0.28210  0.50490  Biso   1.000  H
  H34      1.0000 0.36470  0.71790  0.49510  Biso   1.000  H
  H35      1.0000 0.60170  0.39020  0.40940  Biso   1.000  H
  H36      1.0000 0.39830  0.60980  0.59060  Biso   1.000  H
  N11      1.0000 0.60180  0.24890  0.37490  Biso   1.000  N
  N12      1.0000 0.39820  0.75110  0.62510  Biso   1.000  N
  C25      1.0000 0.57530  0.31840  0.26660  Biso   1.000  C
  C26      1.0000 0.42470  0.68160  0.73340  Biso   1.000  C
  H37      1.0000 0.67830  0.35070  0.23440  Biso   1.000  H
  H38      1.0000 0.32170  0.64930  0.76560  Biso   1.000  H
  H39      1.0000 0.53760  0.27300  0.23090  Biso   1.000  H
  H40      1.0000 0.46240  0.72700  0.76910  Biso   1.000  H
  H41      1.0000 0.49270  0.37680  0.26380  Biso   1.000  H
  H42      1.0000 0.50730  0.62320  0.73620  Biso   1.000  H
  C27      1.0000 0.43630  0.21020  0.42450  Biso   1.000  C
  C28      1.0000 0.56370  0.78980  0.57550  Biso   1.000  C
  H43      1.0000 0.38880  0.16770  0.38930  Biso   1.000  H
  H44      1.0000 0.61120  0.83230  0.61070  Biso   1.000  H
  H45      1.0000 0.44990  0.16430  0.49540  Biso   1.000  H
  H46      1.0000 0.55010  0.83570  0.50460  Biso   1.000  H
  H47      1.0000 0.36340  0.27360  0.42100  Biso   1.000  H
  H48      1.0000 0.63660  0.72640  0.57900  Biso   1.000  H
  O5       1.0000 0.08710  0.80570  0.77540  Biso   1.000  O
  O6       1.0000 0.91290  0.19430  0.22460  Biso   1.000  O
  H49      1.0000 0.13040  0.78520  0.83390  Biso   1.000  H
  H50      1.0000 0.86960  0.21480  0.16610  Biso   1.000  H
  C29      1.0000 0.91140  0.79600  0.78230  Biso   1.000  C
  C30      1.0000 0.08860  0.20400  0.21770  Biso   1.000  C
  H51      1.0000 0.88730  0.72340  0.78080  Biso   1.000  H
  H52      1.0000 0.11270  0.27660  0.21920  Biso   1.000  H
  H53      1.0000 0.86380  0.85220  0.72220  Biso   1.000  H
  H54      1.0000 0.13620  0.14780  0.27780  Biso   1.000  H
  C31      1.0000 0.82730  0.80900  0.87870  Biso   1.000  C
  C32      1.0000 0.17270  0.19100  0.12130  Biso   1.000  C
  H55      1.0000 0.84210  0.74120  0.93620  Biso   1.000  H
  H56      1.0000 0.15790  0.25880  0.06380  Biso   1.000  H
  H57      1.0000 0.71020  0.82660  0.86840  Biso   1.000  H
  H58      1.0000 0.28980  0.17340  0.13160  Biso   1.000  H
  H59      1.0000 0.87630  0.86880  0.89230  Biso   1.000  H
  H60      1.0000 0.12370  0.13120  0.10770  Biso   1.000  H
  O7       1.0000 0.22700  0.73530  0.96830  Biso   1.000  O
  O8       1.0000 0.77300  0.26470  0.03170  Biso   1.000  O
  H61      1.0000 0.25530  0.77550  0.00120  Biso   1.000  H
  H62      1.0000 0.74470  0.22450  0.99880  Biso   1.000  H
  C33      1.0000 0.30200  0.62680  0.01810  Biso   1.000  C
  C34      1.0000 0.69800  0.37320  0.98190  Biso   1.000  C
  H63      1.0000 0.31340  0.61360  0.09060  Biso   1.000  H
  H64      1.0000 0.68660  0.38640  0.90940  Biso   1.000  H
  H65      1.0000 0.41130  0.62020  0.98690  Biso   1.000  H
  H66      1.0000 0.58870  0.37980  0.01310  Biso   1.000  H
  C35      1.0000 0.18900  0.54360  0.00570  Biso   1.000  C
  C36      1.0000 0.81100  0.45640  0.99430  Biso   1.000  C
  H67      1.0000 0.11920  0.51410  0.06710  Biso   1.000  H
  H68      1.0000 0.88080  0.48590  0.93290  Biso   1.000  H
  H69      1.0000 0.25510  0.48400  0.99400  Biso   1.000  H
  H70      1.0000 0.74490  0.51600  0.00600  Biso   1.000  H
  H71      1.0000 0.12010  0.57970  0.94800  Biso   1.000  H
  H72      1.0000 0.87990  0.42030  0.05200  Biso   1.000  H
  C37      1.0000 0.92010  0.85020  0.77970  Biso   1.000  C
  C38      1.0000 0.07990  0.14980  0.22030  Biso   1.000  C
  C39      1.0000 0.80700  0.76800  0.85900  Biso   1.000  C
  C40      1.0000 0.19300  0.23200  0.14100  Biso   1.000  C
  C41      1.0000 0.19360  0.62600  0.03820  Biso   1.000  C
  C42      1.0000 0.80640  0.37400  0.96180  Biso   1.000  C
  C43      1.0000 0.34800  0.55320  0.03400  Biso   1.000  C
  C44      1.0000 0.65200  0.44680  0.96600  Biso   1.000  C
  C45      1.0000 0.10600  0.10250  0.79200  Biso   1.000  C
  C46      1.0000 0.89400  0.89750  0.20800  Biso   1.000  C
  C47      1.0000 0.09500  0.21970  0.79550  Biso   1.000  C
  C48      1.0000 0.90500  0.78030  0.20450  Biso   1.000  C
  C49      1.0000 0.26600  0.31700  0.64550  Biso   1.000  C
  C50      1.0000 0.73400  0.68300  0.35450  Biso   1.000  C
  C51      1.0000 0.25200  0.37200  0.79500  Biso   1.000  C
  C52      1.0000 0.74800  0.62800  0.20500  Biso   1.000  C
  H73      1.0000 0.87380  0.87070  0.71230  Biso   1.000  H
  H74      1.0000 0.12620  0.12930  0.28770  Biso   1.000  H
  H75      1.0000 0.92250  0.91750  0.79630  Biso   1.000  H
  H76      1.0000 0.07750  0.08250  0.20370  Biso   1.000  H
  H77      1.0000 0.83140  0.69420  0.85790  Biso   1.000  H
  H78      1.0000 0.16860  0.30580  0.14210  Biso   1.000  H
  H79      1.0000 0.69220  0.78920  0.84330  Biso   1.000  H
  H80      1.0000 0.30780  0.21080  0.15670  Biso   1.000  H
  H81      1.0000 0.82530  0.76860  0.92670  Biso   1.000  H
  H82      1.0000 0.17470  0.23140  0.07330  Biso   1.000  H
  H83      1.0000 0.09740  0.59810  0.01760  Biso   1.000  H
  H84      1.0000 0.90260  0.40190  0.98240  Biso   1.000  H
  H85      1.0000 0.17110  0.62680  0.10740  Biso   1.000  H
  H86      1.0000 0.82890  0.37320  0.89260  Biso   1.000  H
  H87      1.0000 0.36880  0.55320  0.96560  Biso   1.000  H
  H88      1.0000 0.63120  0.44680  0.03440  Biso   1.000  H
  H89      1.0000 0.33170  0.47830  0.08080  Biso   1.000  H
  H90      1.0000 0.66830  0.52170  0.91920  Biso   1.000  H
  H91      1.0000 0.44240  0.58200  0.05460  Biso   1.000  H
  H92      1.0000 0.55760  0.41800  0.94540  Biso   1.000  H
  H93      1.0000 0.10060  0.00800  0.94860  Biso   1.000  H
  H94      1.0000 0.89940  0.99200  0.05140  Biso   1.000  H
  H95      1.0000 0.19550  0.94850  0.87900  Biso   1.000  H
  H96      1.0000 0.80450  0.05150  0.12100  Biso   1.000  H
  H97      1.0000 0.17640  0.10140  0.73280  Biso   1.000  H
  H98      1.0000 0.82360  0.89860  0.26720  Biso   1.000  H
  H99      1.0000 0.99590  0.08090  0.78400  Biso   1.000  H
  H100     1.0000 0.00410  0.91910  0.21600  Biso   1.000  H
  H101     1.0000 0.00650  0.26320  0.75260  Biso   1.000  H
  H102     1.0000 0.99350  0.73680  0.24740  Biso   1.000  H
  H103     1.0000 0.06890  0.21660  0.86560  Biso   1.000  H
  H104     1.0000 0.93110  0.78340  0.13440  Biso   1.000  H
  H105     1.0000 0.27330  0.25490  0.62130  Biso   1.000  H
  H106     1.0000 0.72670  0.74510  0.37870  Biso   1.000  H
  H107     1.0000 0.36200  0.36060  0.62050  Biso   1.000  H
  H108     1.0000 0.63800  0.63940  0.37950  Biso   1.000  H
  H109     1.0000 0.16680  0.36180  0.62080  Biso   1.000  H
  H110     1.0000 0.83320  0.63820  0.37920  Biso   1.000  H
  H111     1.0000 0.35150  0.41310  0.77020  Biso   1.000  H
  H112     1.0000 0.64850  0.58690  0.22980  Biso   1.000  H
  H113     1.0000 0.24610  0.34470  0.86880  Biso   1.000  H
  H114     1.0000 0.75390  0.65530  0.13120  Biso   1.000  H
  H115     1.0000 0.15610  0.41950  0.76910  Biso   1.000  H
  H116     1.0000 0.84390  0.58050  0.23090  Biso   1.000  H
