data_image0
_cell_length_a       10.849
_cell_length_b       11.44
_cell_length_c       13.868
_cell_angle_alpha    90
_cell_angle_beta     94.28
_cell_angle_gamma    90

_symmetry_space_group_name_H-M    "P 1"
_symmetry_int_tables_number       1

loop_
  _symmetry_equiv_pos_as_xyz
  'x, y, z'

loop_
  _atom_site_label
  _atom_site_occupancy
  _atom_site_fract_x
  _atom_site_fract_y
  _atom_site_fract_z
  _atom_site_thermal_displace_type
  _atom_site_B_iso_or_equiv
  _atom_site_type_symbol
  Cu1      1.0000 0.44662  0.99871  0.20270  Biso   1.000  Cu
  Cu2      1.0000 0.55338  0.49871  0.29730  Biso   1.000  Cu
  Cu3      1.0000 0.55338  0.00129  0.79730  Biso   1.000  Cu
  Cu4      1.0000 0.44662  0.50129  0.70270  Biso   1.000  Cu
  Cu5      1.0000 0.44116  0.25219  0.20258  Biso   1.000  Cu
  Cu6      1.0000 0.55884  0.75219  0.29742  Biso   1.000  Cu
  Cu7      1.0000 0.55884  0.74781  0.79742  Biso   1.000  Cu
  Cu8      1.0000 0.44116  0.24781  0.70258  Biso   1.000  Cu
  C1       1.0000 0.25680  0.84700  0.09540  Biso   1.000  C
  C2       1.0000 0.74320  0.34700  0.40460  Biso   1.000  C
  C3       1.0000 0.74320  0.15300  0.90460  Biso   1.000  C
  C4       1.0000 0.25680  0.65300  0.59540  Biso   1.000  C
  H1       1.0000 0.32260  0.79860  0.08270  Biso   1.000  H
  H2       1.0000 0.67740  0.29860  0.41730  Biso   1.000  H
  H3       1.0000 0.67740  0.20140  0.91730  Biso   1.000  H
  H4       1.0000 0.32260  0.70140  0.58270  Biso   1.000  H
  C5       1.0000 0.13930  0.81690  0.05970  Biso   1.000  C
  C6       1.0000 0.86070  0.31690  0.44030  Biso   1.000  C
  C7       1.0000 0.86070  0.18310  0.94030  Biso   1.000  C
  C8       1.0000 0.13930  0.68310  0.55970  Biso   1.000  C
  H5       1.0000 0.12570  0.74960  0.02280  Biso   1.000  H
  H6       1.0000 0.87430  0.24960  0.47720  Biso   1.000  H
  H7       1.0000 0.87430  0.25040  0.97720  Biso   1.000  H
  H8       1.0000 0.12570  0.75040  0.52280  Biso   1.000  H
  C9       1.0000 0.04220  0.88850  0.07970  Biso   1.000  C
  C10      1.0000 0.95780  0.38850  0.42030  Biso   1.000  C
  C11      1.0000 0.95780  0.11150  0.92030  Biso   1.000  C
  C12      1.0000 0.04220  0.61150  0.57970  Biso   1.000  C
  H9       1.0000 0.96200  0.86970  0.05660  Biso   1.000  H
  H10      1.0000 0.03800  0.36970  0.44340  Biso   1.000  H
  H11      1.0000 0.03800  0.13030  0.94340  Biso   1.000  H
  H12      1.0000 0.96200  0.63030  0.55660  Biso   1.000  H
  C13      1.0000 0.06490  0.98870  0.13440  Biso   1.000  C
  C14      1.0000 0.93510  0.48870  0.36560  Biso   1.000  C
  C15      1.0000 0.93510  0.01130  0.86560  Biso   1.000  C
  C16      1.0000 0.06490  0.51130  0.63440  Biso   1.000  C
  H13      1.0000 0.00020  0.03730  0.14900  Biso   1.000  H
  H14      1.0000 0.99980  0.53730  0.35100  Biso   1.000  H
  H15      1.0000 0.99980  0.96270  0.85100  Biso   1.000  H
  H16      1.0000 0.00020  0.46270  0.64900  Biso   1.000  H
  C17      1.0000 0.18520  0.01530  0.16690  Biso   1.000  C
  C18      1.0000 0.81480  0.51530  0.33310  Biso   1.000  C
  C19      1.0000 0.81480  0.98470  0.83310  Biso   1.000  C
  C20      1.0000 0.18520  0.48470  0.66690  Biso   1.000  C
  C21      1.0000 0.22210  0.12170  0.23170  Biso   1.000  C
  C22      1.0000 0.77790  0.62170  0.26830  Biso   1.000  C
  C23      1.0000 0.77790  0.87830  0.76830  Biso   1.000  C
  C24      1.0000 0.22210  0.37830  0.73170  Biso   1.000  C
  C25      1.0000 0.18000  0.24090  0.18860  Biso   1.000  C
  C26      1.0000 0.82000  0.74090  0.31140  Biso   1.000  C
  C27      1.0000 0.82000  0.75910  0.81140  Biso   1.000  C
  C28      1.0000 0.18000  0.25910  0.68860  Biso   1.000  C
  C29      1.0000 0.05690  0.27560  0.17740  Biso   1.000  C
  C30      1.0000 0.94310  0.77560  0.32260  Biso   1.000  C
  C31      1.0000 0.94310  0.72440  0.82260  Biso   1.000  C
  C32      1.0000 0.05690  0.22440  0.67740  Biso   1.000  C
  H17      1.0000 0.99430  0.22460  0.19220  Biso   1.000  H
  H18      1.0000 0.00570  0.72460  0.30780  Biso   1.000  H
  H19      1.0000 0.00570  0.77540  0.80780  Biso   1.000  H
  H20      1.0000 0.99430  0.27540  0.69220  Biso   1.000  H
  C33      1.0000 0.02890  0.38790  0.14380  Biso   1.000  C
  C34      1.0000 0.97110  0.88790  0.35620  Biso   1.000  C
  C35      1.0000 0.97110  0.61210  0.85620  Biso   1.000  C
  C36      1.0000 0.02890  0.11210  0.64380  Biso   1.000  C
  H21      1.0000 0.94720  0.41260  0.13550  Biso   1.000  H
  H22      1.0000 0.05280  0.91260  0.36450  Biso   1.000  H
  H23      1.0000 0.05280  0.58740  0.86450  Biso   1.000  H
  H24      1.0000 0.94720  0.08740  0.63550  Biso   1.000  H
  C37      1.0000 0.12250  0.46120  0.12310  Biso   1.000  C
  C38      1.0000 0.87750  0.96120  0.37690  Biso   1.000  C
  C39      1.0000 0.87750  0.53880  0.87690  Biso   1.000  C
  C40      1.0000 0.12250  0.03880  0.62310  Biso   1.000  C
  H25      1.0000 0.10500  0.53660  0.10110  Biso   1.000  H
  H26      1.0000 0.89500  0.03660  0.39890  Biso   1.000  H
  H27      1.0000 0.89500  0.46340  0.89890  Biso   1.000  H
  H28      1.0000 0.10500  0.96340  0.60110  Biso   1.000  H
  C41      1.0000 0.24330  0.42270  0.13500  Biso   1.000  C
  C42      1.0000 0.75670  0.92270  0.36500  Biso   1.000  C
  C43      1.0000 0.75670  0.57730  0.86500  Biso   1.000  C
  C44      1.0000 0.24330  0.07730  0.63500  Biso   1.000  C
  H29      1.0000 0.30690  0.47280  0.12050  Biso   1.000  H
  H30      1.0000 0.69310  0.97280  0.37950  Biso   1.000  H
  H31      1.0000 0.69310  0.52720  0.87950  Biso   1.000  H
  H32      1.0000 0.30690  0.02720  0.62050  Biso   1.000  H
  C45      1.0000 0.20130  0.17280  0.39610  Biso   1.000  C
  C46      1.0000 0.79870  0.67280  0.10390  Biso   1.000  C
  C47      1.0000 0.79870  0.82720  0.60390  Biso   1.000  C
  C48      1.0000 0.20130  0.32720  0.89610  Biso   1.000  C
  H33      1.0000 0.15500  0.15570  0.45080  Biso   1.000  H
  H34      1.0000 0.84500  0.65570  0.04920  Biso   1.000  H
  H35      1.0000 0.84500  0.84430  0.54920  Biso   1.000  H
  H36      1.0000 0.15500  0.34430  0.95080  Biso   1.000  H
  H37      1.0000 0.19060  0.25360  0.37880  Biso   1.000  H
  H38      1.0000 0.80940  0.75360  0.12120  Biso   1.000  H
  H39      1.0000 0.80940  0.74640  0.62120  Biso   1.000  H
  H40      1.0000 0.19060  0.24640  0.87880  Biso   1.000  H
  H41      1.0000 0.28730  0.15730  0.41240  Biso   1.000  H
  H42      1.0000 0.71270  0.65730  0.08760  Biso   1.000  H
  H43      1.0000 0.71270  0.84270  0.58760  Biso   1.000  H
  H44      1.0000 0.28730  0.34270  0.91240  Biso   1.000  H
  N1       1.0000 0.27900  0.94480  0.14836  Biso   1.000  N
  N2       1.0000 0.72100  0.44480  0.35164  Biso   1.000  N
  N3       1.0000 0.72100  0.05520  0.85164  Biso   1.000  N
  N4       1.0000 0.27900  0.55520  0.64836  Biso   1.000  N
  N5       1.0000 0.27090  0.31350  0.16741  Biso   1.000  N
  N6       1.0000 0.72910  0.81350  0.33259  Biso   1.000  N
  N7       1.0000 0.72910  0.68650  0.83259  Biso   1.000  N
  N8       1.0000 0.27090  0.18650  0.66741  Biso   1.000  N
  N9       1.0000 0.57350  0.13070  0.22130  Biso   1.000  N
  N10      1.0000 0.42650  0.63070  0.27870  Biso   1.000  N
  N11      1.0000 0.42650  0.86930  0.77870  Biso   1.000  N
  N12      1.0000 0.57350  0.36930  0.72130  Biso   1.000  N
  N13      1.0000 0.67720  0.13180  0.19480  Biso   1.000  N
  N14      1.0000 0.32280  0.63180  0.30520  Biso   1.000  N
  N15      1.0000 0.32280  0.86820  0.80520  Biso   1.000  N
  N16      1.0000 0.67720  0.36820  0.69480  Biso   1.000  N
  N17      1.0000 0.77520  0.13160  0.17380  Biso   1.000  N
  N18      1.0000 0.22480  0.63160  0.32620  Biso   1.000  N
  N19      1.0000 0.22480  0.86840  0.82620  Biso   1.000  N
  N20      1.0000 0.77520  0.36840  0.67380  Biso   1.000  N
  N21      1.0000 0.54820  0.87930  0.14750  Biso   1.000  N
  N22      1.0000 0.45180  0.37930  0.35250  Biso   1.000  N
  N23      1.0000 0.45180  0.12070  0.85250  Biso   1.000  N
  N24      1.0000 0.54820  0.62070  0.64750  Biso   1.000  N
  N25      1.0000 0.56920  0.87320  0.06470  Biso   1.000  N
  N26      1.0000 0.43080  0.37320  0.43530  Biso   1.000  N
  N27      1.0000 0.43080  0.12680  0.93530  Biso   1.000  N
  N28      1.0000 0.56920  0.62680  0.56470  Biso   1.000  N
  N29      1.0000 0.59120  0.86230  0.98540  Biso   1.000  N
  N30      1.0000 0.40880  0.36230  0.51460  Biso   1.000  N
  N31      1.0000 0.40880  0.13770  0.01460  Biso   1.000  N
  N32      1.0000 0.59120  0.63770  0.48540  Biso   1.000  N
  N33      1.0000 0.46680  0.88680  0.33970  Biso   1.000  N
  N34      1.0000 0.53320  0.38680  0.16030  Biso   1.000  N
  N35      1.0000 0.53320  0.11320  0.66030  Biso   1.000  N
  N36      1.0000 0.46680  0.61320  0.83970  Biso   1.000  N
  N37      1.0000 0.39670  0.88590  0.40220  Biso   1.000  N
  N38      1.0000 0.60330  0.38590  0.09780  Biso   1.000  N
  N39      1.0000 0.60330  0.11410  0.59780  Biso   1.000  N
  N40      1.0000 0.39670  0.61410  0.90220  Biso   1.000  N
  N41      1.0000 0.32820  0.89050  0.46100  Biso   1.000  N
  N42      1.0000 0.67180  0.39050  0.03900  Biso   1.000  N
  N43      1.0000 0.67180  0.10950  0.53900  Biso   1.000  N
  N44      1.0000 0.32820  0.60950  0.96100  Biso   1.000  N
  O1       1.0000 0.34823  0.12345  0.25253  Biso   1.000  O
  O2       1.0000 0.65177  0.62345  0.24747  Biso   1.000  O
  O3       1.0000 0.65177  0.87655  0.74747  Biso   1.000  O
  O4       1.0000 0.34823  0.37655  0.75253  Biso   1.000  O
  O5       1.0000 0.15800  0.10103  0.31634  Biso   1.000  O
  O6       1.0000 0.84200  0.60103  0.18366  Biso   1.000  O
  O7       1.0000 0.84200  0.89897  0.68366  Biso   1.000  O
  O8       1.0000 0.15800  0.39897  0.81634  Biso   1.000  O
