data_image0
_cell_length_a       7.5476
_cell_length_b       10.822
_cell_length_c       10.93
_cell_angle_alpha    96.754
_cell_angle_beta     91.454
_cell_angle_gamma    105.337

_symmetry_space_group_name_H-M    "P 1"
_symmetry_int_tables_number       1

loop_
  _symmetry_equiv_pos_as_xyz
  'x, y, z'

loop_
  _atom_site_label
  _atom_site_occupancy
  _atom_site_fract_x
  _atom_site_fract_y
  _atom_site_fract_z
  _atom_site_thermal_displace_type
  _atom_site_B_iso_or_equiv
  _atom_site_type_symbol
  Cu1      1.0000 0.50000  0.50000  0.50000  Biso   1.000  Cu
  S1       1.0000 0.00719  0.14602  0.32842  Biso   1.000  S
  S2       1.0000 0.99281  0.85398  0.67158  Biso   1.000  S
  S3       1.0000 0.58350  0.19801  0.55031  Biso   1.000  S
  S4       1.0000 0.41650  0.80199  0.44969  Biso   1.000  S
  S5       1.0000 0.57149  0.79752  0.93974  Biso   1.000  S
  S6       1.0000 0.42851  0.20248  0.06026  Biso   1.000  S
  O1       1.0000 0.79750  0.41120  0.90084  Biso   1.000  O
  O2       1.0000 0.20250  0.58880  0.09916  Biso   1.000  O
  H1       1.0000 0.73420  0.34400  0.92220  Biso   1.000  H
  H2       1.0000 0.26580  0.65600  0.07780  Biso   1.000  H
  O3       1.0000 0.64080  0.34290  0.57170  Biso   1.000  O
  O4       1.0000 0.35920  0.65710  0.42830  Biso   1.000  O
  O5       1.0000 0.44290  0.81030  0.04080  Biso   1.000  O
  O6       1.0000 0.55710  0.18970  0.95920  Biso   1.000  O
  N1       1.0000 0.34550  0.49380  0.64990  Biso   1.000  N
  N2       1.0000 0.65450  0.50620  0.35010  Biso   1.000  N
  N3       1.0000 0.29670  0.36200  0.40730  Biso   1.000  N
  N4       1.0000 0.70330  0.63800  0.59270  Biso   1.000  N
  C1       1.0000 0.40810  0.47570  0.76070  Biso   1.000  C
  C2       1.0000 0.59190  0.52430  0.23930  Biso   1.000  C
  H3       1.0000 0.52960  0.47300  0.77100  Biso   1.000  H
  H4       1.0000 0.47040  0.52700  0.22900  Biso   1.000  H
  C3       1.0000 0.29800  0.46090  0.85970  Biso   1.000  C
  C4       1.0000 0.70200  0.53910  0.14030  Biso   1.000  C
  H5       1.0000 0.34680  0.44950  0.93530  Biso   1.000  H
  H6       1.0000 0.65320  0.55050  0.06470  Biso   1.000  H
  C5       1.0000 0.11460  0.46290  0.84770  Biso   1.000  C
  C6       1.0000 0.88540  0.53710  0.15230  Biso   1.000  C
  C7       1.0000 0.05370  0.48610  0.73420  Biso   1.000  C
  C8       1.0000 0.94630  0.51390  0.26580  Biso   1.000  C
  H7       1.0000 0.93420  0.49240  0.72210  Biso   1.000  H
  H8       1.0000 0.06580  0.50760  0.27790  Biso   1.000  H
  C9       1.0000 0.17130  0.49990  0.63960  Biso   1.000  C
  C10      1.0000 0.82870  0.50010  0.36040  Biso   1.000  C
  H9       1.0000 0.12680  0.51430  0.56390  Biso   1.000  H
  H10      1.0000 0.87320  0.48570  0.43610  Biso   1.000  H
  C11      1.0000 0.98120  0.43730  0.95330  Biso   1.000  C
  C12      1.0000 0.01880  0.56270  0.04670  Biso   1.000  C
  C13      1.0000 0.00680  0.32340  0.01550  Biso   1.000  C
  C14      1.0000 0.99320  0.67660  0.98450  Biso   1.000  C
  H11      1.0000 0.91310  0.30110  0.07300  Biso   1.000  H
  H12      1.0000 0.08690  0.69890  0.92700  Biso   1.000  H
  H13      1.0000 0.12580  0.34700  0.05860  Biso   1.000  H
  H14      1.0000 0.87420  0.65300  0.94140  Biso   1.000  H
  H15      1.0000 0.99770  0.25060  0.95400  Biso   1.000  H
  H16      1.0000 0.00230  0.74940  0.04600  Biso   1.000  H
  C15      1.0000 0.17610  0.27300  0.37480  Biso   1.000  C
  C16      1.0000 0.82390  0.72700  0.62520  Biso   1.000  C
  C17      1.0000 0.39220  0.14770  0.64190  Biso   1.000  C
  C18      1.0000 0.60780  0.85230  0.35810  Biso   1.000  C
  H17      1.0000 0.42570  0.18440  0.72630  Biso   1.000  H
  H18      1.0000 0.57430  0.81560  0.27370  Biso   1.000  H
  H19      1.0000 0.35690  0.05510  0.63650  Biso   1.000  H
  H20      1.0000 0.64310  0.94490  0.36350  Biso   1.000  H
  H21      1.0000 0.29090  0.17630  0.61230  Biso   1.000  H
  H22      1.0000 0.70910  0.82370  0.38770  Biso   1.000  H
  C19      1.0000 0.74900  0.14840  0.63760  Biso   1.000  C
  C20      1.0000 0.25100  0.85160  0.36240  Biso   1.000  C
  H23      1.0000 0.86660  0.17370  0.60270  Biso   1.000  H
  H24      1.0000 0.13340  0.82630  0.39730  Biso   1.000  H
  H25      1.0000 0.71150  0.05620  0.63560  Biso   1.000  H
  H26      1.0000 0.28850  0.94380  0.36440  Biso   1.000  H
  H27      1.0000 0.75800  0.18860  0.72150  Biso   1.000  H
  H28      1.0000 0.24200  0.81140  0.27850  Biso   1.000  H
  C21      1.0000 0.76120  0.93730  0.97070  Biso   1.000  C
  C22      1.0000 0.23880  0.06270  0.02930  Biso   1.000  C
  H29      1.0000 0.71830  0.01330  0.97100  Biso   1.000  H
  H30      1.0000 0.28170  0.98670  0.02900  Biso   1.000  H
  H31      1.0000 0.84780  0.93610  0.90810  Biso   1.000  H
  H32      1.0000 0.15220  0.06390  0.09190  Biso   1.000  H
  H33      1.0000 0.81990  0.93800  0.04990  Biso   1.000  H
  H34      1.0000 0.18010  0.06200  0.95010  Biso   1.000  H
  C23      1.0000 0.47480  0.83680  0.80490  Biso   1.000  C
  C24      1.0000 0.52520  0.16320  0.19510  Biso   1.000  C
  H35      1.0000 0.35920  0.77450  0.78060  Biso   1.000  H
  H36      1.0000 0.64080  0.22550  0.21940  Biso   1.000  H
  H37      1.0000 0.55720  0.83600  0.73950  Biso   1.000  H
  H38      1.0000 0.44280  0.16400  0.26050  Biso   1.000  H
  H39      1.0000 0.45550  0.92130  0.82150  Biso   1.000  H
  H40      1.0000 0.54450  0.07870  0.17850  Biso   1.000  H
