data_image0
_cell_length_a       9.85
_cell_length_b       15.437
_cell_length_c       11.78
_cell_angle_alpha    90
_cell_angle_beta     93.08
_cell_angle_gamma    90

_symmetry_space_group_name_H-M    "P 1"
_symmetry_int_tables_number       1

loop_
  _symmetry_equiv_pos_as_xyz
  'x, y, z'

loop_
  _atom_site_label
  _atom_site_occupancy
  _atom_site_fract_x
  _atom_site_fract_y
  _atom_site_fract_z
  _atom_site_thermal_displace_type
  _atom_site_B_iso_or_equiv
  _atom_site_type_symbol
  Cl1      1.0000 0.14520  0.59840  0.38670  Biso   1.000  Cl
  Cl2      1.0000 0.35480  0.09840  0.61330  Biso   1.000  Cl
  Cl3      1.0000 0.85480  0.40160  0.61330  Biso   1.000  Cl
  Cl4      1.0000 0.64520  0.90160  0.38670  Biso   1.000  Cl
  Cl5      1.0000 0.19220  0.36080  0.07900  Biso   1.000  Cl
  Cl6      1.0000 0.30780  0.86080  0.92100  Biso   1.000  Cl
  Cl7      1.0000 0.80780  0.63920  0.92100  Biso   1.000  Cl
  Cl8      1.0000 0.69220  0.13920  0.07900  Biso   1.000  Cl
  O1       1.0000 0.28640  0.62080  0.39830  Biso   1.000  O
  O2       1.0000 0.21360  0.12080  0.60170  Biso   1.000  O
  O3       1.0000 0.71360  0.37920  0.60170  Biso   1.000  O
  O4       1.0000 0.78640  0.87920  0.39830  Biso   1.000  O
  O5       1.0000 0.12960  0.50850  0.40340  Biso   1.000  O
  O6       1.0000 0.37040  0.00850  0.59660  Biso   1.000  O
  O7       1.0000 0.87040  0.49150  0.59660  Biso   1.000  O
  O8       1.0000 0.62960  0.99150  0.40340  Biso   1.000  O
  O9       1.0000 0.09080  0.61960  0.27590  Biso   1.000  O
  O10      1.0000 0.40920  0.11960  0.72410  Biso   1.000  O
  O11      1.0000 0.90920  0.38040  0.72410  Biso   1.000  O
  O12      1.0000 0.59080  0.88040  0.27590  Biso   1.000  O
  O13      1.0000 0.07300  0.64400  0.46850  Biso   1.000  O
  O14      1.0000 0.42700  0.14400  0.53150  Biso   1.000  O
  O15      1.0000 0.92700  0.35600  0.53150  Biso   1.000  O
  O16      1.0000 0.57300  0.85600  0.46850  Biso   1.000  O
  O17      1.0000 0.11390  0.28520  0.09340  Biso   1.000  O
  O18      1.0000 0.38610  0.78520  0.90660  Biso   1.000  O
  O19      1.0000 0.88610  0.71480  0.90660  Biso   1.000  O
  O20      1.0000 0.61390  0.21480  0.09340  Biso   1.000  O
  O21      1.0000 0.12330  0.41080  0.99050  Biso   1.000  O
  O22      1.0000 0.37670  0.91080  0.00950  Biso   1.000  O
  O23      1.0000 0.87670  0.58920  0.00950  Biso   1.000  O
  O24      1.0000 0.62330  0.08920  0.99050  Biso   1.000  O
  O25      1.0000 0.32190  0.34270  0.04260  Biso   1.000  O
  O26      1.0000 0.17810  0.84270  0.95740  Biso   1.000  O
  O27      1.0000 0.67810  0.65730  0.95740  Biso   1.000  O
  O28      1.0000 0.82190  0.15730  0.04260  Biso   1.000  O
  O29      1.0000 0.19460  0.41290  0.17730  Biso   1.000  O
  O30      1.0000 0.30540  0.91290  0.82270  Biso   1.000  O
  O31      1.0000 0.80540  0.58710  0.82270  Biso   1.000  O
  O32      1.0000 0.69460  0.08710  0.17730  Biso   1.000  O
  O33      1.0000 0.18920  0.04350  0.10950  Biso   1.000  O
  O34      1.0000 0.31080  0.54350  0.89050  Biso   1.000  O
  O35      1.0000 0.81080  0.95650  0.89050  Biso   1.000  O
  O36      1.0000 0.68920  0.45650  0.10950  Biso   1.000  O
  O37      1.0000 0.16110  0.93600  0.41780  Biso   1.000  O
  O38      1.0000 0.33890  0.43600  0.58220  Biso   1.000  O
  O39      1.0000 0.83890  0.06400  0.58220  Biso   1.000  O
  O40      1.0000 0.66110  0.56400  0.41780  Biso   1.000  O
  N1       1.0000 0.99830  0.08820  0.81010  Biso   1.000  N
  N2       1.0000 0.50170  0.58820  0.18990  Biso   1.000  N
  N3       1.0000 0.00170  0.91180  0.18990  Biso   1.000  N
  N4       1.0000 0.49830  0.41180  0.81010  Biso   1.000  N
  N5       1.0000 0.02200  0.17420  0.79260  Biso   1.000  N
  N6       1.0000 0.47800  0.67420  0.20740  Biso   1.000  N
  N7       1.0000 0.97800  0.82580  0.20740  Biso   1.000  N
  N8       1.0000 0.52200  0.32580  0.79260  Biso   1.000  N
  N9       1.0000 0.13060  0.19810  0.85090  Biso   1.000  N
  N10      1.0000 0.36940  0.69810  0.14910  Biso   1.000  N
  N11      1.0000 0.86940  0.80190  0.14910  Biso   1.000  N
  N12      1.0000 0.63060  0.30190  0.85090  Biso   1.000  N
  N13      1.0000 0.17880  0.12760  0.90610  Biso   1.000  N
  N14      1.0000 0.32120  0.62760  0.09390  Biso   1.000  N
  N15      1.0000 0.82120  0.87240  0.09390  Biso   1.000  N
  N16      1.0000 0.67880  0.37240  0.90610  Biso   1.000  N
  N17      1.0000 0.37250  0.11950  0.17520  Biso   1.000  N
  N18      1.0000 0.12750  0.61950  0.82480  Biso   1.000  N
  N19      1.0000 0.62750  0.88050  0.82480  Biso   1.000  N
  N20      1.0000 0.87250  0.38050  0.17520  Biso   1.000  N
  N21      1.0000 0.36970  0.07850  0.28260  Biso   1.000  N
  N22      1.0000 0.13030  0.57850  0.71740  Biso   1.000  N
  N23      1.0000 0.63030  0.92150  0.71740  Biso   1.000  N
  N24      1.0000 0.86970  0.42150  0.28260  Biso   1.000  N
  N25      1.0000 0.05330  0.08360  0.31530  Biso   1.000  N
  N26      1.0000 0.44670  0.58360  0.68470  Biso   1.000  N
  N27      1.0000 0.94670  0.91640  0.68470  Biso   1.000  N
  N28      1.0000 0.55330  0.41640  0.31530  Biso   1.000  N
  N29      1.0000 0.08030  0.16880  0.31790  Biso   1.000  N
  N30      1.0000 0.41970  0.66880  0.68210  Biso   1.000  N
  N31      1.0000 0.91970  0.83120  0.68210  Biso   1.000  N
  N32      1.0000 0.58030  0.33120  0.31790  Biso   1.000  N
  N33      1.0000 0.98740  0.21110  0.36400  Biso   1.000  N
  N34      1.0000 0.51260  0.71110  0.63600  Biso   1.000  N
  N35      1.0000 0.01260  0.78890  0.63600  Biso   1.000  N
  N36      1.0000 0.48740  0.28890  0.36400  Biso   1.000  N
  N37      1.0000 0.89420  0.15220  0.39250  Biso   1.000  N
  N38      1.0000 0.60580  0.65220  0.60750  Biso   1.000  N
  N39      1.0000 0.10580  0.84780  0.60750  Biso   1.000  N
  N40      1.0000 0.39420  0.34780  0.39250  Biso   1.000  N
  N41      1.0000 0.28610  0.82960  0.35080  Biso   1.000  N
  N42      1.0000 0.21390  0.32960  0.64920  Biso   1.000  N
  N43      1.0000 0.71390  0.17040  0.64920  Biso   1.000  N
  N44      1.0000 0.78610  0.67040  0.35080  Biso   1.000  N
  N45      1.0000 0.29190  0.87630  0.24660  Biso   1.000  N
  N46      1.0000 0.20810  0.37630  0.75340  Biso   1.000  N
  N47      1.0000 0.70810  0.12370  0.75340  Biso   1.000  N
  N48      1.0000 0.79190  0.62370  0.24660  Biso   1.000  N
  C1       1.0000 0.28190  0.09560  0.09490  Biso   1.000  C
  C2       1.0000 0.21810  0.59560  0.90510  Biso   1.000  C
  C3       1.0000 0.71810  0.90440  0.90510  Biso   1.000  C
  C4       1.0000 0.78190  0.40440  0.09490  Biso   1.000  C
  C5       1.0000 0.30350  0.13180  0.97830  Biso   1.000  C
  C6       1.0000 0.19650  0.63180  0.02170  Biso   1.000  C
  C7       1.0000 0.69650  0.86820  0.02170  Biso   1.000  C
  C8       1.0000 0.80350  0.36820  0.97830  Biso   1.000  C
  C9       1.0000 0.09690  0.06180  0.88010  Biso   1.000  C
  C10      1.0000 0.40310  0.56180  0.11990  Biso   1.000  C
  C11      1.0000 0.90310  0.93820  0.11990  Biso   1.000  C
  C12      1.0000 0.59690  0.43820  0.88010  Biso   1.000  C
  C13      1.0000 0.22100  0.86650  0.43160  Biso   1.000  C
  C14      1.0000 0.27900  0.36650  0.56840  Biso   1.000  C
  C15      1.0000 0.77900  0.13350  0.56840  Biso   1.000  C
  C16      1.0000 0.72100  0.63350  0.43160  Biso   1.000  C
  C17      1.0000 0.77470  0.17700  0.45270  Biso   1.000  C
  C18      1.0000 0.72530  0.67700  0.54730  Biso   1.000  C
  C19      1.0000 0.22530  0.82300  0.54730  Biso   1.000  C
  C20      1.0000 0.27470  0.32300  0.45270  Biso   1.000  C
  C21      1.0000 0.93630  0.07480  0.36160  Biso   1.000  C
  C22      1.0000 0.56370  0.57480  0.63840  Biso   1.000  C
  C23      1.0000 0.06370  0.92520  0.63840  Biso   1.000  C
  C24      1.0000 0.43630  0.42520  0.36160  Biso   1.000  C
  H1       1.0000 0.36300  0.09800  0.94600  Biso   1.000  H
  H2       1.0000 0.13700  0.59800  0.05400  Biso   1.000  H
  H3       1.0000 0.63700  0.90200  0.05400  Biso   1.000  H
  H4       1.0000 0.86300  0.40200  0.94600  Biso   1.000  H
  H5       1.0000 0.33300  0.19500  0.98000  Biso   1.000  H
  H6       1.0000 0.16700  0.69500  0.02000  Biso   1.000  H
  H7       1.0000 0.66700  0.80500  0.02000  Biso   1.000  H
  H8       1.0000 0.83300  0.30500  0.98000  Biso   1.000  H
  H9       1.0000 0.11400  0.00400  0.90500  Biso   1.000  H
  H10      1.0000 0.38600  0.50400  0.09500  Biso   1.000  H
  H11      1.0000 0.88600  0.99600  0.09500  Biso   1.000  H
  H12      1.0000 0.61400  0.49600  0.90500  Biso   1.000  H
  H13      1.0000 0.76900  0.24300  0.46000  Biso   1.000  H
  H14      1.0000 0.73100  0.74300  0.54000  Biso   1.000  H
  H15      1.0000 0.23100  0.75700  0.54000  Biso   1.000  H
  H16      1.0000 0.26900  0.25700  0.46000  Biso   1.000  H
  H17      1.0000 0.69400  0.13200  0.40400  Biso   1.000  H
  H18      1.0000 0.80600  0.63200  0.59600  Biso   1.000  H
  H19      1.0000 0.30600  0.86800  0.59600  Biso   1.000  H
  H20      1.0000 0.19400  0.36800  0.40400  Biso   1.000  H
  H21      1.0000 0.88400  0.02800  0.37400  Biso   1.000  H
  H22      1.0000 0.61600  0.52800  0.62600  Biso   1.000  H
  H23      1.0000 0.11600  0.97200  0.62600  Biso   1.000  H
  H24      1.0000 0.38400  0.47200  0.37400  Biso   1.000  H
  H25      1.0000 0.43500  0.16100  0.16400  Biso   1.000  H
  H26      1.0000 0.06500  0.66100  0.83600  Biso   1.000  H
  H27      1.0000 0.56500  0.83900  0.83600  Biso   1.000  H
  H28      1.0000 0.93500  0.33900  0.16400  Biso   1.000  H
  H29      1.0000 0.45200  0.04800  0.29300  Biso   1.000  H
  H30      1.0000 0.04800  0.54800  0.70700  Biso   1.000  H
  H31      1.0000 0.54800  0.95200  0.70700  Biso   1.000  H
  H32      1.0000 0.95200  0.45200  0.29300  Biso   1.000  H
  H33      1.0000 0.35100  0.11700  0.32900  Biso   1.000  H
  H34      1.0000 0.14900  0.61700  0.67100  Biso   1.000  H
  H35      1.0000 0.64900  0.88300  0.67100  Biso   1.000  H
  H36      1.0000 0.85100  0.38300  0.32900  Biso   1.000  H
  H37      1.0000 0.31600  0.78500  0.37000  Biso   1.000  H
  H38      1.0000 0.18400  0.28500  0.63000  Biso   1.000  H
  H39      1.0000 0.68400  0.21500  0.63000  Biso   1.000  H
  H40      1.0000 0.81600  0.71500  0.37000  Biso   1.000  H
  H41      1.0000 0.36800  0.88200  0.23500  Biso   1.000  H
  H42      1.0000 0.13200  0.38200  0.76500  Biso   1.000  H
  H43      1.0000 0.63200  0.11800  0.76500  Biso   1.000  H
  H44      1.0000 0.86800  0.61800  0.23500  Biso   1.000  H
  H45      1.0000 0.26300  0.84000  0.19200  Biso   1.000  H
  H46      1.0000 0.23700  0.34000  0.80800  Biso   1.000  H
  H47      1.0000 0.73700  0.16000  0.80800  Biso   1.000  H
  H48      1.0000 0.76300  0.66000  0.19200  Biso   1.000  H
  Cu1      1.0000 0.17780  0.98820  0.26340  Biso   1.000  Cu
  Cu2      1.0000 0.32220  0.48820  0.73660  Biso   1.000  Cu
  Cu3      1.0000 0.82220  0.01180  0.73660  Biso   1.000  Cu
  Cu4      1.0000 0.67780  0.51180  0.26340  Biso   1.000  Cu
