data_image0
_cell_length_a       14.5935
_cell_length_b       11.2895
_cell_length_c       8.5771
_cell_angle_alpha    90
_cell_angle_beta     101.912
_cell_angle_gamma    90

_symmetry_space_group_name_H-M    "P 1"
_symmetry_int_tables_number       1

loop_
  _symmetry_equiv_pos_as_xyz
  'x, y, z'

loop_
  _atom_site_label
  _atom_site_occupancy
  _atom_site_fract_x
  _atom_site_fract_y
  _atom_site_fract_z
  _atom_site_thermal_displace_type
  _atom_site_B_iso_or_equiv
  _atom_site_type_symbol
  O1       1.0000 0.91885  0.35677  0.99090  Biso   1.000  O
  O2       1.0000 0.08115  0.85677  0.50910  Biso   1.000  O
  O3       1.0000 0.08115  0.64323  0.00910  Biso   1.000  O
  O4       1.0000 0.91885  0.14323  0.49090  Biso   1.000  O
  O5       1.0000 0.95707  0.57010  0.19020  Biso   1.000  O
  O6       1.0000 0.04293  0.07010  0.30980  Biso   1.000  O
  O7       1.0000 0.04293  0.42990  0.80980  Biso   1.000  O
  O8       1.0000 0.95707  0.92990  0.69020  Biso   1.000  O
  C1       1.0000 0.77120  0.25460  0.94120  Biso   1.000  C
  C2       1.0000 0.22880  0.75460  0.55880  Biso   1.000  C
  C3       1.0000 0.22880  0.74540  0.05880  Biso   1.000  C
  C4       1.0000 0.77120  0.24540  0.44120  Biso   1.000  C
  H1       1.0000 0.72840  0.26130  0.83880  Biso   1.000  H
  H2       1.0000 0.27160  0.76130  0.66120  Biso   1.000  H
  H3       1.0000 0.27160  0.73870  0.16120  Biso   1.000  H
  H4       1.0000 0.72840  0.23870  0.33880  Biso   1.000  H
  H5       1.0000 0.76360  0.17650  0.98410  Biso   1.000  H
  H6       1.0000 0.23640  0.67650  0.51590  Biso   1.000  H
  H7       1.0000 0.23640  0.82350  0.01590  Biso   1.000  H
  H8       1.0000 0.76360  0.32350  0.48410  Biso   1.000  H
  C5       1.0000 0.87110  0.26970  0.91980  Biso   1.000  C
  C6       1.0000 0.12890  0.76970  0.58020  Biso   1.000  C
  C7       1.0000 0.12890  0.73030  0.08020  Biso   1.000  C
  C8       1.0000 0.87110  0.23030  0.41980  Biso   1.000  C
  C9       1.0000 0.91550  0.67630  0.24250  Biso   1.000  C
  C10      1.0000 0.08450  0.17630  0.25750  Biso   1.000  C
  C11      1.0000 0.08450  0.32370  0.75750  Biso   1.000  C
  C12      1.0000 0.91550  0.82370  0.74250  Biso   1.000  C
  H9       1.0000 0.88230  0.72100  0.15170  Biso   1.000  H
  H10      1.0000 0.11770  0.22100  0.34830  Biso   1.000  H
  H11      1.0000 0.11770  0.27900  0.84830  Biso   1.000  H
  H12      1.0000 0.88230  0.77900  0.65170  Biso   1.000  H
  H13      1.0000 0.96340  0.72650  0.30460  Biso   1.000  H
  H14      1.0000 0.03660  0.22650  0.19540  Biso   1.000  H
  H15      1.0000 0.03660  0.27350  0.69540  Biso   1.000  H
  H16      1.0000 0.96340  0.77350  0.80460  Biso   1.000  H
  O9       1.0000 0.90079  0.19940  0.83320  Biso   1.000  O
  O10      1.0000 0.09921  0.69940  0.66680  Biso   1.000  O
  O11      1.0000 0.09921  0.80060  0.16680  Biso   1.000  O
  O12      1.0000 0.90079  0.30060  0.33320  Biso   1.000  O
  Cl1      1.0000 0.74507  0.54796  0.71611  Biso   1.000  Cl
  Cl2      1.0000 0.25493  0.04796  0.78389  Biso   1.000  Cl
  Cl3      1.0000 0.25493  0.45204  0.28389  Biso   1.000  Cl
  Cl4      1.0000 0.74507  0.95204  0.21611  Biso   1.000  Cl
  O13      1.0000 0.77070  0.57740  0.88200  Biso   1.000  O
  O14      1.0000 0.22930  0.07740  0.61800  Biso   1.000  O
  O15      1.0000 0.22930  0.42260  0.11800  Biso   1.000  O
  O16      1.0000 0.77070  0.92260  0.38200  Biso   1.000  O
  O17      1.0000 0.67140  0.46370  0.69620  Biso   1.000  O
  O18      1.0000 0.32860  0.96370  0.80380  Biso   1.000  O
  O19      1.0000 0.32860  0.53630  0.30380  Biso   1.000  O
  O20      1.0000 0.67140  0.03630  0.19620  Biso   1.000  O
  O21      1.0000 0.71400  0.65170  0.62500  Biso   1.000  O
  O22      1.0000 0.28600  0.15170  0.87500  Biso   1.000  O
  O23      1.0000 0.28600  0.34830  0.37500  Biso   1.000  O
  O24      1.0000 0.71400  0.84830  0.12500  Biso   1.000  O
  O25      1.0000 0.82180  0.49810  0.66290  Biso   1.000  O
  O26      1.0000 0.17820  0.99810  0.83710  Biso   1.000  O
  O27      1.0000 0.17820  0.50190  0.33710  Biso   1.000  O
  O28      1.0000 0.82180  0.00190  0.16290  Biso   1.000  O
  H17      1.0000 0.00000  0.59300  0.11600  Biso   1.000  H
  H18      1.0000 0.00000  0.09300  0.38400  Biso   1.000  H
  H19      1.0000 0.00000  0.40700  0.88400  Biso   1.000  H
  H20      1.0000 0.00000  0.90700  0.61600  Biso   1.000  H
  Cu1      1.0000 0.85954  0.44826  0.12848  Biso   1.000  Cu
  Cu2      1.0000 0.14046  0.94826  0.37152  Biso   1.000  Cu
  Cu3      1.0000 0.14046  0.55174  0.87152  Biso   1.000  Cu
  Cu4      1.0000 0.85954  0.05174  0.62848  Biso   1.000  Cu
  N1       1.0000 0.79035  0.54200  0.24980  Biso   1.000  N
  N2       1.0000 0.20965  0.04200  0.25020  Biso   1.000  N
  N3       1.0000 0.20965  0.45800  0.75020  Biso   1.000  N
  N4       1.0000 0.79035  0.95800  0.74980  Biso   1.000  N
  O29      1.0000 0.74941  0.34404  0.04830  Biso   1.000  O
  O30      1.0000 0.25059  0.84404  0.45170  Biso   1.000  O
  O31      1.0000 0.25059  0.65596  0.95170  Biso   1.000  O
  O32      1.0000 0.74941  0.15596  0.54830  Biso   1.000  O
  C13      1.0000 0.63840  0.44520  0.16960  Biso   1.000  C
  C14      1.0000 0.36160  0.94520  0.33040  Biso   1.000  C
  C15      1.0000 0.36160  0.55480  0.83040  Biso   1.000  C
  C16      1.0000 0.63840  0.05480  0.66960  Biso   1.000  C
  C17      1.0000 0.70370  0.53420  0.25220  Biso   1.000  C
  C18      1.0000 0.29630  0.03420  0.24780  Biso   1.000  C
  C19      1.0000 0.29630  0.46580  0.74780  Biso   1.000  C
  C20      1.0000 0.70370  0.96580  0.75220  Biso   1.000  C
  H21      1.0000 0.67960  0.59030  0.31220  Biso   1.000  H
  H22      1.0000 0.32040  0.09030  0.18780  Biso   1.000  H
  H23      1.0000 0.32040  0.40970  0.68780  Biso   1.000  H
  H24      1.0000 0.67960  0.90970  0.81220  Biso   1.000  H
  C21      1.0000 0.54610  0.45070  0.19730  Biso   1.000  C
  C22      1.0000 0.45390  0.95070  0.30270  Biso   1.000  C
  C23      1.0000 0.45390  0.54930  0.80270  Biso   1.000  C
  C24      1.0000 0.54610  0.04930  0.69730  Biso   1.000  C
  H25      1.0000 0.53080  0.50940  0.26360  Biso   1.000  H
  H26      1.0000 0.46920  0.00940  0.23640  Biso   1.000  H
  H27      1.0000 0.46920  0.49060  0.73640  Biso   1.000  H
  H28      1.0000 0.53080  0.99060  0.76360  Biso   1.000  H
  C25      1.0000 0.59060  0.27390  0.00390  Biso   1.000  C
  C26      1.0000 0.40940  0.77390  0.49610  Biso   1.000  C
  C27      1.0000 0.40940  0.72610  0.99610  Biso   1.000  C
  C28      1.0000 0.59060  0.22610  0.50390  Biso   1.000  C
  H29      1.0000 0.60460  0.21390  0.93820  Biso   1.000  H
  H30      1.0000 0.39540  0.71390  0.56180  Biso   1.000  H
  H31      1.0000 0.39540  0.78610  0.06180  Biso   1.000  H
  H32      1.0000 0.60460  0.28610  0.43820  Biso   1.000  H
  C29      1.0000 0.47900  0.37120  0.12830  Biso   1.000  C
  C30      1.0000 0.52100  0.87120  0.37170  Biso   1.000  C
  C31      1.0000 0.52100  0.62880  0.87170  Biso   1.000  C
  C32      1.0000 0.47900  0.12880  0.62830  Biso   1.000  C
  H33      1.0000 0.41840  0.37740  0.14600  Biso   1.000  H
  H34      1.0000 0.58160  0.87740  0.35400  Biso   1.000  H
  H35      1.0000 0.58160  0.62260  0.85400  Biso   1.000  H
  H36      1.0000 0.41840  0.12260  0.64600  Biso   1.000  H
  C33      1.0000 0.85000  0.63430  0.34120  Biso   1.000  C
  C34      1.0000 0.15000  0.13430  0.15880  Biso   1.000  C
  C35      1.0000 0.15000  0.36570  0.65880  Biso   1.000  C
  C36      1.0000 0.85000  0.86570  0.84120  Biso   1.000  C
  H37      1.0000 0.88460  0.60200  0.44090  Biso   1.000  H
  H38      1.0000 0.11540  0.10200  0.05910  Biso   1.000  H
  H39      1.0000 0.11540  0.39800  0.55910  Biso   1.000  H
  H40      1.0000 0.88460  0.89800  0.94090  Biso   1.000  H
  H41      1.0000 0.81170  0.69940  0.36490  Biso   1.000  H
  H42      1.0000 0.18830  0.19940  0.13510  Biso   1.000  H
  H43      1.0000 0.18830  0.30060  0.63510  Biso   1.000  H
  H44      1.0000 0.81170  0.80060  0.86490  Biso   1.000  H
  C37      1.0000 0.65890  0.35380  0.07180  Biso   1.000  C
  C38      1.0000 0.34110  0.85380  0.42820  Biso   1.000  C
  C39      1.0000 0.34110  0.64620  0.92820  Biso   1.000  C
  C40      1.0000 0.65890  0.14620  0.57180  Biso   1.000  C
  C41      1.0000 0.50080  0.28340  0.03410  Biso   1.000  C
  C42      1.0000 0.49920  0.78340  0.46590  Biso   1.000  C
  C43      1.0000 0.49920  0.71660  0.96590  Biso   1.000  C
  C44      1.0000 0.50080  0.21660  0.53410  Biso   1.000  C
  H45      1.0000 0.45510  0.22890  0.98920  Biso   1.000  H
  H46      1.0000 0.54490  0.72890  0.51080  Biso   1.000  H
  H47      1.0000 0.54490  0.77110  0.01080  Biso   1.000  H
  H48      1.0000 0.45510  0.27110  0.48920  Biso   1.000  H
