data_image0
_cell_length_a       21.186
_cell_length_b       21.098
_cell_length_c       15.079
_cell_angle_alpha    90
_cell_angle_beta     92.06
_cell_angle_gamma    90

_symmetry_space_group_name_H-M    "P 1"
_symmetry_int_tables_number       1

loop_
  _symmetry_equiv_pos_as_xyz
  'x, y, z'

loop_
  _atom_site_label
  _atom_site_occupancy
  _atom_site_fract_x
  _atom_site_fract_y
  _atom_site_fract_z
  _atom_site_thermal_displace_type
  _atom_site_B_iso_or_equiv
  _atom_site_type_symbol
  Gd1      1.0000 0.24095  0.15001  0.35286  Biso   1.000  Gd
  Gd2      1.0000 0.74095  0.65001  0.35286  Biso   1.000  Gd
  Gd3      1.0000 0.75905  0.15001  0.64714  Biso   1.000  Gd
  Gd4      1.0000 0.25905  0.65001  0.64714  Biso   1.000  Gd
  Gd5      1.0000 0.75905  0.84999  0.64714  Biso   1.000  Gd
  Gd6      1.0000 0.25905  0.34999  0.64714  Biso   1.000  Gd
  Gd7      1.0000 0.24095  0.84999  0.35286  Biso   1.000  Gd
  Gd8      1.0000 0.74095  0.34999  0.35286  Biso   1.000  Gd
  Cu1      1.0000 0.48967  0.25788  0.37800  Biso   1.000  Cu
  Cu2      1.0000 0.98967  0.75788  0.37800  Biso   1.000  Cu
  Cu3      1.0000 0.51033  0.25788  0.62200  Biso   1.000  Cu
  Cu4      1.0000 0.01033  0.75788  0.62200  Biso   1.000  Cu
  Cu5      1.0000 0.51033  0.74212  0.62200  Biso   1.000  Cu
  Cu6      1.0000 0.01033  0.24212  0.62200  Biso   1.000  Cu
  Cu7      1.0000 0.48967  0.74212  0.37800  Biso   1.000  Cu
  Cu8      1.0000 0.98967  0.24212  0.37800  Biso   1.000  Cu
  Cu9      1.0000 0.25000  0.25000  0.00000  Biso   1.000  Cu
  Cu10     1.0000 0.75000  0.75000  0.00000  Biso   1.000  Cu
  Cu11     1.0000 0.75000  0.25000  0.00000  Biso   1.000  Cu
  Cu12     1.0000 0.25000  0.75000  0.00000  Biso   1.000  Cu
  O1       1.0000 0.25430  0.05300  0.43280  Biso   1.000  O
  O2       1.0000 0.75430  0.55300  0.43280  Biso   1.000  O
  O3       1.0000 0.74570  0.05300  0.56720  Biso   1.000  O
  O4       1.0000 0.24570  0.55300  0.56720  Biso   1.000  O
  O5       1.0000 0.74570  0.94700  0.56720  Biso   1.000  O
  O6       1.0000 0.24570  0.44700  0.56720  Biso   1.000  O
  O7       1.0000 0.25430  0.94700  0.43280  Biso   1.000  O
  O8       1.0000 0.75430  0.44700  0.43280  Biso   1.000  O
  O9       1.0000 0.22660  0.05370  0.26130  Biso   1.000  O
  O10      1.0000 0.72660  0.55370  0.26130  Biso   1.000  O
  O11      1.0000 0.77340  0.05370  0.73870  Biso   1.000  O
  O12      1.0000 0.27340  0.55370  0.73870  Biso   1.000  O
  O13      1.0000 0.77340  0.94630  0.73870  Biso   1.000  O
  O14      1.0000 0.27340  0.44630  0.73870  Biso   1.000  O
  O15      1.0000 0.22660  0.94630  0.26130  Biso   1.000  O
  O16      1.0000 0.72660  0.44630  0.26130  Biso   1.000  O
  O17      1.0000 0.35370  0.13210  0.38880  Biso   1.000  O
  O18      1.0000 0.85370  0.63210  0.38880  Biso   1.000  O
  O19      1.0000 0.64630  0.13210  0.61120  Biso   1.000  O
  O20      1.0000 0.14630  0.63210  0.61120  Biso   1.000  O
  O21      1.0000 0.64630  0.86790  0.61120  Biso   1.000  O
  O22      1.0000 0.14630  0.36790  0.61120  Biso   1.000  O
  O23      1.0000 0.35370  0.86790  0.38880  Biso   1.000  O
  O24      1.0000 0.85370  0.36790  0.38880  Biso   1.000  O
  O25      1.0000 0.30210  0.24740  0.36580  Biso   1.000  O
  O26      1.0000 0.80210  0.74740  0.36580  Biso   1.000  O
  O27      1.0000 0.69790  0.24740  0.63420  Biso   1.000  O
  O28      1.0000 0.19790  0.74740  0.63420  Biso   1.000  O
  O29      1.0000 0.69790  0.75260  0.63420  Biso   1.000  O
  O30      1.0000 0.19790  0.25260  0.63420  Biso   1.000  O
  O31      1.0000 0.30210  0.75260  0.36580  Biso   1.000  O
  O32      1.0000 0.80210  0.25260  0.36580  Biso   1.000  O
  O33      1.0000 0.30470  0.16160  0.21960  Biso   1.000  O
  O34      1.0000 0.80470  0.66160  0.21960  Biso   1.000  O
  O35      1.0000 0.69530  0.16160  0.78040  Biso   1.000  O
  O36      1.0000 0.19530  0.66160  0.78040  Biso   1.000  O
  O37      1.0000 0.69530  0.83840  0.78040  Biso   1.000  O
  O38      1.0000 0.19530  0.33840  0.78040  Biso   1.000  O
  O39      1.0000 0.30470  0.83840  0.21960  Biso   1.000  O
  O40      1.0000 0.80470  0.33840  0.21960  Biso   1.000  O
  O41      1.0000 0.18260  0.18880  0.22510  Biso   1.000  O
  O42      1.0000 0.68260  0.68880  0.22510  Biso   1.000  O
  O43      1.0000 0.81740  0.18880  0.77490  Biso   1.000  O
  O44      1.0000 0.31740  0.68880  0.77490  Biso   1.000  O
  O45      1.0000 0.81740  0.81120  0.77490  Biso   1.000  O
  O46      1.0000 0.31740  0.31120  0.77490  Biso   1.000  O
  O47      1.0000 0.18260  0.81120  0.22510  Biso   1.000  O
  O48      1.0000 0.68260  0.31120  0.22510  Biso   1.000  O
  O49      1.0000 0.13190  0.11960  0.37730  Biso   1.000  O
  O50      1.0000 0.63190  0.61960  0.37730  Biso   1.000  O
  O51      1.0000 0.86810  0.11960  0.62270  Biso   1.000  O
  O52      1.0000 0.36810  0.61960  0.62270  Biso   1.000  O
  O53      1.0000 0.86810  0.88040  0.62270  Biso   1.000  O
  O54      1.0000 0.36810  0.38040  0.62270  Biso   1.000  O
  O55      1.0000 0.13190  0.88040  0.37730  Biso   1.000  O
  O56      1.0000 0.63190  0.38040  0.37730  Biso   1.000  O
  O57      1.0000 0.17410  0.23860  0.39540  Biso   1.000  O
  O58      1.0000 0.67410  0.73860  0.39540  Biso   1.000  O
  O59      1.0000 0.82590  0.23860  0.60460  Biso   1.000  O
  O60      1.0000 0.32590  0.73860  0.60460  Biso   1.000  O
  O61      1.0000 0.82590  0.76140  0.60460  Biso   1.000  O
  O62      1.0000 0.32590  0.26140  0.60460  Biso   1.000  O
  O63      1.0000 0.17410  0.76140  0.39540  Biso   1.000  O
  O64      1.0000 0.67410  0.26140  0.39540  Biso   1.000  O
  O65      1.0000 0.25040  0.16440  0.51450  Biso   1.000  O
  O66      1.0000 0.75040  0.66440  0.51450  Biso   1.000  O
  O67      1.0000 0.74960  0.16440  0.48550  Biso   1.000  O
  O68      1.0000 0.24960  0.66440  0.48550  Biso   1.000  O
  O69      1.0000 0.74960  0.83560  0.48550  Biso   1.000  O
  O70      1.0000 0.24960  0.33560  0.48550  Biso   1.000  O
  O71      1.0000 0.25040  0.83560  0.51450  Biso   1.000  O
  O72      1.0000 0.75040  0.33560  0.51450  Biso   1.000  O
  O73      1.0000 0.57560  0.22550  0.39830  Biso   1.000  O
  O74      1.0000 0.07560  0.72550  0.39830  Biso   1.000  O
  O75      1.0000 0.42440  0.22550  0.60170  Biso   1.000  O
  O76      1.0000 0.92440  0.72550  0.60170  Biso   1.000  O
  O77      1.0000 0.42440  0.77450  0.60170  Biso   1.000  O
  O78      1.0000 0.92440  0.27450  0.60170  Biso   1.000  O
  O79      1.0000 0.57560  0.77450  0.39830  Biso   1.000  O
  O80      1.0000 0.07560  0.27450  0.39830  Biso   1.000  O
  O81      1.0000 0.45060  0.17400  0.39280  Biso   1.000  O
  O82      1.0000 0.95060  0.67400  0.39280  Biso   1.000  O
  O83      1.0000 0.54940  0.17400  0.60720  Biso   1.000  O
  O84      1.0000 0.04940  0.67400  0.60720  Biso   1.000  O
  O85      1.0000 0.54940  0.82600  0.60720  Biso   1.000  O
  O86      1.0000 0.04940  0.32600  0.60720  Biso   1.000  O
  O87      1.0000 0.45060  0.82600  0.39280  Biso   1.000  O
  O88      1.0000 0.95060  0.32600  0.39280  Biso   1.000  O
  O89      1.0000 0.49750  0.23760  0.22000  Biso   1.000  O
  O90      1.0000 0.99750  0.73760  0.22000  Biso   1.000  O
  O91      1.0000 0.50250  0.23760  0.78000  Biso   1.000  O
  O92      1.0000 0.00250  0.73760  0.78000  Biso   1.000  O
  O93      1.0000 0.50250  0.76240  0.78000  Biso   1.000  O
  O94      1.0000 0.00250  0.26240  0.78000  Biso   1.000  O
  O95      1.0000 0.49750  0.76240  0.22000  Biso   1.000  O
  O96      1.0000 0.99750  0.26240  0.22000  Biso   1.000  O
  N1       1.0000 0.53000  0.33930  0.37630  Biso   1.000  N
  N2       1.0000 0.03000  0.83930  0.37630  Biso   1.000  N
  N3       1.0000 0.47000  0.33930  0.62370  Biso   1.000  N
  N4       1.0000 0.97000  0.83930  0.62370  Biso   1.000  N
  N5       1.0000 0.47000  0.66070  0.62370  Biso   1.000  N
  N6       1.0000 0.97000  0.16070  0.62370  Biso   1.000  N
  N7       1.0000 0.53000  0.66070  0.37630  Biso   1.000  N
  N8       1.0000 0.03000  0.16070  0.37630  Biso   1.000  N
  N9       1.0000 0.40400  0.28840  0.37250  Biso   1.000  N
  N10      1.0000 0.90400  0.78840  0.37250  Biso   1.000  N
  N11      1.0000 0.59600  0.28840  0.62750  Biso   1.000  N
  N12      1.0000 0.09600  0.78840  0.62750  Biso   1.000  N
  N13      1.0000 0.59600  0.71160  0.62750  Biso   1.000  N
  N14      1.0000 0.09600  0.21160  0.62750  Biso   1.000  N
  N15      1.0000 0.40400  0.71160  0.37250  Biso   1.000  N
  N16      1.0000 0.90400  0.21160  0.37250  Biso   1.000  N
  O97      1.0000 0.30680  0.20710  0.08470  Biso   1.000  O
  O98      1.0000 0.80680  0.70710  0.08470  Biso   1.000  O
  O99      1.0000 0.69320  0.20710  0.91530  Biso   1.000  O
  O100     1.0000 0.19320  0.70710  0.91530  Biso   1.000  O
  O101     1.0000 0.69320  0.79290  0.91530  Biso   1.000  O
  O102     1.0000 0.19320  0.29290  0.91530  Biso   1.000  O
  O103     1.0000 0.30680  0.79290  0.08470  Biso   1.000  O
  O104     1.0000 0.80680  0.29290  0.08470  Biso   1.000  O
  O105     1.0000 0.18740  0.23170  0.08600  Biso   1.000  O
  O106     1.0000 0.68740  0.73170  0.08600  Biso   1.000  O
  O107     1.0000 0.81260  0.23170  0.91400  Biso   1.000  O
  O108     1.0000 0.31260  0.73170  0.91400  Biso   1.000  O
  O109     1.0000 0.81260  0.76830  0.91400  Biso   1.000  O
  O110     1.0000 0.31260  0.26830  0.91400  Biso   1.000  O
  O111     1.0000 0.18740  0.76830  0.08600  Biso   1.000  O
  O112     1.0000 0.68740  0.26830  0.08600  Biso   1.000  O
  O113     1.0000 0.28100  0.36700  0.08200  Biso   1.000  O
  O114     1.0000 0.78100  0.86700  0.08200  Biso   1.000  O
  O115     1.0000 0.71900  0.36700  0.91800  Biso   1.000  O
  O116     1.0000 0.21900  0.86700  0.91800  Biso   1.000  O
  O117     1.0000 0.71900  0.63300  0.91800  Biso   1.000  O
  O118     1.0000 0.21900  0.13300  0.91800  Biso   1.000  O
  O119     1.0000 0.28100  0.63300  0.08200  Biso   1.000  O
  O120     1.0000 0.78100  0.13300  0.08200  Biso   1.000  O
  C1       1.0000 0.24880  0.00000  0.39400  Biso   1.000  C
  C2       1.0000 0.74880  0.50000  0.39400  Biso   1.000  C
  C3       1.0000 0.75120  0.00000  0.60600  Biso   1.000  C
  C4       1.0000 0.25120  0.50000  0.60600  Biso   1.000  C
  C5       1.0000 0.23180  0.00000  0.29600  Biso   1.000  C
  C6       1.0000 0.73180  0.50000  0.29600  Biso   1.000  C
  C7       1.0000 0.76820  0.00000  0.70400  Biso   1.000  C
  C8       1.0000 0.26820  0.50000  0.70400  Biso   1.000  C
  C9       1.0000 0.39080  0.17740  0.38570  Biso   1.000  C
  C10      1.0000 0.89080  0.67740  0.38570  Biso   1.000  C
  C11      1.0000 0.60920  0.17740  0.61430  Biso   1.000  C
  C12      1.0000 0.10920  0.67740  0.61430  Biso   1.000  C
  C13      1.0000 0.60920  0.82260  0.61430  Biso   1.000  C
  C14      1.0000 0.10920  0.32260  0.61430  Biso   1.000  C
  C15      1.0000 0.39080  0.82260  0.38570  Biso   1.000  C
  C16      1.0000 0.89080  0.32260  0.38570  Biso   1.000  C
  C17      1.0000 0.36210  0.24450  0.37320  Biso   1.000  C
  C18      1.0000 0.86210  0.74450  0.37320  Biso   1.000  C
  C19      1.0000 0.63790  0.24450  0.62680  Biso   1.000  C
  C20      1.0000 0.13790  0.74450  0.62680  Biso   1.000  C
  C21      1.0000 0.63790  0.75550  0.62680  Biso   1.000  C
  C22      1.0000 0.13790  0.25550  0.62680  Biso   1.000  C
  C23      1.0000 0.36210  0.75550  0.37320  Biso   1.000  C
  C24      1.0000 0.86210  0.25550  0.37320  Biso   1.000  C
  C25      1.0000 0.11510  0.23100  0.39120  Biso   1.000  C
  C26      1.0000 0.61510  0.73100  0.39120  Biso   1.000  C
  C27      1.0000 0.88490  0.23100  0.60880  Biso   1.000  C
  C28      1.0000 0.38490  0.73100  0.60880  Biso   1.000  C
  C29      1.0000 0.88490  0.76900  0.60880  Biso   1.000  C
  C30      1.0000 0.38490  0.26900  0.60880  Biso   1.000  C
  C31      1.0000 0.11510  0.76900  0.39120  Biso   1.000  C
  C32      1.0000 0.61510  0.26900  0.39120  Biso   1.000  C
  C33      1.0000 0.09130  0.16340  0.38000  Biso   1.000  C
  C34      1.0000 0.59130  0.66340  0.38000  Biso   1.000  C
  C35      1.0000 0.90870  0.16340  0.62000  Biso   1.000  C
  C36      1.0000 0.40870  0.66340  0.62000  Biso   1.000  C
  C37      1.0000 0.90870  0.83660  0.62000  Biso   1.000  C
  C38      1.0000 0.40870  0.33660  0.62000  Biso   1.000  C
  C39      1.0000 0.09130  0.83660  0.38000  Biso   1.000  C
  C40      1.0000 0.59130  0.33660  0.38000  Biso   1.000  C
  C41      1.0000 0.38490  0.35510  0.36000  Biso   1.000  C
  C42      1.0000 0.88490  0.85510  0.36000  Biso   1.000  C
  C43      1.0000 0.61510  0.35510  0.64000  Biso   1.000  C
  C44      1.0000 0.11510  0.85510  0.64000  Biso   1.000  C
  C45      1.0000 0.61510  0.64490  0.64000  Biso   1.000  C
  C46      1.0000 0.11510  0.14490  0.64000  Biso   1.000  C
  C47      1.0000 0.38490  0.64490  0.36000  Biso   1.000  C
  C48      1.0000 0.88490  0.14490  0.36000  Biso   1.000  C
  C49      1.0000 0.43540  0.39380  0.32100  Biso   1.000  C
  C50      1.0000 0.93540  0.89380  0.32100  Biso   1.000  C
  C51      1.0000 0.56460  0.39380  0.67900  Biso   1.000  C
  C52      1.0000 0.06460  0.89380  0.67900  Biso   1.000  C
  C53      1.0000 0.56460  0.60620  0.67900  Biso   1.000  C
  C54      1.0000 0.06460  0.10620  0.67900  Biso   1.000  C
  C55      1.0000 0.43540  0.60620  0.32100  Biso   1.000  C
  C56      1.0000 0.93540  0.10620  0.32100  Biso   1.000  C
  C57      1.0000 0.49800  0.40140  0.36100  Biso   1.000  C
  C58      1.0000 0.99800  0.90140  0.36100  Biso   1.000  C
  C59      1.0000 0.50200  0.40140  0.63900  Biso   1.000  C
  C60      1.0000 0.00200  0.90140  0.63900  Biso   1.000  C
  C61      1.0000 0.50200  0.59860  0.63900  Biso   1.000  C
  C62      1.0000 0.00200  0.09860  0.63900  Biso   1.000  C
  C63      1.0000 0.49800  0.59860  0.36100  Biso   1.000  C
  C64      1.0000 0.99800  0.09860  0.36100  Biso   1.000  C
  C65      1.0000 0.21090  0.20450  0.15630  Biso   1.000  C
  C66      1.0000 0.71090  0.70450  0.15630  Biso   1.000  C
  C67      1.0000 0.78910  0.20450  0.84370  Biso   1.000  C
  C68      1.0000 0.28910  0.70450  0.84370  Biso   1.000  C
  C69      1.0000 0.78910  0.79550  0.84370  Biso   1.000  C
  C70      1.0000 0.28910  0.29550  0.84370  Biso   1.000  C
  C71      1.0000 0.21090  0.79550  0.15630  Biso   1.000  C
  C72      1.0000 0.71090  0.29550  0.15630  Biso   1.000  C
  C73      1.0000 0.28110  0.18880  0.15620  Biso   1.000  C
  C74      1.0000 0.78110  0.68880  0.15620  Biso   1.000  C
  C75      1.0000 0.71890  0.18880  0.84380  Biso   1.000  C
  C76      1.0000 0.21890  0.68880  0.84380  Biso   1.000  C
  C77      1.0000 0.71890  0.81120  0.84380  Biso   1.000  C
  C78      1.0000 0.21890  0.31120  0.84380  Biso   1.000  C
  C79      1.0000 0.28110  0.81120  0.15620  Biso   1.000  C
  C80      1.0000 0.78110  0.31120  0.15620  Biso   1.000  C
  C81      1.0000 0.37300  0.19900  0.07300  Biso   1.000  C
  C82      1.0000 0.87300  0.69900  0.07300  Biso   1.000  C
  C83      1.0000 0.62700  0.19900  0.92700  Biso   1.000  C
  C84      1.0000 0.12700  0.69900  0.92700  Biso   1.000  C
  C85      1.0000 0.62700  0.80100  0.92700  Biso   1.000  C
  C86      1.0000 0.12700  0.30100  0.92700  Biso   1.000  C
  C87      1.0000 0.37300  0.80100  0.07300  Biso   1.000  C
  C88      1.0000 0.87300  0.30100  0.07300  Biso   1.000  C
  C89      1.0000 0.40200  0.24800  0.03800  Biso   1.000  C
  C90      1.0000 0.90200  0.74800  0.03800  Biso   1.000  C
  C91      1.0000 0.59800  0.24800  0.96200  Biso   1.000  C
  C92      1.0000 0.09800  0.74800  0.96200  Biso   1.000  C
  C93      1.0000 0.59800  0.75200  0.96200  Biso   1.000  C
  C94      1.0000 0.09800  0.25200  0.96200  Biso   1.000  C
  C95      1.0000 0.40200  0.75200  0.03800  Biso   1.000  C
  C96      1.0000 0.90200  0.25200  0.03800  Biso   1.000  C
  C97      1.0000 0.12300  0.25500  0.07600  Biso   1.000  C
  C98      1.0000 0.62300  0.75500  0.07600  Biso   1.000  C
  C99      1.0000 0.87700  0.25500  0.92400  Biso   1.000  C
  C100     1.0000 0.37700  0.75500  0.92400  Biso   1.000  C
  C101     1.0000 0.87700  0.74500  0.92400  Biso   1.000  C
  C102     1.0000 0.37700  0.24500  0.92400  Biso   1.000  C
  C103     1.0000 0.12300  0.74500  0.07600  Biso   1.000  C
  C104     1.0000 0.62300  0.24500  0.07600  Biso   1.000  C
  Cu13     1.0000 0.45920  0.00000  0.57970  Biso   1.000  Cu
  Cu14     1.0000 0.95920  0.50000  0.57970  Biso   1.000  Cu
  Cu15     1.0000 0.54080  0.00000  0.42030  Biso   1.000  Cu
  Cu16     1.0000 0.04080  0.50000  0.42030  Biso   1.000  Cu
  Cu17     1.0000 0.58200  0.00000  0.37860  Biso   1.000  Cu
  Cu18     1.0000 0.08200  0.50000  0.37860  Biso   1.000  Cu
  Cu19     1.0000 0.41800  0.00000  0.62140  Biso   1.000  Cu
  Cu20     1.0000 0.91800  0.50000  0.62140  Biso   1.000  Cu
  O121     1.0000 0.51600  0.06300  0.30500  Biso   1.000  O
  O122     1.0000 0.01600  0.56300  0.30500  Biso   1.000  O
  O123     1.0000 0.48400  0.06300  0.69500  Biso   1.000  O
  O124     1.0000 0.98400  0.56300  0.69500  Biso   1.000  O
  O125     1.0000 0.48400  0.93700  0.69500  Biso   1.000  O
  O126     1.0000 0.98400  0.43700  0.69500  Biso   1.000  O
  O127     1.0000 0.51600  0.93700  0.30500  Biso   1.000  O
  O128     1.0000 0.01600  0.43700  0.30500  Biso   1.000  O
  O129     1.0000 0.41900  0.00000  0.38600  Biso   1.000  O
  O130     1.0000 0.91900  0.50000  0.38600  Biso   1.000  O
  O131     1.0000 0.58100  0.00000  0.61400  Biso   1.000  O
  O132     1.0000 0.08100  0.50000  0.61400  Biso   1.000  O
  O133     1.0000 0.50000  0.07600  0.50000  Biso   1.000  O
  O134     1.0000 0.00000  0.57600  0.50000  Biso   1.000  O
  O135     1.0000 0.50000  0.92400  0.50000  Biso   1.000  O
  O136     1.0000 0.00000  0.42400  0.50000  Biso   1.000  O
  O137     1.0000 0.60800  0.00000  0.54100  Biso   1.000  O
  O138     1.0000 0.10800  0.50000  0.54100  Biso   1.000  O
  O139     1.0000 0.39200  0.00000  0.45900  Biso   1.000  O
  O140     1.0000 0.89200  0.50000  0.45900  Biso   1.000  O
  O141     1.0000 0.63100  0.09500  0.40600  Biso   1.000  O
  O142     1.0000 0.13100  0.59500  0.40600  Biso   1.000  O
  O143     1.0000 0.36900  0.09500  0.59400  Biso   1.000  O
  O144     1.0000 0.86900  0.59500  0.59400  Biso   1.000  O
  O145     1.0000 0.36900  0.90500  0.59400  Biso   1.000  O
  O146     1.0000 0.86900  0.40500  0.59400  Biso   1.000  O
  O147     1.0000 0.63100  0.90500  0.40600  Biso   1.000  O
  O148     1.0000 0.13100  0.40500  0.40600  Biso   1.000  O
  O149     1.0000 0.49800  0.07000  0.41100  Biso   1.000  O
  O150     1.0000 0.99800  0.57000  0.41100  Biso   1.000  O
  O151     1.0000 0.50200  0.07000  0.58900  Biso   1.000  O
  O152     1.0000 0.00200  0.57000  0.58900  Biso   1.000  O
  O153     1.0000 0.50200  0.93000  0.58900  Biso   1.000  O
  O154     1.0000 0.00200  0.43000  0.58900  Biso   1.000  O
  O155     1.0000 0.49800  0.93000  0.41100  Biso   1.000  O
  O156     1.0000 0.99800  0.43000  0.41100  Biso   1.000  O
  O157     1.0000 0.29400  0.50000  0.39100  Biso   1.000  O
  O158     1.0000 0.79400  0.00000  0.39100  Biso   1.000  O
  O159     1.0000 0.70600  0.50000  0.60900  Biso   1.000  O
  O160     1.0000 0.20600  0.00000  0.60900  Biso   1.000  O
  O161     1.0000 0.72500  0.15300  0.24900  Biso   1.000  O
  O162     1.0000 0.22500  0.65300  0.24900  Biso   1.000  O
  O163     1.0000 0.27500  0.15300  0.75100  Biso   1.000  O
  O164     1.0000 0.77500  0.65300  0.75100  Biso   1.000  O
  O165     1.0000 0.27500  0.84700  0.75100  Biso   1.000  O
  O166     1.0000 0.77500  0.34700  0.75100  Biso   1.000  O
  O167     1.0000 0.72500  0.84700  0.24900  Biso   1.000  O
  O168     1.0000 0.22500  0.34700  0.24900  Biso   1.000  O
  O169     1.0000 0.88760  0.00000  0.52300  Biso   1.000  O
  O170     1.0000 0.38760  0.50000  0.52300  Biso   1.000  O
  O171     1.0000 0.11240  0.00000  0.47700  Biso   1.000  O
  O172     1.0000 0.61240  0.50000  0.47700  Biso   1.000  O
  O173     1.0000 0.40300  0.07800  0.19600  Biso   1.000  O
  O174     1.0000 0.90300  0.57800  0.19600  Biso   1.000  O
  O175     1.0000 0.59700  0.07800  0.80400  Biso   1.000  O
  O176     1.0000 0.09700  0.57800  0.80400  Biso   1.000  O
  O177     1.0000 0.59700  0.92200  0.80400  Biso   1.000  O
  O178     1.0000 0.09700  0.42200  0.80400  Biso   1.000  O
  O179     1.0000 0.40300  0.92200  0.19600  Biso   1.000  O
  O180     1.0000 0.90300  0.42200  0.19600  Biso   1.000  O
  O181     1.0000 0.09500  0.07400  0.16100  Biso   1.000  O
  O182     1.0000 0.59500  0.57400  0.16100  Biso   1.000  O
  O183     1.0000 0.90500  0.07400  0.83900  Biso   1.000  O
  O184     1.0000 0.40500  0.57400  0.83900  Biso   1.000  O
  O185     1.0000 0.90500  0.92600  0.83900  Biso   1.000  O
  O186     1.0000 0.40500  0.42600  0.83900  Biso   1.000  O
  O187     1.0000 0.09500  0.92600  0.16100  Biso   1.000  O
  O188     1.0000 0.59500  0.42600  0.16100  Biso   1.000  O
  O189     1.0000 0.23300  0.94600  0.06100  Biso   1.000  O
  O190     1.0000 0.73300  0.44600  0.06100  Biso   1.000  O
  O191     1.0000 0.76700  0.94600  0.93900  Biso   1.000  O
  O192     1.0000 0.26700  0.44600  0.93900  Biso   1.000  O
  O193     1.0000 0.76700  0.05400  0.93900  Biso   1.000  O
  O194     1.0000 0.26700  0.55400  0.93900  Biso   1.000  O
  O195     1.0000 0.23300  0.05400  0.06100  Biso   1.000  O
  O196     1.0000 0.73300  0.55400  0.06100  Biso   1.000  O
  O197     1.0000 0.19100  0.00000  0.80500  Biso   1.000  O
  O198     1.0000 0.69100  0.50000  0.80500  Biso   1.000  O
  O199     1.0000 0.80900  0.00000  0.19500  Biso   1.000  O
  O200     1.0000 0.30900  0.50000  0.19500  Biso   1.000  O
  O201     1.0000 0.99700  0.14300  0.08600  Biso   1.000  O
  O202     1.0000 0.49700  0.64300  0.08600  Biso   1.000  O
  O203     1.0000 0.00300  0.14300  0.91400  Biso   1.000  O
  O204     1.0000 0.50300  0.64300  0.91400  Biso   1.000  O
  O205     1.0000 0.00300  0.85700  0.91400  Biso   1.000  O
  O206     1.0000 0.50300  0.35700  0.91400  Biso   1.000  O
  O207     1.0000 0.99700  0.85700  0.08600  Biso   1.000  O
  O208     1.0000 0.49700  0.35700  0.08600  Biso   1.000  O
