data_image0
_cell_length_a       22.144
_cell_length_b       9.122
_cell_length_c       9.083
_cell_angle_alpha    90
_cell_angle_beta     103.6
_cell_angle_gamma    90

_symmetry_space_group_name_H-M    "P 1"
_symmetry_int_tables_number       1

loop_
  _symmetry_equiv_pos_as_xyz
  'x, y, z'

loop_
  _atom_site_label
  _atom_site_occupancy
  _atom_site_fract_x
  _atom_site_fract_y
  _atom_site_fract_z
  _atom_site_thermal_displace_type
  _atom_site_B_iso_or_equiv
  _atom_site_type_symbol
  Cu1      1.0000 0.00000  0.00000  0.50000  Biso   1.000  Cu
  Cu2      1.0000 0.50000  0.50000  0.50000  Biso   1.000  Cu
  Cu3      1.0000 0.00000  0.00000  0.00000  Biso   1.000  Cu
  Cu4      1.0000 0.50000  0.50000  0.00000  Biso   1.000  Cu
  O1       1.0000 0.95970  0.19260  0.46390  Biso   1.000  O
  O2       1.0000 0.45970  0.69260  0.46390  Biso   1.000  O
  O3       1.0000 0.04030  0.19260  0.03610  Biso   1.000  O
  O4       1.0000 0.54030  0.69260  0.03610  Biso   1.000  O
  O5       1.0000 0.04030  0.80740  0.53610  Biso   1.000  O
  O6       1.0000 0.54030  0.30740  0.53610  Biso   1.000  O
  O7       1.0000 0.95970  0.80740  0.96390  Biso   1.000  O
  O8       1.0000 0.45970  0.30740  0.96390  Biso   1.000  O
  O9       1.0000 0.89960  0.35850  0.53090  Biso   1.000  O
  O10      1.0000 0.39960  0.85850  0.53090  Biso   1.000  O
  O11      1.0000 0.10040  0.35850  0.96910  Biso   1.000  O
  O12      1.0000 0.60040  0.85850  0.96910  Biso   1.000  O
  O13      1.0000 0.10040  0.64150  0.46910  Biso   1.000  O
  O14      1.0000 0.60040  0.14150  0.46910  Biso   1.000  O
  O15      1.0000 0.89960  0.64150  0.03090  Biso   1.000  O
  O16      1.0000 0.39960  0.14150  0.03090  Biso   1.000  O
  O17      1.0000 0.93420  0.92180  0.26360  Biso   1.000  O
  O18      1.0000 0.43420  0.42180  0.26360  Biso   1.000  O
  O19      1.0000 0.06580  0.92180  0.23640  Biso   1.000  O
  O20      1.0000 0.56580  0.42180  0.23640  Biso   1.000  O
  O21      1.0000 0.06580  0.07820  0.73640  Biso   1.000  O
  O22      1.0000 0.56580  0.57820  0.73640  Biso   1.000  O
  O23      1.0000 0.93420  0.07820  0.76360  Biso   1.000  O
  O24      1.0000 0.43420  0.57820  0.76360  Biso   1.000  O
  O25      1.0000 0.93450  0.08850  0.08510  Biso   1.000  O
  O26      1.0000 0.43450  0.58850  0.08510  Biso   1.000  O
  O27      1.0000 0.06550  0.08850  0.41490  Biso   1.000  O
  O28      1.0000 0.56550  0.58850  0.41490  Biso   1.000  O
  O29      1.0000 0.06550  0.91150  0.91490  Biso   1.000  O
  O30      1.0000 0.56550  0.41150  0.91490  Biso   1.000  O
  O31      1.0000 0.93450  0.91150  0.58510  Biso   1.000  O
  O32      1.0000 0.43450  0.41150  0.58510  Biso   1.000  O
  C1       1.0000 0.85070  0.19830  0.33520  Biso   1.000  C
  C2       1.0000 0.35070  0.69830  0.33520  Biso   1.000  C
  C3       1.0000 0.14930  0.19830  0.16480  Biso   1.000  C
  C4       1.0000 0.64930  0.69830  0.16480  Biso   1.000  C
  C5       1.0000 0.14930  0.80170  0.66480  Biso   1.000  C
  C6       1.0000 0.64930  0.30170  0.66480  Biso   1.000  C
  C7       1.0000 0.85070  0.80170  0.83520  Biso   1.000  C
  C8       1.0000 0.35070  0.30170  0.83520  Biso   1.000  C
  C9       1.0000 0.85450  0.10330  0.21570  Biso   1.000  C
  C10      1.0000 0.35450  0.60330  0.21570  Biso   1.000  C
  C11      1.0000 0.14550  0.10330  0.28430  Biso   1.000  C
  C12      1.0000 0.64550  0.60330  0.28430  Biso   1.000  C
  C13      1.0000 0.14550  0.89670  0.78430  Biso   1.000  C
  C14      1.0000 0.64550  0.39670  0.78430  Biso   1.000  C
  C15      1.0000 0.85450  0.89670  0.71570  Biso   1.000  C
  C16      1.0000 0.35450  0.39670  0.71570  Biso   1.000  C
  C17      1.0000 0.80060  0.06640  0.11010  Biso   1.000  C
  C18      1.0000 0.30060  0.56640  0.11010  Biso   1.000  C
  C19      1.0000 0.19940  0.06640  0.38990  Biso   1.000  C
  C20      1.0000 0.69940  0.56640  0.38990  Biso   1.000  C
  C21      1.0000 0.19940  0.93360  0.88990  Biso   1.000  C
  C22      1.0000 0.69940  0.43360  0.88990  Biso   1.000  C
  C23      1.0000 0.80060  0.93360  0.61010  Biso   1.000  C
  C24      1.0000 0.30060  0.43360  0.61010  Biso   1.000  C
  C25      1.0000 0.74300  0.11860  0.12440  Biso   1.000  C
  C26      1.0000 0.24300  0.61860  0.12440  Biso   1.000  C
  C27      1.0000 0.25700  0.11860  0.37560  Biso   1.000  C
  C28      1.0000 0.75700  0.61860  0.37560  Biso   1.000  C
  C29      1.0000 0.25700  0.88140  0.87560  Biso   1.000  C
  C30      1.0000 0.75700  0.38140  0.87560  Biso   1.000  C
  C31      1.0000 0.74300  0.88140  0.62440  Biso   1.000  C
  C32      1.0000 0.24300  0.38140  0.62440  Biso   1.000  C
  C33      1.0000 0.73910  0.20880  0.24300  Biso   1.000  C
  C34      1.0000 0.23910  0.70880  0.24300  Biso   1.000  C
  C35      1.0000 0.26090  0.20880  0.25700  Biso   1.000  C
  C36      1.0000 0.76090  0.70880  0.25700  Biso   1.000  C
  C37      1.0000 0.26090  0.79120  0.75700  Biso   1.000  C
  C38      1.0000 0.76090  0.29120  0.75700  Biso   1.000  C
  C39      1.0000 0.73910  0.79120  0.74300  Biso   1.000  C
  C40      1.0000 0.23910  0.29120  0.74300  Biso   1.000  C
  C41      1.0000 0.79230  0.24880  0.34680  Biso   1.000  C
  C42      1.0000 0.29230  0.74880  0.34680  Biso   1.000  C
  C43      1.0000 0.20770  0.24880  0.15320  Biso   1.000  C
  C44      1.0000 0.70770  0.74880  0.15320  Biso   1.000  C
  C45      1.0000 0.20770  0.75120  0.65320  Biso   1.000  C
  C46      1.0000 0.70770  0.25120  0.65320  Biso   1.000  C
  C47      1.0000 0.79230  0.75120  0.84680  Biso   1.000  C
  C48      1.0000 0.29230  0.25120  0.84680  Biso   1.000  C
  C49      1.0000 0.90640  0.25110  0.45220  Biso   1.000  C
  C50      1.0000 0.40640  0.75110  0.45220  Biso   1.000  C
  C51      1.0000 0.09360  0.25110  0.04780  Biso   1.000  C
  C52      1.0000 0.59360  0.75110  0.04780  Biso   1.000  C
  C53      1.0000 0.09360  0.74890  0.54780  Biso   1.000  C
  C54      1.0000 0.59360  0.24890  0.54780  Biso   1.000  C
  C55      1.0000 0.90640  0.74890  0.95220  Biso   1.000  C
  C56      1.0000 0.40640  0.24890  0.95220  Biso   1.000  C
  C57      1.0000 0.91310  0.03080  0.19120  Biso   1.000  C
  C58      1.0000 0.41310  0.53080  0.19120  Biso   1.000  C
  C59      1.0000 0.08690  0.03080  0.30880  Biso   1.000  C
  C60      1.0000 0.58690  0.53080  0.30880  Biso   1.000  C
  C61      1.0000 0.08690  0.96920  0.80880  Biso   1.000  C
  C62      1.0000 0.58690  0.46920  0.80880  Biso   1.000  C
  C63      1.0000 0.91310  0.96920  0.69120  Biso   1.000  C
  C64      1.0000 0.41310  0.46920  0.69120  Biso   1.000  C
  H1       1.0000 0.80000  0.00600  0.01800  Biso   1.000  H
  H2       1.0000 0.30000  0.50600  0.01800  Biso   1.000  H
  H3       1.0000 0.20000  0.00600  0.48200  Biso   1.000  H
  H4       1.0000 0.70000  0.50600  0.48200  Biso   1.000  H
  H5       1.0000 0.20000  0.99400  0.98200  Biso   1.000  H
  H6       1.0000 0.70000  0.49400  0.98200  Biso   1.000  H
  H7       1.0000 0.80000  0.99400  0.51800  Biso   1.000  H
  H8       1.0000 0.30000  0.49400  0.51800  Biso   1.000  H
  H9       1.0000 0.70100  0.07200  0.06200  Biso   1.000  H
  H10      1.0000 0.20100  0.57200  0.06200  Biso   1.000  H
  H11      1.0000 0.29900  0.07200  0.43800  Biso   1.000  H
  H12      1.0000 0.79900  0.57200  0.43800  Biso   1.000  H
  H13      1.0000 0.29900  0.92800  0.93800  Biso   1.000  H
  H14      1.0000 0.79900  0.42800  0.93800  Biso   1.000  H
  H15      1.0000 0.70100  0.92800  0.56200  Biso   1.000  H
  H16      1.0000 0.20100  0.42800  0.56200  Biso   1.000  H
  H17      1.0000 0.70100  0.23500  0.26000  Biso   1.000  H
  H18      1.0000 0.20100  0.73500  0.26000  Biso   1.000  H
  H19      1.0000 0.29900  0.23500  0.24000  Biso   1.000  H
  H20      1.0000 0.79900  0.73500  0.24000  Biso   1.000  H
  H21      1.0000 0.29900  0.76500  0.74000  Biso   1.000  H
  H22      1.0000 0.79900  0.26500  0.74000  Biso   1.000  H
  H23      1.0000 0.70100  0.76500  0.76000  Biso   1.000  H
  H24      1.0000 0.20100  0.26500  0.76000  Biso   1.000  H
  H25      1.0000 0.78800  0.31800  0.42600  Biso   1.000  H
  H26      1.0000 0.28800  0.81800  0.42600  Biso   1.000  H
  H27      1.0000 0.21200  0.31800  0.07400  Biso   1.000  H
  H28      1.0000 0.71200  0.81800  0.07400  Biso   1.000  H
  H29      1.0000 0.21200  0.68200  0.57400  Biso   1.000  H
  H30      1.0000 0.71200  0.18200  0.57400  Biso   1.000  H
  H31      1.0000 0.78800  0.68200  0.92600  Biso   1.000  H
  H32      1.0000 0.28800  0.18200  0.92600  Biso   1.000  H
  Sr1      1.0000 0.00000  0.68590  0.25000  Biso   1.000  Sr
  Sr2      1.0000 0.50000  0.18590  0.25000  Biso   1.000  Sr
  Sr3      1.0000 0.00000  0.31410  0.75000  Biso   1.000  Sr
  Sr4      1.0000 0.50000  0.81410  0.75000  Biso   1.000  Sr
  O33      1.0000 0.00000  0.40650  0.25000  Biso   1.000  O
  O34      1.0000 0.50000  0.90650  0.25000  Biso   1.000  O
  O35      1.0000 0.00000  0.59350  0.75000  Biso   1.000  O
  O36      1.0000 0.50000  0.09350  0.75000  Biso   1.000  O
  H33      1.0000 0.01100  0.35200  0.19400  Biso   1.000  H
  H34      1.0000 0.51100  0.85200  0.19400  Biso   1.000  H
  H35      1.0000 0.98900  0.35200  0.30600  Biso   1.000  H
  H36      1.0000 0.48900  0.85200  0.30600  Biso   1.000  H
  H37      1.0000 0.98900  0.64800  0.80600  Biso   1.000  H
  H38      1.0000 0.48900  0.14800  0.80600  Biso   1.000  H
  H39      1.0000 0.01100  0.64800  0.69400  Biso   1.000  H
  H40      1.0000 0.51100  0.14800  0.69400  Biso   1.000  H
  O37      1.0000 0.07860  0.63630  0.08520  Biso   1.000  O
  O38      1.0000 0.57860  0.13630  0.08520  Biso   1.000  O
  O39      1.0000 0.92140  0.63630  0.41480  Biso   1.000  O
  O40      1.0000 0.42140  0.13630  0.41480  Biso   1.000  O
  O41      1.0000 0.92140  0.36370  0.91480  Biso   1.000  O
  O42      1.0000 0.42140  0.86370  0.91480  Biso   1.000  O
  O43      1.0000 0.07860  0.36370  0.58520  Biso   1.000  O
  O44      1.0000 0.57860  0.86370  0.58520  Biso   1.000  O
  H41      1.0000 0.09200  0.56200  0.03800  Biso   1.000  H
  H42      1.0000 0.59200  0.06200  0.03800  Biso   1.000  H
  H43      1.0000 0.90800  0.56200  0.46200  Biso   1.000  H
  H44      1.0000 0.40800  0.06200  0.46200  Biso   1.000  H
  H45      1.0000 0.90800  0.43800  0.96200  Biso   1.000  H
  H46      1.0000 0.40800  0.93800  0.96200  Biso   1.000  H
  H47      1.0000 0.09200  0.43800  0.53800  Biso   1.000  H
  H48      1.0000 0.59200  0.93800  0.53800  Biso   1.000  H
  H49      1.0000 0.07800  0.71000  0.04200  Biso   1.000  H
  H50      1.0000 0.57800  0.21000  0.04200  Biso   1.000  H
  H51      1.0000 0.92200  0.71000  0.45800  Biso   1.000  H
  H52      1.0000 0.42200  0.21000  0.45800  Biso   1.000  H
  H53      1.0000 0.92200  0.29000  0.95800  Biso   1.000  H
  H54      1.0000 0.42200  0.79000  0.95800  Biso   1.000  H
  H55      1.0000 0.07800  0.29000  0.54200  Biso   1.000  H
  H56      1.0000 0.57800  0.79000  0.54200  Biso   1.000  H
