data_image0
_cell_length_a       15.803
_cell_length_b       7.129
_cell_length_c       16.003
_cell_angle_alpha    90
_cell_angle_beta     112.58
_cell_angle_gamma    90

_symmetry_space_group_name_H-M    "P 1"
_symmetry_int_tables_number       1

loop_
  _symmetry_equiv_pos_as_xyz
  'x, y, z'

loop_
  _atom_site_label
  _atom_site_occupancy
  _atom_site_fract_x
  _atom_site_fract_y
  _atom_site_fract_z
  _atom_site_thermal_displace_type
  _atom_site_B_iso_or_equiv
  _atom_site_type_symbol
  Cu1      1.0000 0.17138  0.18526  0.01362  Biso   1.000  Cu
  Cu2      1.0000 0.82862  0.68526  0.48638  Biso   1.000  Cu
  Cu3      1.0000 0.82862  0.81474  0.98638  Biso   1.000  Cu
  Cu4      1.0000 0.17138  0.31474  0.51362  Biso   1.000  Cu
  O1       1.0000 0.19867  0.02917  0.92498  Biso   1.000  O
  O2       1.0000 0.80133  0.52917  0.57502  Biso   1.000  O
  O3       1.0000 0.80133  0.97083  0.07502  Biso   1.000  O
  O4       1.0000 0.19867  0.47083  0.42498  Biso   1.000  O
  O5       1.0000 0.07533  0.89659  0.93271  Biso   1.000  O
  O6       1.0000 0.92467  0.39659  0.56729  Biso   1.000  O
  O7       1.0000 0.92467  0.10341  0.06729  Biso   1.000  O
  O8       1.0000 0.07533  0.60341  0.43271  Biso   1.000  O
  O9       1.0000 0.08516  0.33257  0.90973  Biso   1.000  O
  O10      1.0000 0.91484  0.83257  0.59027  Biso   1.000  O
  O11      1.0000 0.91484  0.66743  0.09027  Biso   1.000  O
  O12      1.0000 0.08516  0.16743  0.40973  Biso   1.000  O
  O13      1.0000 0.21133  0.50080  0.94875  Biso   1.000  O
  O14      1.0000 0.78867  0.00080  0.55125  Biso   1.000  O
  O15      1.0000 0.78867  0.49920  0.05125  Biso   1.000  O
  O16      1.0000 0.21133  0.99920  0.44875  Biso   1.000  O
  N1       1.0000 0.11636  0.28849  0.09726  Biso   1.000  N
  N2       1.0000 0.88364  0.78849  0.40274  Biso   1.000  N
  N3       1.0000 0.88364  0.71151  0.90274  Biso   1.000  N
  N4       1.0000 0.11636  0.21151  0.59726  Biso   1.000  N
  N5       1.0000 0.27650  0.08867  0.12784  Biso   1.000  N
  N6       1.0000 0.72350  0.58867  0.37216  Biso   1.000  N
  N7       1.0000 0.72350  0.91133  0.87216  Biso   1.000  N
  N8       1.0000 0.27650  0.41133  0.62784  Biso   1.000  N
  C1       1.0000 0.18260  0.26785  0.19271  Biso   1.000  C
  C2       1.0000 0.81740  0.76785  0.30729  Biso   1.000  C
  C3       1.0000 0.81740  0.73215  0.80729  Biso   1.000  C
  C4       1.0000 0.18260  0.23215  0.69271  Biso   1.000  C
  C5       1.0000 0.23717  0.09028  0.19963  Biso   1.000  C
  C6       1.0000 0.76283  0.59028  0.30037  Biso   1.000  C
  C7       1.0000 0.76283  0.90972  0.80037  Biso   1.000  C
  C8       1.0000 0.23717  0.40972  0.69963  Biso   1.000  C
  C9       1.0000 0.35393  0.22815  0.15205  Biso   1.000  C
  C10      1.0000 0.64607  0.72815  0.34795  Biso   1.000  C
  C11      1.0000 0.64607  0.77185  0.84795  Biso   1.000  C
  C12      1.0000 0.35393  0.27185  0.65205  Biso   1.000  C
  C13      1.0000 0.40335  0.23152  0.08799  Biso   1.000  C
  C14      1.0000 0.59665  0.73152  0.41201  Biso   1.000  C
  C15      1.0000 0.59665  0.76848  0.91201  Biso   1.000  C
  C16      1.0000 0.40335  0.26848  0.58799  Biso   1.000  C
  H1       1.0000 0.06700  0.20700  0.09000  Biso   1.000  H
  H2       1.0000 0.93300  0.70700  0.41000  Biso   1.000  H
  H3       1.0000 0.93300  0.79300  0.91000  Biso   1.000  H
  H4       1.0000 0.06700  0.29300  0.59000  Biso   1.000  H
  H5       1.0000 0.10000  0.42200  0.09000  Biso   1.000  H
  H6       1.0000 0.90000  0.92200  0.41000  Biso   1.000  H
  H7       1.0000 0.90000  0.57800  0.91000  Biso   1.000  H
  H8       1.0000 0.10000  0.07800  0.59000  Biso   1.000  H
  H9       1.0000 0.14700  0.26300  0.23200  Biso   1.000  H
  H10      1.0000 0.85300  0.76300  0.26800  Biso   1.000  H
  H11      1.0000 0.85300  0.73700  0.76800  Biso   1.000  H
  H12      1.0000 0.14700  0.23700  0.73200  Biso   1.000  H
  H13      1.0000 0.22400  0.39500  0.21200  Biso   1.000  H
  H14      1.0000 0.77600  0.89500  0.28800  Biso   1.000  H
  H15      1.0000 0.77600  0.60500  0.78800  Biso   1.000  H
  H16      1.0000 0.22400  0.10500  0.71200  Biso   1.000  H
  H17      1.0000 0.28700  0.07100  0.25700  Biso   1.000  H
  H18      1.0000 0.71300  0.57100  0.24300  Biso   1.000  H
  H19      1.0000 0.71300  0.92900  0.74300  Biso   1.000  H
  H20      1.0000 0.28700  0.42900  0.75700  Biso   1.000  H
  H21      1.0000 0.19500  0.97900  0.18400  Biso   1.000  H
  H22      1.0000 0.80500  0.47900  0.31600  Biso   1.000  H
  H23      1.0000 0.80500  0.02100  0.81600  Biso   1.000  H
  H24      1.0000 0.19500  0.52100  0.68400  Biso   1.000  H
  H25      1.0000 0.39800  0.19200  0.21200  Biso   1.000  H
  H26      1.0000 0.60200  0.69200  0.28800  Biso   1.000  H
  H27      1.0000 0.60200  0.80800  0.78800  Biso   1.000  H
  H28      1.0000 0.39800  0.30800  0.71200  Biso   1.000  H
  H29      1.0000 0.32900  0.35800  0.14800  Biso   1.000  H
  H30      1.0000 0.67100  0.85800  0.35200  Biso   1.000  H
  H31      1.0000 0.67100  0.64200  0.85200  Biso   1.000  H
  H32      1.0000 0.32900  0.14200  0.64800  Biso   1.000  H
  H33      1.0000 0.44200  0.35700  0.10600  Biso   1.000  H
  H34      1.0000 0.55800  0.85700  0.39400  Biso   1.000  H
  H35      1.0000 0.55800  0.64300  0.89400  Biso   1.000  H
  H36      1.0000 0.44200  0.14300  0.60600  Biso   1.000  H
  H37      1.0000 0.36400  0.26000  0.04100  Biso   1.000  H
  H38      1.0000 0.63600  0.76000  0.45900  Biso   1.000  H
  H39      1.0000 0.63600  0.74000  0.95900  Biso   1.000  H
  H40      1.0000 0.36400  0.24000  0.54100  Biso   1.000  H
  H41      1.0000 0.43700  0.10800  0.09800  Biso   1.000  H
  H42      1.0000 0.56300  0.60800  0.40200  Biso   1.000  H
  H43      1.0000 0.56300  0.89200  0.90200  Biso   1.000  H
  H44      1.0000 0.43700  0.39200  0.59800  Biso   1.000  H
  C17      1.0000 0.30704  0.89500  0.11677  Biso   1.000  C
  C18      1.0000 0.69296  0.39500  0.38323  Biso   1.000  C
  C19      1.0000 0.69296  0.10500  0.88323  Biso   1.000  C
  C20      1.0000 0.30704  0.60500  0.61677  Biso   1.000  C
  C21      1.0000 0.38335  0.81524  0.20183  Biso   1.000  C
  C22      1.0000 0.61665  0.31524  0.29817  Biso   1.000  C
  C23      1.0000 0.61665  0.18476  0.79817  Biso   1.000  C
  C24      1.0000 0.38335  0.68476  0.70183  Biso   1.000  C
  C25      1.0000 0.13427  0.90859  0.89872  Biso   1.000  C
  C26      1.0000 0.86573  0.40859  0.60128  Biso   1.000  C
  C27      1.0000 0.86573  0.09141  0.10128  Biso   1.000  C
  C28      1.0000 0.13427  0.59141  0.39872  Biso   1.000  C
  C29      1.0000 0.12961  0.78308  0.82042  Biso   1.000  C
  C30      1.0000 0.87039  0.28308  0.67958  Biso   1.000  C
  C31      1.0000 0.87039  0.21692  0.17958  Biso   1.000  C
  C32      1.0000 0.12961  0.71692  0.32042  Biso   1.000  C
  C33      1.0000 0.08068  0.59858  0.81847  Biso   1.000  C
  C34      1.0000 0.91932  0.09858  0.68153  Biso   1.000  C
  C35      1.0000 0.91932  0.40142  0.18153  Biso   1.000  C
  C36      1.0000 0.08068  0.90142  0.31847  Biso   1.000  C
  C37      1.0000 0.13086  0.47280  0.89832  Biso   1.000  C
  C38      1.0000 0.86914  0.97280  0.60168  Biso   1.000  C
  C39      1.0000 0.86914  0.52720  0.10168  Biso   1.000  C
  C40      1.0000 0.13086  0.02720  0.39832  Biso   1.000  C
  H45      1.0000 0.33500  0.90400  0.07200  Biso   1.000  H
  H46      1.0000 0.66500  0.40400  0.42800  Biso   1.000  H
  H47      1.0000 0.66500  0.09600  0.92800  Biso   1.000  H
  H48      1.0000 0.33500  0.59600  0.57200  Biso   1.000  H
  H49      1.0000 0.25000  0.81400  0.10200  Biso   1.000  H
  H50      1.0000 0.75000  0.31400  0.39800  Biso   1.000  H
  H51      1.0000 0.75000  0.18600  0.89800  Biso   1.000  H
  H52      1.0000 0.25000  0.68600  0.60200  Biso   1.000  H
  H53      1.0000 0.35400  0.77300  0.24400  Biso   1.000  H
  H54      1.0000 0.64600  0.27300  0.25600  Biso   1.000  H
  H55      1.0000 0.64600  0.22700  0.75600  Biso   1.000  H
  H56      1.0000 0.35400  0.72700  0.74400  Biso   1.000  H
  H57      1.0000 0.43800  0.88700  0.22200  Biso   1.000  H
  H58      1.0000 0.56200  0.38700  0.27800  Biso   1.000  H
  H59      1.0000 0.56200  0.11300  0.77800  Biso   1.000  H
  H60      1.0000 0.43800  0.61300  0.72200  Biso   1.000  H
  H61      1.0000 0.40100  0.68300  0.18400  Biso   1.000  H
  H62      1.0000 0.59900  0.18300  0.31600  Biso   1.000  H
  H63      1.0000 0.59900  0.31700  0.81600  Biso   1.000  H
  H64      1.0000 0.40100  0.81700  0.68400  Biso   1.000  H
  H65      1.0000 0.19600  0.75500  0.82500  Biso   1.000  H
  H66      1.0000 0.80400  0.25500  0.67500  Biso   1.000  H
  H67      1.0000 0.80400  0.24500  0.17500  Biso   1.000  H
  H68      1.0000 0.19600  0.74500  0.32500  Biso   1.000  H
  H69      1.0000 0.10300  0.85800  0.77000  Biso   1.000  H
  H70      1.0000 0.89700  0.35800  0.73000  Biso   1.000  H
  H71      1.0000 0.89700  0.14200  0.23000  Biso   1.000  H
  H72      1.0000 0.10300  0.64200  0.27000  Biso   1.000  H
  H73      1.0000 0.01700  0.61300  0.81700  Biso   1.000  H
  H74      1.0000 0.98300  0.11300  0.68300  Biso   1.000  H
  H75      1.0000 0.98300  0.38700  0.18300  Biso   1.000  H
  H76      1.0000 0.01700  0.88700  0.31700  Biso   1.000  H
  H77      1.0000 0.07200  0.52400  0.76200  Biso   1.000  H
  H78      1.0000 0.92800  0.02400  0.73800  Biso   1.000  H
  H79      1.0000 0.92800  0.47600  0.23800  Biso   1.000  H
  H80      1.0000 0.07200  0.97600  0.26200  Biso   1.000  H
  O17      1.0000 0.09145  0.69781  0.09374  Biso   1.000  O
  O18      1.0000 0.90855  0.19781  0.40626  Biso   1.000  O
  O19      1.0000 0.90855  0.30219  0.90626  Biso   1.000  O
  O20      1.0000 0.09145  0.80219  0.59374  Biso   1.000  O
  H81      1.0000 0.04100  0.71100  0.09400  Biso   1.000  H
  H82      1.0000 0.95900  0.21100  0.40600  Biso   1.000  H
  H83      1.0000 0.95900  0.28900  0.90600  Biso   1.000  H
  H84      1.0000 0.04100  0.78900  0.59400  Biso   1.000  H
  H85      1.0000 0.08600  0.75400  0.06000  Biso   1.000  H
  H86      1.0000 0.91400  0.25400  0.44000  Biso   1.000  H
  H87      1.0000 0.91400  0.24600  0.94000  Biso   1.000  H
  H88      1.0000 0.08600  0.74600  0.56000  Biso   1.000  H
  O21      1.0000 0.34857  0.00618  0.86852  Biso   1.000  O
  O22      1.0000 0.65143  0.50618  0.63148  Biso   1.000  O
  O23      1.0000 0.65143  0.99382  0.13148  Biso   1.000  O
  O24      1.0000 0.34857  0.49382  0.36852  Biso   1.000  O
  O25      1.0000 0.46246  0.32506  0.90040  Biso   1.000  O
  O26      1.0000 0.53754  0.82506  0.59960  Biso   1.000  O
  O27      1.0000 0.53754  0.67494  0.09960  Biso   1.000  O
  O28      1.0000 0.46246  0.17494  0.40040  Biso   1.000  O
  O29      1.0000 0.37551  0.63840  0.05843  Biso   1.000  O
  O30      1.0000 0.62449  0.13840  0.44157  Biso   1.000  O
  O31      1.0000 0.62449  0.36160  0.94157  Biso   1.000  O
  O32      1.0000 0.37551  0.86160  0.55843  Biso   1.000  O
