data_image0
_cell_length_a       15.7523
_cell_length_b       7.1201
_cell_length_c       15.954
_cell_angle_alpha    90
_cell_angle_beta     112.709
_cell_angle_gamma    90

_symmetry_space_group_name_H-M    "P 1"
_symmetry_int_tables_number       1

loop_
  _symmetry_equiv_pos_as_xyz
  'x, y, z'

loop_
  _atom_site_label
  _atom_site_occupancy
  _atom_site_fract_x
  _atom_site_fract_y
  _atom_site_fract_z
  _atom_site_thermal_displace_type
  _atom_site_B_iso_or_equiv
  _atom_site_type_symbol
  Cu1      1.0000 0.67131  0.18512  0.01348  Biso   1.000  Cu
  Cu2      1.0000 0.32869  0.68512  0.48652  Biso   1.000  Cu
  Cu3      1.0000 0.32869  0.81488  0.98652  Biso   1.000  Cu
  Cu4      1.0000 0.67131  0.31488  0.51348  Biso   1.000  Cu
  O1       1.0000 0.57540  0.89627  0.93332  Biso   1.000  O
  O2       1.0000 0.42460  0.39627  0.56668  Biso   1.000  O
  O3       1.0000 0.42460  0.10373  0.06668  Biso   1.000  O
  O4       1.0000 0.57540  0.60373  0.43332  Biso   1.000  O
  O5       1.0000 0.69858  0.02860  0.92522  Biso   1.000  O
  O6       1.0000 0.30142  0.52860  0.57478  Biso   1.000  O
  O7       1.0000 0.30142  0.97140  0.07478  Biso   1.000  O
  O8       1.0000 0.69858  0.47140  0.42522  Biso   1.000  O
  O9       1.0000 0.58542  0.33300  0.91012  Biso   1.000  O
  O10      1.0000 0.41458  0.83300  0.58988  Biso   1.000  O
  O11      1.0000 0.41458  0.66700  0.08988  Biso   1.000  O
  O12      1.0000 0.58542  0.16700  0.41012  Biso   1.000  O
  O13      1.0000 0.71163  0.50040  0.94941  Biso   1.000  O
  O14      1.0000 0.28837  0.00040  0.55059  Biso   1.000  O
  O15      1.0000 0.28837  0.49960  0.05059  Biso   1.000  O
  O16      1.0000 0.71163  0.99960  0.44941  Biso   1.000  O
  N1       1.0000 0.77661  0.08900  0.12811  Biso   1.000  N
  N2       1.0000 0.22339  0.58900  0.37189  Biso   1.000  N
  N3       1.0000 0.22339  0.91100  0.87189  Biso   1.000  N
  N4       1.0000 0.77661  0.41100  0.62811  Biso   1.000  N
  N5       1.0000 0.61688  0.28860  0.09755  Biso   1.000  N
  N6       1.0000 0.38312  0.78860  0.40245  Biso   1.000  N
  N7       1.0000 0.38312  0.71140  0.90245  Biso   1.000  N
  N8       1.0000 0.61688  0.21140  0.59755  Biso   1.000  N
  C1       1.0000 0.62893  0.78320  0.82035  Biso   1.000  C
  C2       1.0000 0.37107  0.28320  0.67965  Biso   1.000  C
  C3       1.0000 0.37107  0.21680  0.17965  Biso   1.000  C
  C4       1.0000 0.62893  0.71680  0.32035  Biso   1.000  C
  H1       1.0000 0.69090  0.75799  0.82437  Biso   1.000  H
  H2       1.0000 0.30910  0.25799  0.67563  Biso   1.000  H
  H3       1.0000 0.30910  0.24201  0.17563  Biso   1.000  H
  H4       1.0000 0.69090  0.74201  0.32437  Biso   1.000  H
  H5       1.0000 0.59657  0.84926  0.76377  Biso   1.000  H
  H6       1.0000 0.40343  0.34926  0.73623  Biso   1.000  H
  H7       1.0000 0.40343  0.15074  0.23623  Biso   1.000  H
  H8       1.0000 0.59657  0.65074  0.26377  Biso   1.000  H
  C5       1.0000 0.63105  0.47210  0.89886  Biso   1.000  C
  C6       1.0000 0.36895  0.97210  0.60114  Biso   1.000  C
  C7       1.0000 0.36895  0.52790  0.10114  Biso   1.000  C
  C8       1.0000 0.63105  0.02790  0.39886  Biso   1.000  C
  C9       1.0000 0.63387  0.90800  0.89864  Biso   1.000  C
  C10      1.0000 0.36613  0.40800  0.60136  Biso   1.000  C
  C11      1.0000 0.36613  0.09200  0.10136  Biso   1.000  C
  C12      1.0000 0.63387  0.59200  0.39864  Biso   1.000  C
  C13      1.0000 0.58072  0.59810  0.81855  Biso   1.000  C
  C14      1.0000 0.41928  0.09810  0.68145  Biso   1.000  C
  C15      1.0000 0.41928  0.40190  0.18145  Biso   1.000  C
  C16      1.0000 0.58072  0.90190  0.31855  Biso   1.000  C
  H9       1.0000 0.51968  0.62363  0.81708  Biso   1.000  H
  H10      1.0000 0.48032  0.12363  0.68292  Biso   1.000  H
  H11      1.0000 0.48032  0.37637  0.18292  Biso   1.000  H
  H12      1.0000 0.51968  0.87637  0.31708  Biso   1.000  H
  H13      1.0000 0.57351  0.53172  0.76310  Biso   1.000  H
  H14      1.0000 0.42649  0.03172  0.73690  Biso   1.000  H
  H15      1.0000 0.42649  0.46828  0.23690  Biso   1.000  H
  H16      1.0000 0.57351  0.96828  0.26310  Biso   1.000  H
  C17      1.0000 0.85343  0.22790  0.15207  Biso   1.000  C
  C18      1.0000 0.14657  0.72790  0.34793  Biso   1.000  C
  C19      1.0000 0.14657  0.77210  0.84793  Biso   1.000  C
  C20      1.0000 0.85343  0.27210  0.65207  Biso   1.000  C
  H17      1.0000 0.89817  0.19906  0.21237  Biso   1.000  H
  H18      1.0000 0.10183  0.69906  0.28763  Biso   1.000  H
  H19      1.0000 0.10183  0.80094  0.78763  Biso   1.000  H
  H20      1.0000 0.89817  0.30094  0.71237  Biso   1.000  H
  H21      1.0000 0.82909  0.35210  0.15432  Biso   1.000  H
  H22      1.0000 0.17091  0.85210  0.34568  Biso   1.000  H
  H23      1.0000 0.17091  0.64790  0.84568  Biso   1.000  H
  H24      1.0000 0.82909  0.14790  0.65432  Biso   1.000  H
  C21      1.0000 0.73707  0.09090  0.19961  Biso   1.000  C
  C22      1.0000 0.26293  0.59090  0.30039  Biso   1.000  C
  C23      1.0000 0.26293  0.90910  0.80039  Biso   1.000  C
  C24      1.0000 0.73707  0.40910  0.69961  Biso   1.000  C
  H25      1.0000 0.78643  0.08426  0.25925  Biso   1.000  H
  H26      1.0000 0.21357  0.58426  0.24075  Biso   1.000  H
  H27      1.0000 0.21357  0.91574  0.74075  Biso   1.000  H
  H28      1.0000 0.78643  0.41574  0.75925  Biso   1.000  H
  H29      1.0000 0.69783  0.98200  0.19233  Biso   1.000  H
  H30      1.0000 0.30217  0.48200  0.30767  Biso   1.000  H
  H31      1.0000 0.30217  0.01800  0.80767  Biso   1.000  H
  H32      1.0000 0.69783  0.51800  0.69233  Biso   1.000  H
  C25      1.0000 0.80721  0.89560  0.11766  Biso   1.000  C
  C26      1.0000 0.19279  0.39560  0.38234  Biso   1.000  C
  C27      1.0000 0.19279  0.10440  0.88234  Biso   1.000  C
  C28      1.0000 0.80721  0.60440  0.61766  Biso   1.000  C
  H33      1.0000 0.82895  0.89625  0.06846  Biso   1.000  H
  H34      1.0000 0.17105  0.39625  0.43154  Biso   1.000  H
  H35      1.0000 0.17105  0.10375  0.93154  Biso   1.000  H
  H36      1.0000 0.82895  0.60375  0.56846  Biso   1.000  H
  H37      1.0000 0.75433  0.81263  0.10005  Biso   1.000  H
  H38      1.0000 0.24567  0.31263  0.39995  Biso   1.000  H
  H39      1.0000 0.24567  0.18737  0.89995  Biso   1.000  H
  H40      1.0000 0.75433  0.68737  0.60005  Biso   1.000  H
  C29      1.0000 0.90179  0.23200  0.08705  Biso   1.000  C
  C30      1.0000 0.09821  0.73200  0.41295  Biso   1.000  C
  C31      1.0000 0.09821  0.76800  0.91295  Biso   1.000  C
  C32      1.0000 0.90179  0.26800  0.58705  Biso   1.000  C
  H41      1.0000 0.95001  0.32408  0.10683  Biso   1.000  H
  H42      1.0000 0.04999  0.82408  0.39317  Biso   1.000  H
  H43      1.0000 0.04999  0.67592  0.89317  Biso   1.000  H
  H44      1.0000 0.95001  0.17592  0.60683  Biso   1.000  H
  H45      1.0000 0.92768  0.11059  0.08550  Biso   1.000  H
  H46      1.0000 0.07232  0.61059  0.41450  Biso   1.000  H
  H47      1.0000 0.07232  0.88941  0.91450  Biso   1.000  H
  H48      1.0000 0.92768  0.38941  0.58550  Biso   1.000  H
  H49      1.0000 0.85851  0.26384  0.02737  Biso   1.000  H
  H50      1.0000 0.14149  0.76384  0.47263  Biso   1.000  H
  H51      1.0000 0.14149  0.73616  0.97263  Biso   1.000  H
  H52      1.0000 0.85851  0.23616  0.52737  Biso   1.000  H
  C33      1.0000 0.68198  0.26720  0.19240  Biso   1.000  C
  C34      1.0000 0.31802  0.76720  0.30760  Biso   1.000  C
  C35      1.0000 0.31802  0.73280  0.80760  Biso   1.000  C
  C36      1.0000 0.68198  0.23280  0.69240  Biso   1.000  C
  H53      1.0000 0.64869  0.25911  0.23228  Biso   1.000  H
  H54      1.0000 0.35131  0.75911  0.26772  Biso   1.000  H
  H55      1.0000 0.35131  0.74089  0.76772  Biso   1.000  H
  H56      1.0000 0.64869  0.24089  0.73228  Biso   1.000  H
  H57      1.0000 0.72270  0.37503  0.21047  Biso   1.000  H
  H58      1.0000 0.27730  0.87503  0.28953  Biso   1.000  H
  H59      1.0000 0.27730  0.62497  0.78953  Biso   1.000  H
  H60      1.0000 0.72270  0.12497  0.71047  Biso   1.000  H
  C37      1.0000 0.88274  0.81480  0.20193  Biso   1.000  C
  C38      1.0000 0.11726  0.31480  0.29807  Biso   1.000  C
  C39      1.0000 0.11726  0.18520  0.79807  Biso   1.000  C
  C40      1.0000 0.88274  0.68520  0.70193  Biso   1.000  C
  H61      1.0000 0.89799  0.69052  0.18898  Biso   1.000  H
  H62      1.0000 0.10201  0.19052  0.31102  Biso   1.000  H
  H63      1.0000 0.10201  0.30948  0.81102  Biso   1.000  H
  H64      1.0000 0.89799  0.80948  0.68898  Biso   1.000  H
  H65      1.0000 0.93631  0.89337  0.21913  Biso   1.000  H
  H66      1.0000 0.06369  0.39337  0.28087  Biso   1.000  H
  H67      1.0000 0.06369  0.10663  0.78087  Biso   1.000  H
  H68      1.0000 0.93631  0.60663  0.71913  Biso   1.000  H
  H69      1.0000 0.86154  0.80957  0.25079  Biso   1.000  H
  H70      1.0000 0.13846  0.30957  0.24921  Biso   1.000  H
  H71      1.0000 0.13846  0.19043  0.74921  Biso   1.000  H
  H72      1.0000 0.86154  0.69043  0.75079  Biso   1.000  H
  H73      1.0000 0.57100  0.22100  0.08980  Biso   1.000  H
  H74      1.0000 0.42900  0.72100  0.41020  Biso   1.000  H
  H75      1.0000 0.42900  0.77900  0.91020  Biso   1.000  H
  H76      1.0000 0.57100  0.27900  0.58980  Biso   1.000  H
  H77      1.0000 0.60360  0.40700  0.08210  Biso   1.000  H
  H78      1.0000 0.39640  0.90700  0.41790  Biso   1.000  H
  H79      1.0000 0.39640  0.59300  0.91790  Biso   1.000  H
  H80      1.0000 0.60360  0.09300  0.58210  Biso   1.000  H
  O17      1.0000 0.03765  0.67550  0.10053  Biso   1.000  O
  O18      1.0000 0.96235  0.17550  0.39947  Biso   1.000  O
  O19      1.0000 0.96235  0.32450  0.89947  Biso   1.000  O
  O20      1.0000 0.03765  0.82450  0.60053  Biso   1.000  O
  H81      1.0000 0.04100  0.78200  0.07500  Biso   1.000  H
  H82      1.0000 0.95900  0.28200  0.42500  Biso   1.000  H
  H83      1.0000 0.95900  0.21800  0.92500  Biso   1.000  H
  H84      1.0000 0.04100  0.71800  0.57500  Biso   1.000  H
  H85      1.0000 0.06600  0.57600  0.08700  Biso   1.000  H
  H86      1.0000 0.93400  0.07600  0.41300  Biso   1.000  H
  H87      1.0000 0.93400  0.42400  0.91300  Biso   1.000  H
  H88      1.0000 0.06600  0.92400  0.58700  Biso   1.000  H
  O21      1.0000 0.84947  0.00780  0.86832  Biso   1.000  O
  O22      1.0000 0.15053  0.50780  0.63168  Biso   1.000  O
  O23      1.0000 0.15053  0.99220  0.13168  Biso   1.000  O
  O24      1.0000 0.84947  0.49220  0.36832  Biso   1.000  O
  H89      1.0000 0.80530  0.02700  0.88500  Biso   1.000  H
  H90      1.0000 0.19470  0.52700  0.61500  Biso   1.000  H
  H91      1.0000 0.19470  0.97300  0.11500  Biso   1.000  H
  H92      1.0000 0.80530  0.47300  0.38500  Biso   1.000  H
  H93      1.0000 0.86700  0.89600  0.88900  Biso   1.000  H
  H94      1.0000 0.13300  0.39600  0.61100  Biso   1.000  H
  H95      1.0000 0.13300  0.10400  0.11100  Biso   1.000  H
  H96      1.0000 0.86700  0.60400  0.38900  Biso   1.000  H
  O25      1.0000 0.87644  0.63930  0.94072  Biso   1.000  O
  O26      1.0000 0.12356  0.13930  0.55928  Biso   1.000  O
  O27      1.0000 0.12356  0.36070  0.05928  Biso   1.000  O
  O28      1.0000 0.87644  0.86070  0.44072  Biso   1.000  O
  H97      1.0000 0.91400  0.66300  0.99900  Biso   1.000  H
  H98      1.0000 0.08600  0.16300  0.50100  Biso   1.000  H
  H99      1.0000 0.08600  0.33700  0.00100  Biso   1.000  H
  H100     1.0000 0.91400  0.83700  0.49900  Biso   1.000  H
  H101     1.0000 0.82470  0.61200  0.94800  Biso   1.000  H
  H102     1.0000 0.17530  0.11200  0.55200  Biso   1.000  H
  H103     1.0000 0.17530  0.38800  0.05200  Biso   1.000  H
  H104     1.0000 0.82470  0.88800  0.44800  Biso   1.000  H
  O29      1.0000 0.40918  0.30190  0.90647  Biso   1.000  O
  O30      1.0000 0.59082  0.80190  0.59353  Biso   1.000  O
  O31      1.0000 0.59082  0.69810  0.09353  Biso   1.000  O
  O32      1.0000 0.40918  0.19810  0.40647  Biso   1.000  O
  H105     1.0000 0.41400  0.24400  0.95100  Biso   1.000  H
  H106     1.0000 0.58600  0.74400  0.54900  Biso   1.000  H
  H107     1.0000 0.58600  0.75600  0.04900  Biso   1.000  H
  H108     1.0000 0.41400  0.25600  0.45100  Biso   1.000  H
  H109     1.0000 0.46300  0.30300  0.90670  Biso   1.000  H
  H110     1.0000 0.53700  0.80300  0.59330  Biso   1.000  H
  H111     1.0000 0.53700  0.69700  0.09330  Biso   1.000  H
  H112     1.0000 0.46300  0.19700  0.40670  Biso   1.000  H
