data_image0
_cell_length_a       15.158
_cell_length_b       22.677
_cell_length_c       7.508
_cell_angle_alpha    90
_cell_angle_beta     90
_cell_angle_gamma    90

_symmetry_space_group_name_H-M    "P 1"
_symmetry_int_tables_number       1

loop_
  _symmetry_equiv_pos_as_xyz
  'x, y, z'

loop_
  _atom_site_label
  _atom_site_occupancy
  _atom_site_fract_x
  _atom_site_fract_y
  _atom_site_fract_z
  _atom_site_thermal_displace_type
  _atom_site_B_iso_or_equiv
  _atom_site_type_symbol
  Cu1      1.0000 0.30117  0.05932  0.32477  Biso   1.000  Cu
  Cu2      1.0000 0.19883  0.55932  0.32477  Biso   1.000  Cu
  Cu3      1.0000 0.30117  0.44068  0.82477  Biso   1.000  Cu
  Cu4      1.0000 0.80117  0.05932  0.17523  Biso   1.000  Cu
  Cu5      1.0000 0.69883  0.94068  0.67523  Biso   1.000  Cu
  Cu6      1.0000 0.80117  0.44068  0.67523  Biso   1.000  Cu
  Cu7      1.0000 0.69883  0.55932  0.17523  Biso   1.000  Cu
  Cu8      1.0000 0.19883  0.94068  0.82477  Biso   1.000  Cu
  C1       1.0000 0.20560  0.15683  0.13860  Biso   1.000  C
  C2       1.0000 0.29440  0.65683  0.13860  Biso   1.000  C
  C3       1.0000 0.20560  0.34317  0.63860  Biso   1.000  C
  C4       1.0000 0.70560  0.15683  0.36140  Biso   1.000  C
  C5       1.0000 0.79440  0.84317  0.86140  Biso   1.000  C
  C6       1.0000 0.70560  0.34317  0.86140  Biso   1.000  C
  C7       1.0000 0.79440  0.65683  0.36140  Biso   1.000  C
  C8       1.0000 0.29440  0.84317  0.63860  Biso   1.000  C
  C9       1.0000 0.16730  0.21280  0.14460  Biso   1.000  C
  C10      1.0000 0.33270  0.71280  0.14460  Biso   1.000  C
  C11      1.0000 0.16730  0.28720  0.64460  Biso   1.000  C
  C12      1.0000 0.66730  0.21280  0.35540  Biso   1.000  C
  C13      1.0000 0.83270  0.78720  0.85540  Biso   1.000  C
  C14      1.0000 0.66730  0.28720  0.85540  Biso   1.000  C
  C15      1.0000 0.83270  0.71280  0.35540  Biso   1.000  C
  C16      1.0000 0.33270  0.78720  0.64460  Biso   1.000  C
  C17      1.0000 0.09200  0.22640  0.05320  Biso   1.000  C
  C18      1.0000 0.40800  0.72640  0.05320  Biso   1.000  C
  C19      1.0000 0.09200  0.27360  0.55320  Biso   1.000  C
  C20      1.0000 0.59200  0.22640  0.44680  Biso   1.000  C
  C21      1.0000 0.90800  0.77360  0.94680  Biso   1.000  C
  C22      1.0000 0.59200  0.27360  0.94680  Biso   1.000  C
  C23      1.0000 0.90800  0.72640  0.44680  Biso   1.000  C
  C24      1.0000 0.40800  0.77360  0.55320  Biso   1.000  C
  C25      1.0000 0.05180  0.18450  0.94760  Biso   1.000  C
  C26      1.0000 0.44820  0.68450  0.94760  Biso   1.000  C
  C27      1.0000 0.05180  0.31550  0.44760  Biso   1.000  C
  C28      1.0000 0.55180  0.18450  0.55240  Biso   1.000  C
  C29      1.0000 0.94820  0.81550  0.05240  Biso   1.000  C
  C30      1.0000 0.55180  0.31550  0.05240  Biso   1.000  C
  C31      1.0000 0.94820  0.68450  0.55240  Biso   1.000  C
  C32      1.0000 0.44820  0.81550  0.44760  Biso   1.000  C
  C33      1.0000 0.08950  0.12910  0.93510  Biso   1.000  C
  C34      1.0000 0.41050  0.62910  0.93510  Biso   1.000  C
  C35      1.0000 0.08950  0.37090  0.43510  Biso   1.000  C
  C36      1.0000 0.58950  0.12910  0.56490  Biso   1.000  C
  C37      1.0000 0.91050  0.87090  0.06490  Biso   1.000  C
  C38      1.0000 0.58950  0.37090  0.06490  Biso   1.000  C
  C39      1.0000 0.91050  0.62910  0.56490  Biso   1.000  C
  C40      1.0000 0.41050  0.87090  0.43510  Biso   1.000  C
  C41      1.0000 0.16570  0.11372  0.02700  Biso   1.000  C
  C42      1.0000 0.33430  0.61372  0.02700  Biso   1.000  C
  C43      1.0000 0.16570  0.38628  0.52700  Biso   1.000  C
  C44      1.0000 0.66570  0.11372  0.47300  Biso   1.000  C
  C45      1.0000 0.83430  0.88628  0.97300  Biso   1.000  C
  C46      1.0000 0.66570  0.38628  0.97300  Biso   1.000  C
  C47      1.0000 0.83430  0.61372  0.47300  Biso   1.000  C
  C48      1.0000 0.33430  0.88628  0.52700  Biso   1.000  C
  C49      1.0000 0.20060  0.05226  0.00380  Biso   1.000  C
  C50      1.0000 0.29940  0.55226  0.00380  Biso   1.000  C
  C51      1.0000 0.20060  0.44774  0.50380  Biso   1.000  C
  C52      1.0000 0.70060  0.05226  0.49620  Biso   1.000  C
  C53      1.0000 0.79940  0.94774  0.99620  Biso   1.000  C
  C54      1.0000 0.70060  0.44774  0.99620  Biso   1.000  C
  C55      1.0000 0.79940  0.55226  0.49620  Biso   1.000  C
  C56      1.0000 0.29940  0.94774  0.50380  Biso   1.000  C
  O1       1.0000 0.25900  0.03084  0.10170  Biso   1.000  O
  O2       1.0000 0.24100  0.53084  0.10170  Biso   1.000  O
  O3       1.0000 0.25900  0.46916  0.60170  Biso   1.000  O
  O4       1.0000 0.75900  0.03084  0.39830  Biso   1.000  O
  O5       1.0000 0.74100  0.96916  0.89830  Biso   1.000  O
  O6       1.0000 0.75900  0.46916  0.89830  Biso   1.000  O
  O7       1.0000 0.74100  0.53084  0.39830  Biso   1.000  O
  O8       1.0000 0.24100  0.96916  0.60170  Biso   1.000  O
  O9       1.0000 0.16690  0.02329  0.87710  Biso   1.000  O
  O10      1.0000 0.33310  0.52329  0.87710  Biso   1.000  O
  O11      1.0000 0.16690  0.47671  0.37710  Biso   1.000  O
  O12      1.0000 0.66690  0.02329  0.62290  Biso   1.000  O
  O13      1.0000 0.83310  0.97671  0.12290  Biso   1.000  O
  O14      1.0000 0.66690  0.47671  0.12290  Biso   1.000  O
  O15      1.0000 0.83310  0.52329  0.62290  Biso   1.000  O
  O16      1.0000 0.33310  0.97671  0.37710  Biso   1.000  O
  O17      1.0000 0.44220  0.07496  0.22350  Biso   1.000  O
  O18      1.0000 0.05780  0.57496  0.22350  Biso   1.000  O
  O19      1.0000 0.44220  0.42504  0.72350  Biso   1.000  O
  O20      1.0000 0.94220  0.07496  0.27650  Biso   1.000  O
  O21      1.0000 0.55780  0.92504  0.77650  Biso   1.000  O
  O22      1.0000 0.94220  0.42504  0.77650  Biso   1.000  O
  O23      1.0000 0.55780  0.57496  0.27650  Biso   1.000  O
  O24      1.0000 0.05780  0.92504  0.72350  Biso   1.000  O
  C57      1.0000 0.44260  0.12020  0.13980  Biso   1.000  C
  C58      1.0000 0.05740  0.62020  0.13980  Biso   1.000  C
  C59      1.0000 0.44260  0.37980  0.63980  Biso   1.000  C
  C60      1.0000 0.94260  0.12020  0.36020  Biso   1.000  C
  C61      1.0000 0.55740  0.87980  0.86020  Biso   1.000  C
  C62      1.0000 0.94260  0.37980  0.86020  Biso   1.000  C
  C63      1.0000 0.55740  0.62020  0.36020  Biso   1.000  C
  C64      1.0000 0.05740  0.87980  0.63980  Biso   1.000  C
  O25      1.0000 0.50930  0.14019  0.04810  Biso   1.000  O
  O26      1.0000 0.99070  0.64019  0.04810  Biso   1.000  O
  O27      1.0000 0.50930  0.35981  0.54810  Biso   1.000  O
  O28      1.0000 0.00930  0.14019  0.45190  Biso   1.000  O
  O29      1.0000 0.49070  0.85981  0.95190  Biso   1.000  O
  O30      1.0000 0.00930  0.35981  0.95190  Biso   1.000  O
  O31      1.0000 0.49070  0.64019  0.45190  Biso   1.000  O
  O32      1.0000 0.99070  0.85981  0.54810  Biso   1.000  O
  H1       1.0000 0.55180  0.11820  0.06140  Biso   1.000  H
  H2       1.0000 0.94820  0.61820  0.06140  Biso   1.000  H
  H3       1.0000 0.55180  0.38180  0.56140  Biso   1.000  H
  H4       1.0000 0.05180  0.11820  0.43860  Biso   1.000  H
  H5       1.0000 0.44820  0.88180  0.93860  Biso   1.000  H
  H6       1.0000 0.05180  0.38180  0.93860  Biso   1.000  H
  H7       1.0000 0.44820  0.61820  0.43860  Biso   1.000  H
  H8       1.0000 0.94820  0.88180  0.56140  Biso   1.000  H
  C65      1.0000 0.36280  0.15930  0.11790  Biso   1.000  C
  C66      1.0000 0.13720  0.65930  0.11790  Biso   1.000  C
  C67      1.0000 0.36280  0.34070  0.61790  Biso   1.000  C
  C68      1.0000 0.86280  0.15930  0.38210  Biso   1.000  C
  C69      1.0000 0.63720  0.84070  0.88210  Biso   1.000  C
  C70      1.0000 0.86280  0.34070  0.88210  Biso   1.000  C
  C71      1.0000 0.63720  0.65930  0.38210  Biso   1.000  C
  C72      1.0000 0.13720  0.84070  0.61790  Biso   1.000  C
  N1       1.0000 0.28720  0.14544  0.23460  Biso   1.000  N
  N2       1.0000 0.21280  0.64544  0.23460  Biso   1.000  N
  N3       1.0000 0.28720  0.35456  0.73460  Biso   1.000  N
  N4       1.0000 0.78720  0.14544  0.26540  Biso   1.000  N
  N5       1.0000 0.71280  0.85456  0.76540  Biso   1.000  N
  N6       1.0000 0.78720  0.35456  0.76540  Biso   1.000  N
  N7       1.0000 0.71280  0.64544  0.26540  Biso   1.000  N
  N8       1.0000 0.21280  0.85456  0.73460  Biso   1.000  N
  C73      1.0000 0.28990  0.18030  0.40630  Biso   1.000  C
  C74      1.0000 0.21010  0.68030  0.40630  Biso   1.000  C
  C75      1.0000 0.28990  0.31970  0.90630  Biso   1.000  C
  C76      1.0000 0.78990  0.18030  0.09370  Biso   1.000  C
  C77      1.0000 0.71010  0.81970  0.59370  Biso   1.000  C
  C78      1.0000 0.78990  0.31970  0.59370  Biso   1.000  C
  C79      1.0000 0.71010  0.68030  0.09370  Biso   1.000  C
  C80      1.0000 0.21010  0.81970  0.90630  Biso   1.000  C
  C81      1.0000 0.32670  0.14770  0.56620  Biso   1.000  C
  C82      1.0000 0.17330  0.64770  0.56620  Biso   1.000  C
  C83      1.0000 0.32670  0.35230  0.06620  Biso   1.000  C
  C84      1.0000 0.82670  0.14770  0.93380  Biso   1.000  C
  C85      1.0000 0.67330  0.85230  0.43380  Biso   1.000  C
  C86      1.0000 0.82670  0.35230  0.43380  Biso   1.000  C
  C87      1.0000 0.67330  0.64770  0.93380  Biso   1.000  C
  C88      1.0000 0.17330  0.85230  0.06620  Biso   1.000  C
  O33      1.0000 0.33610  0.09160  0.55030  Biso   1.000  O
  O34      1.0000 0.16390  0.59160  0.55030  Biso   1.000  O
  O35      1.0000 0.33610  0.40840  0.05030  Biso   1.000  O
  O36      1.0000 0.83610  0.09160  0.94970  Biso   1.000  O
  O37      1.0000 0.66390  0.90840  0.44970  Biso   1.000  O
  O38      1.0000 0.83610  0.40840  0.44970  Biso   1.000  O
  O39      1.0000 0.66390  0.59160  0.94970  Biso   1.000  O
  O40      1.0000 0.16390  0.90840  0.05030  Biso   1.000  O
  O41      1.0000 0.34220  0.17703  0.69810  Biso   1.000  O
  O42      1.0000 0.15780  0.67703  0.69810  Biso   1.000  O
  O43      1.0000 0.34220  0.32297  0.19810  Biso   1.000  O
  O44      1.0000 0.84220  0.17703  0.80190  Biso   1.000  O
  O45      1.0000 0.65780  0.82297  0.30190  Biso   1.000  O
  O46      1.0000 0.84220  0.32297  0.30190  Biso   1.000  O
  O47      1.0000 0.65780  0.67703  0.80190  Biso   1.000  O
  O48      1.0000 0.15780  0.82297  0.19810  Biso   1.000  O
  O49      1.0000 0.06530  0.97460  0.29840  Biso   1.000  O
  O50      1.0000 0.43470  0.47460  0.29840  Biso   1.000  O
  O51      1.0000 0.06530  0.52540  0.79840  Biso   1.000  O
  O52      1.0000 0.56530  0.97460  0.20160  Biso   1.000  O
  O53      1.0000 0.93470  0.02540  0.70160  Biso   1.000  O
  O54      1.0000 0.56530  0.52540  0.70160  Biso   1.000  O
  O55      1.0000 0.93470  0.47460  0.20160  Biso   1.000  O
  O56      1.0000 0.43470  0.02540  0.79840  Biso   1.000  O
  O57      1.0000 0.14060  0.06530  0.46370  Biso   1.000  O
  O58      1.0000 0.35940  0.56530  0.46370  Biso   1.000  O
  O59      1.0000 0.14060  0.43470  0.96370  Biso   1.000  O
  O60      1.0000 0.64060  0.06530  0.03630  Biso   1.000  O
  O61      1.0000 0.85940  0.93470  0.53630  Biso   1.000  O
  O62      1.0000 0.64060  0.43470  0.53630  Biso   1.000  O
  O63      1.0000 0.85940  0.56530  0.03630  Biso   1.000  O
  O64      1.0000 0.35940  0.93470  0.96370  Biso   1.000  O
  H9       1.0000 0.19600  0.23700  0.21400  Biso   1.000  H
  H10      1.0000 0.30400  0.73700  0.21400  Biso   1.000  H
  H11      1.0000 0.19600  0.26300  0.71400  Biso   1.000  H
  H12      1.0000 0.69600  0.23700  0.28600  Biso   1.000  H
  H13      1.0000 0.80400  0.76300  0.78600  Biso   1.000  H
  H14      1.0000 0.69600  0.26300  0.78600  Biso   1.000  H
  H15      1.0000 0.80400  0.73700  0.28600  Biso   1.000  H
  H16      1.0000 0.30400  0.76300  0.71400  Biso   1.000  H
  H17      1.0000 0.06900  0.26500  0.05900  Biso   1.000  H
  H18      1.0000 0.43100  0.76500  0.05900  Biso   1.000  H
  H19      1.0000 0.06900  0.23500  0.55900  Biso   1.000  H
  H20      1.0000 0.56900  0.26500  0.44100  Biso   1.000  H
  H21      1.0000 0.93100  0.73500  0.94100  Biso   1.000  H
  H22      1.0000 0.56900  0.23500  0.94100  Biso   1.000  H
  H23      1.0000 0.93100  0.76500  0.44100  Biso   1.000  H
  H24      1.0000 0.43100  0.73500  0.55900  Biso   1.000  H
  H25      1.0000 0.00100  0.19400  0.86400  Biso   1.000  H
  H26      1.0000 0.49900  0.69400  0.86400  Biso   1.000  H
  H27      1.0000 0.00100  0.30600  0.36400  Biso   1.000  H
  H28      1.0000 0.50100  0.19400  0.63600  Biso   1.000  H
  H29      1.0000 0.99900  0.80600  0.13600  Biso   1.000  H
  H30      1.0000 0.50100  0.30600  0.13600  Biso   1.000  H
  H31      1.0000 0.99900  0.69400  0.63600  Biso   1.000  H
  H32      1.0000 0.49900  0.80600  0.36400  Biso   1.000  H
  H33      1.0000 0.06800  0.10400  0.87100  Biso   1.000  H
  H34      1.0000 0.43200  0.60400  0.87100  Biso   1.000  H
  H35      1.0000 0.06800  0.39600  0.37100  Biso   1.000  H
  H36      1.0000 0.56800  0.10400  0.62900  Biso   1.000  H
  H37      1.0000 0.93200  0.89600  0.12900  Biso   1.000  H
  H38      1.0000 0.56800  0.39600  0.12900  Biso   1.000  H
  H39      1.0000 0.93200  0.60400  0.62900  Biso   1.000  H
  H40      1.0000 0.43200  0.89600  0.37100  Biso   1.000  H
  H41      1.0000 0.37900  0.20000  0.13000  Biso   1.000  H
  H42      1.0000 0.12100  0.70000  0.13000  Biso   1.000  H
  H43      1.0000 0.37900  0.30000  0.63000  Biso   1.000  H
  H44      1.0000 0.87900  0.20000  0.37000  Biso   1.000  H
  H45      1.0000 0.62100  0.80000  0.87000  Biso   1.000  H
  H46      1.0000 0.87900  0.30000  0.87000  Biso   1.000  H
  H47      1.0000 0.62100  0.70000  0.37000  Biso   1.000  H
  H48      1.0000 0.12100  0.80000  0.63000  Biso   1.000  H
  H49      1.0000 0.34400  0.15400  0.02100  Biso   1.000  H
  H50      1.0000 0.15600  0.65400  0.02100  Biso   1.000  H
  H51      1.0000 0.34400  0.34600  0.52100  Biso   1.000  H
  H52      1.0000 0.84400  0.15400  0.47900  Biso   1.000  H
  H53      1.0000 0.65600  0.84600  0.97900  Biso   1.000  H
  H54      1.0000 0.84400  0.34600  0.97900  Biso   1.000  H
  H55      1.0000 0.65600  0.65400  0.47900  Biso   1.000  H
  H56      1.0000 0.15600  0.84600  0.52100  Biso   1.000  H
  H57      1.0000 0.32400  0.21500  0.40100  Biso   1.000  H
  H58      1.0000 0.17600  0.71500  0.40100  Biso   1.000  H
  H59      1.0000 0.32400  0.28500  0.90100  Biso   1.000  H
  H60      1.0000 0.82400  0.21500  0.09900  Biso   1.000  H
  H61      1.0000 0.67600  0.78500  0.59900  Biso   1.000  H
  H62      1.0000 0.82400  0.28500  0.59900  Biso   1.000  H
  H63      1.0000 0.67600  0.71500  0.09900  Biso   1.000  H
  H64      1.0000 0.17600  0.78500  0.90100  Biso   1.000  H
  H65      1.0000 0.22300  0.18500  0.45200  Biso   1.000  H
  H66      1.0000 0.27700  0.68500  0.45200  Biso   1.000  H
  H67      1.0000 0.22300  0.31500  0.95200  Biso   1.000  H
  H68      1.0000 0.72300  0.18500  0.04800  Biso   1.000  H
  H69      1.0000 0.77700  0.81500  0.54800  Biso   1.000  H
  H70      1.0000 0.72300  0.31500  0.54800  Biso   1.000  H
  H71      1.0000 0.77700  0.68500  0.04800  Biso   1.000  H
  H72      1.0000 0.27700  0.81500  0.95200  Biso   1.000  H
  H73      1.0000 0.04400  0.99200  0.22600  Biso   1.000  H
  H74      1.0000 0.45600  0.49200  0.22600  Biso   1.000  H
  H75      1.0000 0.04400  0.50800  0.72600  Biso   1.000  H
  H76      1.0000 0.54400  0.99200  0.27400  Biso   1.000  H
  H77      1.0000 0.95600  0.00800  0.77400  Biso   1.000  H
  H78      1.0000 0.54400  0.50800  0.77400  Biso   1.000  H
  H79      1.0000 0.95600  0.49200  0.27400  Biso   1.000  H
  H80      1.0000 0.45600  0.00800  0.72600  Biso   1.000  H
  H81      1.0000 0.08100  0.95900  0.24000  Biso   1.000  H
  H82      1.0000 0.41900  0.45900  0.24000  Biso   1.000  H
  H83      1.0000 0.08100  0.54100  0.74000  Biso   1.000  H
  H84      1.0000 0.58100  0.95900  0.26000  Biso   1.000  H
  H85      1.0000 0.91900  0.04100  0.76000  Biso   1.000  H
  H86      1.0000 0.58100  0.54100  0.76000  Biso   1.000  H
  H87      1.0000 0.91900  0.45900  0.26000  Biso   1.000  H
  H88      1.0000 0.41900  0.04100  0.74000  Biso   1.000  H
  H89      1.0000 0.15000  0.05100  0.54900  Biso   1.000  H
  H90      1.0000 0.35000  0.55100  0.54900  Biso   1.000  H
  H91      1.0000 0.15000  0.44900  0.04900  Biso   1.000  H
  H92      1.0000 0.65000  0.05100  0.95100  Biso   1.000  H
  H93      1.0000 0.85000  0.94900  0.45100  Biso   1.000  H
  H94      1.0000 0.65000  0.44900  0.45100  Biso   1.000  H
  H95      1.0000 0.85000  0.55100  0.95100  Biso   1.000  H
  H96      1.0000 0.35000  0.94900  0.04900  Biso   1.000  H
  H97      1.0000 0.12300  0.04100  0.39700  Biso   1.000  H
  H98      1.0000 0.37700  0.54100  0.39700  Biso   1.000  H
  H99      1.0000 0.12300  0.45900  0.89700  Biso   1.000  H
  H100     1.0000 0.62300  0.04100  0.10300  Biso   1.000  H
  H101     1.0000 0.87700  0.95900  0.60300  Biso   1.000  H
  H102     1.0000 0.62300  0.45900  0.60300  Biso   1.000  H
  H103     1.0000 0.87700  0.54100  0.10300  Biso   1.000  H
  H104     1.0000 0.37700  0.95900  0.89700  Biso   1.000  H
