data_image0
_cell_length_a       22.659
_cell_length_b       7.5048
_cell_length_c       15.156
_cell_angle_alpha    90
_cell_angle_beta     90
_cell_angle_gamma    90

_symmetry_space_group_name_H-M    "P 1"
_symmetry_int_tables_number       1

loop_
  _symmetry_equiv_pos_as_xyz
  'x, y, z'

loop_
  _atom_site_label
  _atom_site_occupancy
  _atom_site_fract_x
  _atom_site_fract_y
  _atom_site_fract_z
  _atom_site_thermal_displace_type
  _atom_site_B_iso_or_equiv
  _atom_site_type_symbol
  Cu1      1.0000 0.05935  0.17496  0.69884  Biso   1.000  Cu
  Cu2      1.0000 0.44065  0.67496  0.69884  Biso   1.000  Cu
  Cu3      1.0000 0.05935  0.32504  0.19884  Biso   1.000  Cu
  Cu4      1.0000 0.44065  0.82504  0.19884  Biso   1.000  Cu
  Cu5      1.0000 0.94065  0.82504  0.30116  Biso   1.000  Cu
  Cu6      1.0000 0.55935  0.32504  0.30116  Biso   1.000  Cu
  Cu7      1.0000 0.94065  0.67496  0.80116  Biso   1.000  Cu
  Cu8      1.0000 0.55935  0.17496  0.80116  Biso   1.000  Cu
  O1       1.0000 0.14050  0.45180  0.48990  Biso   1.000  O
  O2       1.0000 0.35950  0.95180  0.48990  Biso   1.000  O
  O3       1.0000 0.14050  0.04820  0.98990  Biso   1.000  O
  O4       1.0000 0.35950  0.54820  0.98990  Biso   1.000  O
  O5       1.0000 0.85950  0.54820  0.51010  Biso   1.000  O
  O6       1.0000 0.64050  0.04820  0.51010  Biso   1.000  O
  O7       1.0000 0.85950  0.95180  0.01010  Biso   1.000  O
  O8       1.0000 0.64050  0.45180  0.01010  Biso   1.000  O
  O9       1.0000 0.07480  0.27660  0.55790  Biso   1.000  O
  O10      1.0000 0.42520  0.77660  0.55790  Biso   1.000  O
  O11      1.0000 0.07480  0.22340  0.05790  Biso   1.000  O
  O12      1.0000 0.42520  0.72340  0.05790  Biso   1.000  O
  O13      1.0000 0.92520  0.72340  0.44210  Biso   1.000  O
  O14      1.0000 0.57480  0.22340  0.44210  Biso   1.000  O
  O15      1.0000 0.92520  0.77660  0.94210  Biso   1.000  O
  O16      1.0000 0.57480  0.27660  0.94210  Biso   1.000  O
  O17      1.0000 0.09190  0.94880  0.66370  Biso   1.000  O
  O18      1.0000 0.40810  0.44880  0.66370  Biso   1.000  O
  O19      1.0000 0.09190  0.55120  0.16370  Biso   1.000  O
  O20      1.0000 0.40810  0.05120  0.16370  Biso   1.000  O
  O21      1.0000 0.90810  0.05120  0.33630  Biso   1.000  O
  O22      1.0000 0.59190  0.55120  0.33630  Biso   1.000  O
  O23      1.0000 0.90810  0.44880  0.83630  Biso   1.000  O
  O24      1.0000 0.59190  0.94880  0.83630  Biso   1.000  O
  O25      1.0000 0.17710  0.80220  0.65770  Biso   1.000  O
  O26      1.0000 0.32290  0.30220  0.65770  Biso   1.000  O
  O27      1.0000 0.17710  0.69780  0.15770  Biso   1.000  O
  O28      1.0000 0.32290  0.19780  0.15770  Biso   1.000  O
  O29      1.0000 0.82290  0.19780  0.34230  Biso   1.000  O
  O30      1.0000 0.67710  0.69780  0.34230  Biso   1.000  O
  O31      1.0000 0.82290  0.30220  0.84230  Biso   1.000  O
  O32      1.0000 0.67710  0.80220  0.84230  Biso   1.000  O
  O33      1.0000 0.03030  0.39760  0.74170  Biso   1.000  O
  O34      1.0000 0.46970  0.89760  0.74170  Biso   1.000  O
  O35      1.0000 0.03030  0.10240  0.24170  Biso   1.000  O
  O36      1.0000 0.46970  0.60240  0.24170  Biso   1.000  O
  O37      1.0000 0.96970  0.60240  0.25830  Biso   1.000  O
  O38      1.0000 0.53030  0.10240  0.25830  Biso   1.000  O
  O39      1.0000 0.96970  0.89760  0.75830  Biso   1.000  O
  O40      1.0000 0.53030  0.39760  0.75830  Biso   1.000  O
  O41      1.0000 0.02320  0.62300  0.83340  Biso   1.000  O
  O42      1.0000 0.47680  0.12300  0.83340  Biso   1.000  O
  O43      1.0000 0.02320  0.87700  0.33340  Biso   1.000  O
  O44      1.0000 0.47680  0.37700  0.33340  Biso   1.000  O
  O45      1.0000 0.97680  0.37700  0.16660  Biso   1.000  O
  O46      1.0000 0.52320  0.87700  0.16660  Biso   1.000  O
  O47      1.0000 0.97680  0.12300  0.66660  Biso   1.000  O
  O48      1.0000 0.52320  0.62300  0.66660  Biso   1.000  O
  O49      1.0000 0.06510  0.03700  0.85910  Biso   1.000  O
  O50      1.0000 0.43490  0.53700  0.85910  Biso   1.000  O
  O51      1.0000 0.06510  0.46300  0.35910  Biso   1.000  O
  O52      1.0000 0.43490  0.96300  0.35910  Biso   1.000  O
  O53      1.0000 0.93490  0.96300  0.14090  Biso   1.000  O
  O54      1.0000 0.56510  0.46300  0.14090  Biso   1.000  O
  O55      1.0000 0.93490  0.53700  0.64090  Biso   1.000  O
  O56      1.0000 0.56510  0.03700  0.64090  Biso   1.000  O
  O57      1.0000 0.97450  0.21490  0.93510  Biso   1.000  O
  O58      1.0000 0.52550  0.71490  0.93510  Biso   1.000  O
  O59      1.0000 0.97450  0.28510  0.43510  Biso   1.000  O
  O60      1.0000 0.52550  0.78510  0.43510  Biso   1.000  O
  O61      1.0000 0.02550  0.78510  0.06490  Biso   1.000  O
  O62      1.0000 0.47450  0.28510  0.06490  Biso   1.000  O
  O63      1.0000 0.02550  0.71490  0.56490  Biso   1.000  O
  O64      1.0000 0.47450  0.21490  0.56490  Biso   1.000  O
  N1       1.0000 0.14480  0.26340  0.71230  Biso   1.000  N
  N2       1.0000 0.35520  0.76340  0.71230  Biso   1.000  N
  N3       1.0000 0.14480  0.23660  0.21230  Biso   1.000  N
  N4       1.0000 0.35520  0.73660  0.21230  Biso   1.000  N
  N5       1.0000 0.85520  0.73660  0.28770  Biso   1.000  N
  N6       1.0000 0.64480  0.23660  0.28770  Biso   1.000  N
  N7       1.0000 0.85520  0.76340  0.78770  Biso   1.000  N
  N8       1.0000 0.64480  0.26340  0.78770  Biso   1.000  N
  C1       1.0000 0.15690  0.36260  0.79550  Biso   1.000  C
  C2       1.0000 0.34310  0.86260  0.79550  Biso   1.000  C
  C3       1.0000 0.15690  0.13740  0.29550  Biso   1.000  C
  C4       1.0000 0.34310  0.63740  0.29550  Biso   1.000  C
  C5       1.0000 0.84310  0.63740  0.20450  Biso   1.000  C
  C6       1.0000 0.65690  0.13740  0.20450  Biso   1.000  C
  C7       1.0000 0.84310  0.86260  0.70450  Biso   1.000  C
  C8       1.0000 0.65690  0.36260  0.70450  Biso   1.000  C
  C9       1.0000 0.21270  0.35460  0.83310  Biso   1.000  C
  C10      1.0000 0.28730  0.85460  0.83310  Biso   1.000  C
  C11      1.0000 0.21270  0.14540  0.33310  Biso   1.000  C
  C12      1.0000 0.28730  0.64540  0.33310  Biso   1.000  C
  C13      1.0000 0.78730  0.64540  0.16690  Biso   1.000  C
  C14      1.0000 0.71270  0.14540  0.16690  Biso   1.000  C
  C15      1.0000 0.78730  0.85460  0.66690  Biso   1.000  C
  C16      1.0000 0.71270  0.35460  0.66690  Biso   1.000  C
  C17      1.0000 0.22660  0.44680  0.90820  Biso   1.000  C
  C18      1.0000 0.27340  0.94680  0.90820  Biso   1.000  C
  C19      1.0000 0.22660  0.05320  0.40820  Biso   1.000  C
  C20      1.0000 0.27340  0.55320  0.40820  Biso   1.000  C
  C21      1.0000 0.77340  0.55320  0.09180  Biso   1.000  C
  C22      1.0000 0.72660  0.05320  0.09180  Biso   1.000  C
  C23      1.0000 0.77340  0.94680  0.59180  Biso   1.000  C
  C24      1.0000 0.72660  0.44680  0.59180  Biso   1.000  C
  C25      1.0000 0.18470  0.55170  0.94830  Biso   1.000  C
  C26      1.0000 0.31530  0.05170  0.94830  Biso   1.000  C
  C27      1.0000 0.18470  0.94830  0.44830  Biso   1.000  C
  C28      1.0000 0.31530  0.44830  0.44830  Biso   1.000  C
  C29      1.0000 0.81530  0.44830  0.05170  Biso   1.000  C
  C30      1.0000 0.68470  0.94830  0.05170  Biso   1.000  C
  C31      1.0000 0.81530  0.05170  0.55170  Biso   1.000  C
  C32      1.0000 0.68470  0.55170  0.55170  Biso   1.000  C
  C33      1.0000 0.13000  0.56480  0.91020  Biso   1.000  C
  C34      1.0000 0.37000  0.06480  0.91020  Biso   1.000  C
  C35      1.0000 0.13000  0.93520  0.41020  Biso   1.000  C
  C36      1.0000 0.37000  0.43520  0.41020  Biso   1.000  C
  C37      1.0000 0.87000  0.43520  0.08980  Biso   1.000  C
  C38      1.0000 0.63000  0.93520  0.08980  Biso   1.000  C
  C39      1.0000 0.87000  0.06480  0.58980  Biso   1.000  C
  C40      1.0000 0.63000  0.56480  0.58980  Biso   1.000  C
  C41      1.0000 0.11380  0.47090  0.83430  Biso   1.000  C
  C42      1.0000 0.38620  0.97090  0.83430  Biso   1.000  C
  C43      1.0000 0.11380  0.02910  0.33430  Biso   1.000  C
  C44      1.0000 0.38620  0.52910  0.33430  Biso   1.000  C
  C45      1.0000 0.88620  0.52910  0.16570  Biso   1.000  C
  C46      1.0000 0.61380  0.02910  0.16570  Biso   1.000  C
  C47      1.0000 0.88620  0.97090  0.66570  Biso   1.000  C
  C48      1.0000 0.61380  0.47090  0.66570  Biso   1.000  C
  C49      1.0000 0.15970  0.38310  0.63650  Biso   1.000  C
  C50      1.0000 0.34030  0.88310  0.63650  Biso   1.000  C
  C51      1.0000 0.15970  0.11690  0.13650  Biso   1.000  C
  C52      1.0000 0.34030  0.61690  0.13650  Biso   1.000  C
  C53      1.0000 0.84030  0.61690  0.36350  Biso   1.000  C
  C54      1.0000 0.65970  0.11690  0.36350  Biso   1.000  C
  C55      1.0000 0.84030  0.88310  0.86350  Biso   1.000  C
  C56      1.0000 0.65970  0.38310  0.86350  Biso   1.000  C
  C57      1.0000 0.12040  0.36000  0.55830  Biso   1.000  C
  C58      1.0000 0.37960  0.86000  0.55830  Biso   1.000  C
  C59      1.0000 0.12040  0.14000  0.05830  Biso   1.000  C
  C60      1.0000 0.37960  0.64000  0.05830  Biso   1.000  C
  C61      1.0000 0.87960  0.64000  0.44170  Biso   1.000  C
  C62      1.0000 0.62040  0.14000  0.44170  Biso   1.000  C
  C63      1.0000 0.87960  0.86000  0.94170  Biso   1.000  C
  C64      1.0000 0.62040  0.36000  0.94170  Biso   1.000  C
  C65      1.0000 0.18000  0.09470  0.71020  Biso   1.000  C
  C66      1.0000 0.32000  0.59470  0.71020  Biso   1.000  C
  C67      1.0000 0.18000  0.40530  0.21020  Biso   1.000  C
  C68      1.0000 0.32000  0.90530  0.21020  Biso   1.000  C
  C69      1.0000 0.82000  0.90530  0.28980  Biso   1.000  C
  C70      1.0000 0.68000  0.40530  0.28980  Biso   1.000  C
  C71      1.0000 0.82000  0.59470  0.78980  Biso   1.000  C
  C72      1.0000 0.68000  0.09470  0.78980  Biso   1.000  C
  C73      1.0000 0.14730  0.93430  0.67330  Biso   1.000  C
  C74      1.0000 0.35270  0.43430  0.67330  Biso   1.000  C
  C75      1.0000 0.14730  0.56570  0.17330  Biso   1.000  C
  C76      1.0000 0.35270  0.06570  0.17330  Biso   1.000  C
  C77      1.0000 0.85270  0.06570  0.32670  Biso   1.000  C
  C78      1.0000 0.64730  0.56570  0.32670  Biso   1.000  C
  C79      1.0000 0.85270  0.43430  0.82670  Biso   1.000  C
  C80      1.0000 0.64730  0.93430  0.82670  Biso   1.000  C
  C81      1.0000 0.05340  0.49810  0.80060  Biso   1.000  C
  C82      1.0000 0.44660  0.99810  0.80060  Biso   1.000  C
  C83      1.0000 0.05340  0.00190  0.30060  Biso   1.000  C
  C84      1.0000 0.44660  0.50190  0.30060  Biso   1.000  C
  C85      1.0000 0.94660  0.50190  0.19940  Biso   1.000  C
  C86      1.0000 0.55340  0.00190  0.19940  Biso   1.000  C
  C87      1.0000 0.94660  0.99810  0.69940  Biso   1.000  C
  C88      1.0000 0.55340  0.49810  0.69940  Biso   1.000  C
  H1       1.0000 0.11600  0.44600  0.46000  Biso   1.000  H
  H2       1.0000 0.38400  0.94600  0.46000  Biso   1.000  H
  H3       1.0000 0.11600  0.05400  0.96000  Biso   1.000  H
  H4       1.0000 0.38400  0.55400  0.96000  Biso   1.000  H
  H5       1.0000 0.88400  0.55400  0.54000  Biso   1.000  H
  H6       1.0000 0.61600  0.05400  0.54000  Biso   1.000  H
  H7       1.0000 0.88400  0.94600  0.04000  Biso   1.000  H
  H8       1.0000 0.61600  0.44600  0.04000  Biso   1.000  H
  H9       1.0000 0.09700  0.03600  0.87000  Biso   1.000  H
  H10      1.0000 0.40300  0.53600  0.87000  Biso   1.000  H
  H11      1.0000 0.09700  0.46400  0.37000  Biso   1.000  H
  H12      1.0000 0.40300  0.96400  0.37000  Biso   1.000  H
  H13      1.0000 0.90300  0.96400  0.13000  Biso   1.000  H
  H14      1.0000 0.59700  0.46400  0.13000  Biso   1.000  H
  H15      1.0000 0.90300  0.53600  0.63000  Biso   1.000  H
  H16      1.0000 0.59700  0.03600  0.63000  Biso   1.000  H
  H17      1.0000 0.98700  0.26400  0.97000  Biso   1.000  H
  H18      1.0000 0.51300  0.76400  0.97000  Biso   1.000  H
  H19      1.0000 0.98700  0.23600  0.47000  Biso   1.000  H
  H20      1.0000 0.51300  0.73600  0.47000  Biso   1.000  H
  H21      1.0000 0.01300  0.73600  0.03000  Biso   1.000  H
  H22      1.0000 0.48700  0.23600  0.03000  Biso   1.000  H
  H23      1.0000 0.01300  0.76400  0.53000  Biso   1.000  H
  H24      1.0000 0.48700  0.26400  0.53000  Biso   1.000  H
  H25      1.0000 0.95700  0.24200  0.90900  Biso   1.000  H
  H26      1.0000 0.54300  0.74200  0.90900  Biso   1.000  H
  H27      1.0000 0.95700  0.25800  0.40900  Biso   1.000  H
  H28      1.0000 0.54300  0.75800  0.40900  Biso   1.000  H
  H29      1.0000 0.04300  0.75800  0.09100  Biso   1.000  H
  H30      1.0000 0.45700  0.25800  0.09100  Biso   1.000  H
  H31      1.0000 0.04300  0.74200  0.59100  Biso   1.000  H
  H32      1.0000 0.45700  0.24200  0.59100  Biso   1.000  H
  H33      1.0000 0.24100  0.29500  0.82200  Biso   1.000  H
  H34      1.0000 0.25900  0.79500  0.82200  Biso   1.000  H
  H35      1.0000 0.24100  0.20500  0.32200  Biso   1.000  H
  H36      1.0000 0.25900  0.70500  0.32200  Biso   1.000  H
  H37      1.0000 0.75900  0.70500  0.17800  Biso   1.000  H
  H38      1.0000 0.74100  0.20500  0.17800  Biso   1.000  H
  H39      1.0000 0.75900  0.79500  0.67800  Biso   1.000  H
  H40      1.0000 0.74100  0.29500  0.67800  Biso   1.000  H
  H41      1.0000 0.26400  0.44100  0.93400  Biso   1.000  H
  H42      1.0000 0.23600  0.94100  0.93400  Biso   1.000  H
  H43      1.0000 0.26400  0.05900  0.43400  Biso   1.000  H
  H44      1.0000 0.23600  0.55900  0.43400  Biso   1.000  H
  H45      1.0000 0.73600  0.55900  0.06600  Biso   1.000  H
  H46      1.0000 0.76400  0.05900  0.06600  Biso   1.000  H
  H47      1.0000 0.73600  0.94100  0.56600  Biso   1.000  H
  H48      1.0000 0.76400  0.44100  0.56600  Biso   1.000  H
  H49      1.0000 0.19400  0.61600  0.99900  Biso   1.000  H
  H50      1.0000 0.30600  0.11600  0.99900  Biso   1.000  H
  H51      1.0000 0.19400  0.88400  0.49900  Biso   1.000  H
  H52      1.0000 0.30600  0.38400  0.49900  Biso   1.000  H
  H53      1.0000 0.80600  0.38400  0.00100  Biso   1.000  H
  H54      1.0000 0.69400  0.88400  0.00100  Biso   1.000  H
  H55      1.0000 0.80600  0.11600  0.50100  Biso   1.000  H
  H56      1.0000 0.69400  0.61600  0.50100  Biso   1.000  H
  H57      1.0000 0.10100  0.62600  0.93200  Biso   1.000  H
  H58      1.0000 0.39900  0.12600  0.93200  Biso   1.000  H
  H59      1.0000 0.10100  0.87400  0.43200  Biso   1.000  H
  H60      1.0000 0.39900  0.37400  0.43200  Biso   1.000  H
  H61      1.0000 0.89900  0.37400  0.06800  Biso   1.000  H
  H62      1.0000 0.60100  0.87400  0.06800  Biso   1.000  H
  H63      1.0000 0.89900  0.12600  0.56800  Biso   1.000  H
  H64      1.0000 0.60100  0.62600  0.56800  Biso   1.000  H
  H65      1.0000 0.15400  0.48300  0.65300  Biso   1.000  H
  H66      1.0000 0.34600  0.98300  0.65300  Biso   1.000  H
  H67      1.0000 0.15400  0.01700  0.15300  Biso   1.000  H
  H68      1.0000 0.34600  0.51700  0.15300  Biso   1.000  H
  H69      1.0000 0.84600  0.51700  0.34700  Biso   1.000  H
  H70      1.0000 0.65400  0.01700  0.34700  Biso   1.000  H
  H71      1.0000 0.84600  0.98300  0.84700  Biso   1.000  H
  H72      1.0000 0.65400  0.48300  0.84700  Biso   1.000  H
  H73      1.0000 0.20000  0.38300  0.62500  Biso   1.000  H
  H74      1.0000 0.30000  0.88300  0.62500  Biso   1.000  H
  H75      1.0000 0.20000  0.11700  0.12500  Biso   1.000  H
  H76      1.0000 0.30000  0.61700  0.12500  Biso   1.000  H
  H77      1.0000 0.80000  0.61700  0.37500  Biso   1.000  H
  H78      1.0000 0.70000  0.11700  0.37500  Biso   1.000  H
  H79      1.0000 0.80000  0.88300  0.87500  Biso   1.000  H
  H80      1.0000 0.70000  0.38300  0.87500  Biso   1.000  H
  H81      1.0000 0.21300  0.10700  0.67600  Biso   1.000  H
  H82      1.0000 0.28700  0.60700  0.67600  Biso   1.000  H
  H83      1.0000 0.21300  0.39300  0.17600  Biso   1.000  H
  H84      1.0000 0.28700  0.89300  0.17600  Biso   1.000  H
  H85      1.0000 0.78700  0.89300  0.32400  Biso   1.000  H
  H86      1.0000 0.71300  0.39300  0.32400  Biso   1.000  H
  H87      1.0000 0.78700  0.60700  0.82400  Biso   1.000  H
  H88      1.0000 0.71300  0.10700  0.82400  Biso   1.000  H
  H89      1.0000 0.19600  0.05200  0.77300  Biso   1.000  H
  H90      1.0000 0.30400  0.55200  0.77300  Biso   1.000  H
  H91      1.0000 0.19600  0.44800  0.27300  Biso   1.000  H
  H92      1.0000 0.30400  0.94800  0.27300  Biso   1.000  H
  H93      1.0000 0.80400  0.94800  0.22700  Biso   1.000  H
  H94      1.0000 0.69600  0.44800  0.22700  Biso   1.000  H
  H95      1.0000 0.80400  0.55200  0.72700  Biso   1.000  H
  H96      1.0000 0.69600  0.05200  0.72700  Biso   1.000  H
