data_image0
_cell_length_a       20.375
_cell_length_b       20.375
_cell_length_c       12.665
_cell_angle_alpha    90
_cell_angle_beta     90
_cell_angle_gamma    90

_symmetry_space_group_name_H-M    "P 1"
_symmetry_int_tables_number       1

loop_
  _symmetry_equiv_pos_as_xyz
  'x, y, z'

loop_
  _atom_site_label
  _atom_site_occupancy
  _atom_site_fract_x
  _atom_site_fract_y
  _atom_site_fract_z
  _atom_site_thermal_displace_type
  _atom_site_B_iso_or_equiv
  _atom_site_type_symbol
  Cu1      1.0000 0.50000  0.00000  0.00000  Biso   1.000  Cu
  Cu2      1.0000 0.00000  0.00000  0.50000  Biso   1.000  Cu
  Cu3      1.0000 0.75000  0.75000  0.25000  Biso   1.000  Cu
  Cu4      1.0000 0.75000  0.25000  0.75000  Biso   1.000  Cu
  Cu5      1.0000 0.00000  0.50000  0.50000  Biso   1.000  Cu
  Cu6      1.0000 0.50000  0.50000  0.00000  Biso   1.000  Cu
  Cu7      1.0000 0.25000  0.25000  0.75000  Biso   1.000  Cu
  Cu8      1.0000 0.25000  0.75000  0.25000  Biso   1.000  Cu
  O1       1.0000 0.55440  0.95420  0.89650  Biso   1.000  O
  O2       1.0000 0.94560  0.04580  0.39650  Biso   1.000  O
  O3       1.0000 0.79580  0.80440  0.14650  Biso   1.000  O
  O4       1.0000 0.70420  0.19560  0.64650  Biso   1.000  O
  O5       1.0000 0.05440  0.45420  0.39650  Biso   1.000  O
  O6       1.0000 0.44560  0.54580  0.89650  Biso   1.000  O
  O7       1.0000 0.29580  0.30440  0.64650  Biso   1.000  O
  O8       1.0000 0.20420  0.69560  0.14650  Biso   1.000  O
  O9       1.0000 0.44560  0.04580  0.10350  Biso   1.000  O
  O10      1.0000 0.05440  0.95420  0.60350  Biso   1.000  O
  O11      1.0000 0.70420  0.69560  0.35350  Biso   1.000  O
  O12      1.0000 0.79580  0.30440  0.85350  Biso   1.000  O
  O13      1.0000 0.94560  0.54580  0.60350  Biso   1.000  O
  O14      1.0000 0.55440  0.45420  0.10350  Biso   1.000  O
  O15      1.0000 0.20420  0.19560  0.85350  Biso   1.000  O
  O16      1.0000 0.29580  0.80440  0.35350  Biso   1.000  O
  O17      1.0000 0.56470  0.05450  0.82720  Biso   1.000  O
  O18      1.0000 0.93530  0.94550  0.32720  Biso   1.000  O
  O19      1.0000 0.69550  0.81470  0.07720  Biso   1.000  O
  O20      1.0000 0.80450  0.18530  0.57720  Biso   1.000  O
  O21      1.0000 0.06470  0.55450  0.32720  Biso   1.000  O
  O22      1.0000 0.43530  0.44550  0.82720  Biso   1.000  O
  O23      1.0000 0.19550  0.31470  0.57720  Biso   1.000  O
  O24      1.0000 0.30450  0.68530  0.07720  Biso   1.000  O
  O25      1.0000 0.43530  0.94550  0.17280  Biso   1.000  O
  O26      1.0000 0.06470  0.05450  0.67280  Biso   1.000  O
  O27      1.0000 0.80450  0.68530  0.42280  Biso   1.000  O
  O28      1.0000 0.69550  0.31470  0.92280  Biso   1.000  O
  O29      1.0000 0.93530  0.44550  0.67280  Biso   1.000  O
  O30      1.0000 0.56470  0.55450  0.17280  Biso   1.000  O
  O31      1.0000 0.30450  0.18530  0.92280  Biso   1.000  O
  O32      1.0000 0.19550  0.81470  0.42280  Biso   1.000  O
  N1       1.0000 0.74740  0.82390  0.34910  Biso   1.000  N
  N2       1.0000 0.75260  0.17610  0.84910  Biso   1.000  N
  N3       1.0000 0.92610  0.99740  0.59910  Biso   1.000  N
  N4       1.0000 0.57390  0.00260  0.09910  Biso   1.000  N
  N5       1.0000 0.24740  0.32390  0.84910  Biso   1.000  N
  N6       1.0000 0.25260  0.67610  0.34910  Biso   1.000  N
  N7       1.0000 0.42610  0.49740  0.09910  Biso   1.000  N
  N8       1.0000 0.07390  0.50260  0.59910  Biso   1.000  N
  N9       1.0000 0.25260  0.17610  0.65090  Biso   1.000  N
  N10      1.0000 0.24740  0.82390  0.15090  Biso   1.000  N
  N11      1.0000 0.57390  0.50260  0.90090  Biso   1.000  N
  N12      1.0000 0.92610  0.49740  0.40090  Biso   1.000  N
  N13      1.0000 0.75260  0.67610  0.15090  Biso   1.000  N
  N14      1.0000 0.74740  0.32390  0.65090  Biso   1.000  N
  N15      1.0000 0.07390  0.00260  0.40090  Biso   1.000  N
  N16      1.0000 0.42610  0.99740  0.90090  Biso   1.000  N
  N17      1.0000 0.71760  0.88690  0.48150  Biso   1.000  N
  N18      1.0000 0.78240  0.11310  0.98150  Biso   1.000  N
  N19      1.0000 0.86310  0.96760  0.73150  Biso   1.000  N
  N20      1.0000 0.63690  0.03240  0.23150  Biso   1.000  N
  N21      1.0000 0.21760  0.38690  0.98150  Biso   1.000  N
  N22      1.0000 0.28240  0.61310  0.48150  Biso   1.000  N
  N23      1.0000 0.36310  0.46760  0.23150  Biso   1.000  N
  N24      1.0000 0.13690  0.53240  0.73150  Biso   1.000  N
  N25      1.0000 0.28240  0.11310  0.51850  Biso   1.000  N
  N26      1.0000 0.21760  0.88690  0.01850  Biso   1.000  N
  N27      1.0000 0.63690  0.53240  0.76850  Biso   1.000  N
  N28      1.0000 0.86310  0.46760  0.26850  Biso   1.000  N
  N29      1.0000 0.78240  0.61310  0.01850  Biso   1.000  N
  N30      1.0000 0.71760  0.38690  0.51850  Biso   1.000  N
  N31      1.0000 0.13690  0.03240  0.26850  Biso   1.000  N
  N32      1.0000 0.36310  0.96760  0.76850  Biso   1.000  N
  C1       1.0000 0.70030  0.83510  0.42080  Biso   1.000  C
  C2       1.0000 0.79970  0.16490  0.92080  Biso   1.000  C
  C3       1.0000 0.91490  0.95030  0.67080  Biso   1.000  C
  C4       1.0000 0.58510  0.04970  0.17080  Biso   1.000  C
  C5       1.0000 0.20030  0.33510  0.92080  Biso   1.000  C
  C6       1.0000 0.29970  0.66490  0.42080  Biso   1.000  C
  C7       1.0000 0.41490  0.45030  0.17080  Biso   1.000  C
  C8       1.0000 0.08510  0.54970  0.67080  Biso   1.000  C
  C9       1.0000 0.29970  0.16490  0.57920  Biso   1.000  C
  C10      1.0000 0.20030  0.83510  0.07920  Biso   1.000  C
  C11      1.0000 0.58510  0.54970  0.82920  Biso   1.000  C
  C12      1.0000 0.91490  0.45030  0.32920  Biso   1.000  C
  C13      1.0000 0.79970  0.66490  0.07920  Biso   1.000  C
  C14      1.0000 0.70030  0.33510  0.57920  Biso   1.000  C
  C15      1.0000 0.08510  0.04970  0.32920  Biso   1.000  C
  C16      1.0000 0.41490  0.95030  0.82920  Biso   1.000  C
  H1       1.0000 0.66170  0.81100  0.42770  Biso   1.000  H
  H2       1.0000 0.83830  0.18900  0.92770  Biso   1.000  H
  H3       1.0000 0.93900  0.91170  0.67770  Biso   1.000  H
  H4       1.0000 0.56100  0.08830  0.17770  Biso   1.000  H
  H5       1.0000 0.16170  0.31100  0.92770  Biso   1.000  H
  H6       1.0000 0.33830  0.68900  0.42770  Biso   1.000  H
  H7       1.0000 0.43900  0.41170  0.17770  Biso   1.000  H
  H8       1.0000 0.06100  0.58830  0.67770  Biso   1.000  H
  H9       1.0000 0.33830  0.18900  0.57230  Biso   1.000  H
  H10      1.0000 0.16170  0.81100  0.07230  Biso   1.000  H
  H11      1.0000 0.56100  0.58830  0.82230  Biso   1.000  H
  H12      1.0000 0.93900  0.41170  0.32230  Biso   1.000  H
  H13      1.0000 0.83830  0.68900  0.07230  Biso   1.000  H
  H14      1.0000 0.66170  0.31100  0.57230  Biso   1.000  H
  H15      1.0000 0.06100  0.08830  0.32230  Biso   1.000  H
  H16      1.0000 0.43900  0.91170  0.82230  Biso   1.000  H
  C17      1.0000 0.79450  0.87050  0.36550  Biso   1.000  C
  C18      1.0000 0.70550  0.12950  0.86550  Biso   1.000  C
  C19      1.0000 0.87950  0.04450  0.61550  Biso   1.000  C
  C20      1.0000 0.62050  0.95550  0.11550  Biso   1.000  C
  C21      1.0000 0.29450  0.37050  0.86550  Biso   1.000  C
  C22      1.0000 0.20550  0.62950  0.36550  Biso   1.000  C
  C23      1.0000 0.37950  0.54450  0.11550  Biso   1.000  C
  C24      1.0000 0.12050  0.45550  0.61550  Biso   1.000  C
  C25      1.0000 0.20550  0.12950  0.63450  Biso   1.000  C
  C26      1.0000 0.29450  0.87050  0.13450  Biso   1.000  C
  C27      1.0000 0.62050  0.45550  0.88450  Biso   1.000  C
  C28      1.0000 0.87950  0.54450  0.38450  Biso   1.000  C
  C29      1.0000 0.70550  0.62950  0.13450  Biso   1.000  C
  C30      1.0000 0.79450  0.37050  0.63450  Biso   1.000  C
  C31      1.0000 0.12050  0.95550  0.38450  Biso   1.000  C
  C32      1.0000 0.37950  0.04450  0.88450  Biso   1.000  C
  H17      1.0000 0.83310  0.87440  0.32670  Biso   1.000  H
  H18      1.0000 0.66690  0.12560  0.82670  Biso   1.000  H
  H19      1.0000 0.87560  0.08310  0.57670  Biso   1.000  H
  H20      1.0000 0.62440  0.91690  0.07670  Biso   1.000  H
  H21      1.0000 0.33310  0.37440  0.82670  Biso   1.000  H
  H22      1.0000 0.16690  0.62560  0.32670  Biso   1.000  H
  H23      1.0000 0.37560  0.58310  0.07670  Biso   1.000  H
  H24      1.0000 0.12440  0.41690  0.57670  Biso   1.000  H
  H25      1.0000 0.16690  0.12560  0.67330  Biso   1.000  H
  H26      1.0000 0.33310  0.87440  0.17330  Biso   1.000  H
  H27      1.0000 0.62440  0.41690  0.92330  Biso   1.000  H
  H28      1.0000 0.87560  0.58310  0.42330  Biso   1.000  H
  H29      1.0000 0.66690  0.62560  0.17330  Biso   1.000  H
  H30      1.0000 0.83310  0.37440  0.67330  Biso   1.000  H
  H31      1.0000 0.12440  0.91690  0.42330  Biso   1.000  H
  H32      1.0000 0.37560  0.08310  0.92330  Biso   1.000  H
  C33      1.0000 0.77710  0.91000  0.44600  Biso   1.000  C
  C34      1.0000 0.72290  0.09000  0.94600  Biso   1.000  C
  C35      1.0000 0.84000  0.02710  0.69600  Biso   1.000  C
  C36      1.0000 0.66000  0.97290  0.19600  Biso   1.000  C
  C37      1.0000 0.27710  0.41000  0.94600  Biso   1.000  C
  C38      1.0000 0.22290  0.59000  0.44600  Biso   1.000  C
  C39      1.0000 0.34000  0.52710  0.19600  Biso   1.000  C
  C40      1.0000 0.16000  0.47290  0.69600  Biso   1.000  C
  C41      1.0000 0.22290  0.09000  0.55400  Biso   1.000  C
  C42      1.0000 0.27710  0.91000  0.05400  Biso   1.000  C
  C43      1.0000 0.66000  0.47290  0.80400  Biso   1.000  C
  C44      1.0000 0.84000  0.52710  0.30400  Biso   1.000  C
  C45      1.0000 0.72290  0.59000  0.05400  Biso   1.000  C
  C46      1.0000 0.77710  0.41000  0.55400  Biso   1.000  C
  C47      1.0000 0.16000  0.97290  0.30400  Biso   1.000  C
  C48      1.0000 0.34000  0.02710  0.80400  Biso   1.000  C
  H33      1.0000 0.80050  0.94560  0.47230  Biso   1.000  H
  H34      1.0000 0.69950  0.05440  0.97230  Biso   1.000  H
  H35      1.0000 0.80440  0.05050  0.72230  Biso   1.000  H
  H36      1.0000 0.69560  0.94950  0.22230  Biso   1.000  H
  H37      1.0000 0.30050  0.44560  0.97230  Biso   1.000  H
  H38      1.0000 0.19950  0.55440  0.47230  Biso   1.000  H
  H39      1.0000 0.30440  0.55050  0.22230  Biso   1.000  H
  H40      1.0000 0.19560  0.44950  0.72230  Biso   1.000  H
  H41      1.0000 0.19950  0.05440  0.52770  Biso   1.000  H
  H42      1.0000 0.30050  0.94560  0.02770  Biso   1.000  H
  H43      1.0000 0.69560  0.44950  0.77770  Biso   1.000  H
  H44      1.0000 0.80440  0.55050  0.27770  Biso   1.000  H
  H45      1.0000 0.69950  0.55440  0.02770  Biso   1.000  H
  H46      1.0000 0.80050  0.44560  0.52770  Biso   1.000  H
  H47      1.0000 0.19560  0.94950  0.27770  Biso   1.000  H
  H48      1.0000 0.30440  0.05050  0.77770  Biso   1.000  H
  C49      1.0000 0.67870  0.91290  0.56650  Biso   1.000  C
  C50      1.0000 0.82130  0.08710  0.06650  Biso   1.000  C
  C51      1.0000 0.83710  0.92870  0.81650  Biso   1.000  C
  C52      1.0000 0.66290  0.07130  0.31650  Biso   1.000  C
  C53      1.0000 0.17870  0.41290  0.06650  Biso   1.000  C
  C54      1.0000 0.32130  0.58710  0.56650  Biso   1.000  C
  C55      1.0000 0.33710  0.42870  0.31650  Biso   1.000  C
  C56      1.0000 0.16290  0.57130  0.81650  Biso   1.000  C
  C57      1.0000 0.32130  0.08710  0.43350  Biso   1.000  C
  C58      1.0000 0.17870  0.91290  0.93350  Biso   1.000  C
  C59      1.0000 0.66290  0.57130  0.68350  Biso   1.000  C
  C60      1.0000 0.83710  0.42870  0.18350  Biso   1.000  C
  C61      1.0000 0.82130  0.58710  0.93350  Biso   1.000  C
  C62      1.0000 0.67870  0.41290  0.43350  Biso   1.000  C
  C63      1.0000 0.16290  0.07130  0.18350  Biso   1.000  C
  C64      1.0000 0.33710  0.92870  0.68350  Biso   1.000  C
  C65      1.0000 0.67670  0.97980  0.57910  Biso   1.000  C
  C66      1.0000 0.82330  0.02020  0.07910  Biso   1.000  C
  C67      1.0000 0.77020  0.92670  0.82910  Biso   1.000  C
  C68      1.0000 0.72980  0.07330  0.32910  Biso   1.000  C
  C69      1.0000 0.17670  0.47980  0.07910  Biso   1.000  C
  C70      1.0000 0.32330  0.52020  0.57910  Biso   1.000  C
  C71      1.0000 0.27020  0.42670  0.32910  Biso   1.000  C
  C72      1.0000 0.22980  0.57330  0.82910  Biso   1.000  C
  C73      1.0000 0.32330  0.02020  0.42090  Biso   1.000  C
  C74      1.0000 0.17670  0.97980  0.92090  Biso   1.000  C
  C75      1.0000 0.72980  0.57330  0.67090  Biso   1.000  C
  C76      1.0000 0.77020  0.42670  0.17090  Biso   1.000  C
  C77      1.0000 0.82330  0.52020  0.92090  Biso   1.000  C
  C78      1.0000 0.67670  0.47980  0.42090  Biso   1.000  C
  C79      1.0000 0.22980  0.07330  0.17090  Biso   1.000  C
  C80      1.0000 0.27020  0.92670  0.67090  Biso   1.000  C
  H49      1.0000 0.69860  0.00730  0.53240  Biso   1.000  H
  H50      1.0000 0.80140  0.99270  0.03240  Biso   1.000  H
  H51      1.0000 0.74270  0.94860  0.78240  Biso   1.000  H
  H52      1.0000 0.75730  0.05140  0.28240  Biso   1.000  H
  H53      1.0000 0.19860  0.50730  0.03240  Biso   1.000  H
  H54      1.0000 0.30140  0.49270  0.53240  Biso   1.000  H
  H55      1.0000 0.24270  0.44860  0.28240  Biso   1.000  H
  H56      1.0000 0.25730  0.55140  0.78240  Biso   1.000  H
  H57      1.0000 0.30140  0.99270  0.46760  Biso   1.000  H
  H58      1.0000 0.19860  0.00730  0.96760  Biso   1.000  H
  H59      1.0000 0.75730  0.55140  0.71760  Biso   1.000  H
  H60      1.0000 0.74270  0.44860  0.21760  Biso   1.000  H
  H61      1.0000 0.80140  0.49270  0.96760  Biso   1.000  H
  H62      1.0000 0.69860  0.50730  0.46760  Biso   1.000  H
  H63      1.0000 0.25730  0.05140  0.21760  Biso   1.000  H
  H64      1.0000 0.24270  0.94860  0.71760  Biso   1.000  H
  C81      1.0000 0.64100  0.00560  0.66350  Biso   1.000  C
  C82      1.0000 0.85900  0.99440  0.16350  Biso   1.000  C
  C83      1.0000 0.74440  0.89100  0.91350  Biso   1.000  C
  C84      1.0000 0.75560  0.10900  0.41350  Biso   1.000  C
  C85      1.0000 0.14100  0.50560  0.16350  Biso   1.000  C
  C86      1.0000 0.35900  0.49440  0.66350  Biso   1.000  C
  C87      1.0000 0.24440  0.39100  0.41350  Biso   1.000  C
  C88      1.0000 0.25560  0.60900  0.91350  Biso   1.000  C
  C89      1.0000 0.35900  0.99440  0.33650  Biso   1.000  C
  C90      1.0000 0.14100  0.00560  0.83650  Biso   1.000  C
  C91      1.0000 0.75560  0.60900  0.58650  Biso   1.000  C
  C92      1.0000 0.74440  0.39100  0.08650  Biso   1.000  C
  C93      1.0000 0.85900  0.49440  0.83650  Biso   1.000  C
  C94      1.0000 0.64100  0.50560  0.33650  Biso   1.000  C
  C95      1.0000 0.25560  0.10900  0.08650  Biso   1.000  C
  C96      1.0000 0.24440  0.89100  0.58650  Biso   1.000  C
  H65      1.0000 0.63900  0.05080  0.67280  Biso   1.000  H
  H66      1.0000 0.86100  0.94920  0.17280  Biso   1.000  H
  H67      1.0000 0.69920  0.88900  0.92280  Biso   1.000  H
  H68      1.0000 0.80080  0.11100  0.42280  Biso   1.000  H
  H69      1.0000 0.13900  0.55080  0.17280  Biso   1.000  H
  H70      1.0000 0.36100  0.44920  0.67280  Biso   1.000  H
  H71      1.0000 0.19920  0.38900  0.42280  Biso   1.000  H
  H72      1.0000 0.30080  0.61100  0.92280  Biso   1.000  H
  H73      1.0000 0.36100  0.94920  0.32720  Biso   1.000  H
  H74      1.0000 0.13900  0.05080  0.82720  Biso   1.000  H
  H75      1.0000 0.80080  0.61100  0.57720  Biso   1.000  H
  H76      1.0000 0.69920  0.38900  0.07720  Biso   1.000  H
  H77      1.0000 0.86100  0.44920  0.82720  Biso   1.000  H
  H78      1.0000 0.63900  0.55080  0.32720  Biso   1.000  H
  H79      1.0000 0.30080  0.11100  0.07720  Biso   1.000  H
  H80      1.0000 0.19920  0.88900  0.57720  Biso   1.000  H
  C97      1.0000 0.60920  0.96560  0.73230  Biso   1.000  C
  C98      1.0000 0.89080  0.03440  0.23230  Biso   1.000  C
  C99      1.0000 0.78440  0.85920  0.98230  Biso   1.000  C
  C100     1.0000 0.71560  0.14080  0.48230  Biso   1.000  C
  C101     1.0000 0.10920  0.46560  0.23230  Biso   1.000  C
  C102     1.0000 0.39080  0.53440  0.73230  Biso   1.000  C
  C103     1.0000 0.28440  0.35920  0.48230  Biso   1.000  C
  C104     1.0000 0.21560  0.64080  0.98230  Biso   1.000  C
  C105     1.0000 0.39080  0.03440  0.26770  Biso   1.000  C
  C106     1.0000 0.10920  0.96560  0.76770  Biso   1.000  C
  C107     1.0000 0.71560  0.64080  0.51770  Biso   1.000  C
  C108     1.0000 0.78440  0.35920  0.01770  Biso   1.000  C
  C109     1.0000 0.89080  0.53440  0.76770  Biso   1.000  C
  C110     1.0000 0.60920  0.46560  0.26770  Biso   1.000  C
  C111     1.0000 0.21560  0.14080  0.01770  Biso   1.000  C
  C112     1.0000 0.28440  0.85920  0.51770  Biso   1.000  C
  C113     1.0000 0.61270  0.89770  0.71730  Biso   1.000  C
  C114     1.0000 0.88730  0.10230  0.21730  Biso   1.000  C
  C115     1.0000 0.85230  0.86270  0.96730  Biso   1.000  C
  C116     1.0000 0.64770  0.13730  0.46730  Biso   1.000  C
  C117     1.0000 0.11270  0.39770  0.21730  Biso   1.000  C
  C118     1.0000 0.38730  0.60230  0.71730  Biso   1.000  C
  C119     1.0000 0.35230  0.36270  0.46730  Biso   1.000  C
  C120     1.0000 0.14770  0.63730  0.96730  Biso   1.000  C
  C121     1.0000 0.38730  0.10230  0.28270  Biso   1.000  C
  C122     1.0000 0.11270  0.89770  0.78270  Biso   1.000  C
  C123     1.0000 0.64770  0.63730  0.53270  Biso   1.000  C
  C124     1.0000 0.85230  0.36270  0.03270  Biso   1.000  C
  C125     1.0000 0.88730  0.60230  0.78270  Biso   1.000  C
  C126     1.0000 0.61270  0.39770  0.28270  Biso   1.000  C
  C127     1.0000 0.14770  0.13730  0.03270  Biso   1.000  C
  C128     1.0000 0.35230  0.86270  0.53270  Biso   1.000  C
  H81      1.0000 0.59150  0.86980  0.76420  Biso   1.000  H
  H82      1.0000 0.90850  0.13020  0.26420  Biso   1.000  H
  H83      1.0000 0.88020  0.84150  0.01420  Biso   1.000  H
  H84      1.0000 0.61980  0.15850  0.51420  Biso   1.000  H
  H85      1.0000 0.09150  0.36980  0.26420  Biso   1.000  H
  H86      1.0000 0.40850  0.63020  0.76420  Biso   1.000  H
  H87      1.0000 0.38020  0.34150  0.51420  Biso   1.000  H
  H88      1.0000 0.11980  0.65850  0.01420  Biso   1.000  H
  H89      1.0000 0.40850  0.13020  0.23580  Biso   1.000  H
  H90      1.0000 0.09150  0.86980  0.73580  Biso   1.000  H
  H91      1.0000 0.61980  0.65850  0.48580  Biso   1.000  H
  H92      1.0000 0.88020  0.34150  0.98580  Biso   1.000  H
  H93      1.0000 0.90850  0.63020  0.73580  Biso   1.000  H
  H94      1.0000 0.59150  0.36980  0.23580  Biso   1.000  H
  H95      1.0000 0.11980  0.15850  0.98580  Biso   1.000  H
  H96      1.0000 0.38020  0.84150  0.48580  Biso   1.000  H
  C129     1.0000 0.64730  0.87180  0.63400  Biso   1.000  C
  C130     1.0000 0.85270  0.12820  0.13400  Biso   1.000  C
  C131     1.0000 0.87820  0.89730  0.88400  Biso   1.000  C
  C132     1.0000 0.62180  0.10270  0.38400  Biso   1.000  C
  C133     1.0000 0.14730  0.37180  0.13400  Biso   1.000  C
  C134     1.0000 0.35270  0.62820  0.63400  Biso   1.000  C
  C135     1.0000 0.37820  0.39730  0.38400  Biso   1.000  C
  C136     1.0000 0.12180  0.60270  0.88400  Biso   1.000  C
  C137     1.0000 0.35270  0.12820  0.36600  Biso   1.000  C
  C138     1.0000 0.14730  0.87180  0.86600  Biso   1.000  C
  C139     1.0000 0.62180  0.60270  0.61600  Biso   1.000  C
  C140     1.0000 0.87820  0.39730  0.11600  Biso   1.000  C
  C141     1.0000 0.85270  0.62820  0.86600  Biso   1.000  C
  C142     1.0000 0.64730  0.37180  0.36600  Biso   1.000  C
  C143     1.0000 0.12180  0.10270  0.11600  Biso   1.000  C
  C144     1.0000 0.37820  0.89730  0.61600  Biso   1.000  C
  H97      1.0000 0.64920  0.82660  0.62400  Biso   1.000  H
  H98      1.0000 0.85080  0.17340  0.12400  Biso   1.000  H
  H99      1.0000 0.92340  0.89920  0.87400  Biso   1.000  H
  H100     1.0000 0.57660  0.10080  0.37400  Biso   1.000  H
  H101     1.0000 0.14920  0.32660  0.12400  Biso   1.000  H
  H102     1.0000 0.35080  0.67340  0.62400  Biso   1.000  H
  H103     1.0000 0.42340  0.39920  0.37400  Biso   1.000  H
  H104     1.0000 0.07660  0.60080  0.87400  Biso   1.000  H
  H105     1.0000 0.35080  0.17340  0.37600  Biso   1.000  H
  H106     1.0000 0.14920  0.82660  0.87600  Biso   1.000  H
  H107     1.0000 0.57660  0.60080  0.62600  Biso   1.000  H
  H108     1.0000 0.92340  0.39920  0.12600  Biso   1.000  H
  H109     1.0000 0.85080  0.67340  0.87600  Biso   1.000  H
  H110     1.0000 0.64920  0.32660  0.37600  Biso   1.000  H
  H111     1.0000 0.07660  0.10080  0.12600  Biso   1.000  H
  H112     1.0000 0.42340  0.89920  0.62600  Biso   1.000  H
  C145     1.0000 0.57310  0.99290  0.82700  Biso   1.000  C
  C146     1.0000 0.92690  0.00710  0.32700  Biso   1.000  C
  C147     1.0000 0.75710  0.82310  0.07700  Biso   1.000  C
  C148     1.0000 0.74290  0.17690  0.57700  Biso   1.000  C
  C149     1.0000 0.07310  0.49290  0.32700  Biso   1.000  C
  C150     1.0000 0.42690  0.50710  0.82700  Biso   1.000  C
  C151     1.0000 0.25710  0.32310  0.57700  Biso   1.000  C
  C152     1.0000 0.24290  0.67690  0.07700  Biso   1.000  C
  C153     1.0000 0.42690  0.00710  0.17300  Biso   1.000  C
  C154     1.0000 0.07310  0.99290  0.67300  Biso   1.000  C
  C155     1.0000 0.74290  0.67690  0.42300  Biso   1.000  C
  C156     1.0000 0.75710  0.32310  0.92300  Biso   1.000  C
  C157     1.0000 0.92690  0.50710  0.67300  Biso   1.000  C
  C158     1.0000 0.57310  0.49290  0.17300  Biso   1.000  C
  C159     1.0000 0.24290  0.17690  0.92300  Biso   1.000  C
  C160     1.0000 0.25710  0.82310  0.42300  Biso   1.000  C
  O33      1.0000 0.90530  0.22390  0.70790  Biso   1.000  O
  O34      1.0000 0.59470  0.77610  0.20790  Biso   1.000  O
  O35      1.0000 0.52610  0.15530  0.95790  Biso   1.000  O
  O36      1.0000 0.97390  0.84470  0.45790  Biso   1.000  O
  O37      1.0000 0.40530  0.72390  0.20790  Biso   1.000  O
  O38      1.0000 0.09470  0.27610  0.70790  Biso   1.000  O
  O39      1.0000 0.02610  0.65530  0.45790  Biso   1.000  O
  O40      1.0000 0.47390  0.34470  0.95790  Biso   1.000  O
  O41      1.0000 0.09470  0.77610  0.29210  Biso   1.000  O
  O42      1.0000 0.40530  0.22390  0.79210  Biso   1.000  O
  O43      1.0000 0.97390  0.34470  0.54210  Biso   1.000  O
  O44      1.0000 0.52610  0.65530  0.04210  Biso   1.000  O
  O45      1.0000 0.59470  0.27610  0.79210  Biso   1.000  O
  O46      1.0000 0.90530  0.72390  0.29210  Biso   1.000  O
  O47      1.0000 0.47390  0.84470  0.04210  Biso   1.000  O
  O48      1.0000 0.02610  0.15530  0.54210  Biso   1.000  O
  H113     1.0000 0.87000  0.22160  0.67240  Biso   1.000  H
  H114     1.0000 0.63000  0.77840  0.17240  Biso   1.000  H
  H115     1.0000 0.52840  0.12000  0.92240  Biso   1.000  H
  H116     1.0000 0.97160  0.88000  0.42240  Biso   1.000  H
  H117     1.0000 0.37000  0.72160  0.17240  Biso   1.000  H
  H118     1.0000 0.13000  0.27840  0.67240  Biso   1.000  H
  H119     1.0000 0.02840  0.62000  0.42240  Biso   1.000  H
  H120     1.0000 0.47160  0.38000  0.92240  Biso   1.000  H
  H121     1.0000 0.13000  0.77840  0.32760  Biso   1.000  H
  H122     1.0000 0.37000  0.22160  0.82760  Biso   1.000  H
  H123     1.0000 0.97160  0.38000  0.57760  Biso   1.000  H
  H124     1.0000 0.52840  0.62000  0.07760  Biso   1.000  H
  H125     1.0000 0.63000  0.27840  0.82760  Biso   1.000  H
  H126     1.0000 0.87000  0.72160  0.32760  Biso   1.000  H
  H127     1.0000 0.47160  0.88000  0.07760  Biso   1.000  H
  H128     1.0000 0.02840  0.12000  0.57760  Biso   1.000  H
  H129     1.0000 0.90060  0.25890  0.74380  Biso   1.000  H
  H130     1.0000 0.59940  0.74110  0.24380  Biso   1.000  H
  H131     1.0000 0.49110  0.15060  0.99380  Biso   1.000  H
  H132     1.0000 0.00890  0.84940  0.49380  Biso   1.000  H
  H133     1.0000 0.40060  0.75890  0.24380  Biso   1.000  H
  H134     1.0000 0.09940  0.24110  0.74380  Biso   1.000  H
  H135     1.0000 0.99110  0.65060  0.49380  Biso   1.000  H
  H136     1.0000 0.50890  0.34940  0.99380  Biso   1.000  H
  H137     1.0000 0.09940  0.74110  0.25620  Biso   1.000  H
  H138     1.0000 0.40060  0.25890  0.75620  Biso   1.000  H
  H139     1.0000 0.00890  0.34940  0.50620  Biso   1.000  H
  H140     1.0000 0.49110  0.65060  0.00620  Biso   1.000  H
  H141     1.0000 0.59940  0.24110  0.75620  Biso   1.000  H
  H142     1.0000 0.90060  0.75890  0.25620  Biso   1.000  H
  H143     1.0000 0.50890  0.84940  0.00620  Biso   1.000  H
  H144     1.0000 0.99110  0.15060  0.50620  Biso   1.000  H
  H145     1.0000 0.90050  0.25470  0.48070  Biso   1.000  H
  H146     1.0000 0.59950  0.74530  0.98070  Biso   1.000  H
  H147     1.0000 0.49530  0.15050  0.73070  Biso   1.000  H
  H148     1.0000 0.00470  0.84950  0.23070  Biso   1.000  H
  H149     1.0000 0.40050  0.75470  0.98070  Biso   1.000  H
  H150     1.0000 0.09950  0.24530  0.48070  Biso   1.000  H
  H151     1.0000 0.99530  0.65050  0.23070  Biso   1.000  H
  H152     1.0000 0.50470  0.34950  0.73070  Biso   1.000  H
  H153     1.0000 0.09950  0.74530  0.51930  Biso   1.000  H
  H154     1.0000 0.40050  0.25470  0.01930  Biso   1.000  H
  H155     1.0000 0.00470  0.34950  0.76930  Biso   1.000  H
  H156     1.0000 0.49530  0.65050  0.26930  Biso   1.000  H
  H157     1.0000 0.59950  0.24530  0.01930  Biso   1.000  H
  H158     1.0000 0.90050  0.75470  0.51930  Biso   1.000  H
  H159     1.0000 0.50470  0.84950  0.26930  Biso   1.000  H
  H160     1.0000 0.99530  0.15050  0.76930  Biso   1.000  H
  H161     1.0000 0.92150  0.20020  0.51800  Biso   1.000  H
  H162     1.0000 0.57850  0.79980  0.01800  Biso   1.000  H
  H163     1.0000 0.54980  0.17150  0.76800  Biso   1.000  H
  H164     1.0000 0.95020  0.82850  0.26800  Biso   1.000  H
  H165     1.0000 0.42150  0.70020  0.01800  Biso   1.000  H
  H166     1.0000 0.07850  0.29980  0.51800  Biso   1.000  H
  H167     1.0000 0.04980  0.67150  0.26800  Biso   1.000  H
  H168     1.0000 0.45020  0.32850  0.76800  Biso   1.000  H
  H169     1.0000 0.07850  0.79980  0.48200  Biso   1.000  H
  H170     1.0000 0.42150  0.20020  0.98200  Biso   1.000  H
  H171     1.0000 0.95020  0.32850  0.73200  Biso   1.000  H
  H172     1.0000 0.54980  0.67150  0.23200  Biso   1.000  H
  H173     1.0000 0.57850  0.29980  0.98200  Biso   1.000  H
  H174     1.0000 0.92150  0.70020  0.48200  Biso   1.000  H
  H175     1.0000 0.45020  0.82850  0.23200  Biso   1.000  H
  H176     1.0000 0.04980  0.17150  0.73200  Biso   1.000  H
  O49      1.0000 0.91380  0.21760  0.45800  Biso   1.000  O
  O50      1.0000 0.58620  0.78240  0.95800  Biso   1.000  O
  O51      1.0000 0.53240  0.16380  0.70800  Biso   1.000  O
  O52      1.0000 0.96760  0.83620  0.20800  Biso   1.000  O
  O53      1.0000 0.41380  0.71760  0.95800  Biso   1.000  O
  O54      1.0000 0.08620  0.28240  0.45800  Biso   1.000  O
  O55      1.0000 0.03240  0.66380  0.20800  Biso   1.000  O
  O56      1.0000 0.46760  0.33620  0.70800  Biso   1.000  O
  O57      1.0000 0.08620  0.78240  0.54200  Biso   1.000  O
  O58      1.0000 0.41380  0.21760  0.04200  Biso   1.000  O
  O59      1.0000 0.96760  0.33620  0.79200  Biso   1.000  O
  O60      1.0000 0.53240  0.66380  0.29200  Biso   1.000  O
  O61      1.0000 0.58620  0.28240  0.04200  Biso   1.000  O
  O62      1.0000 0.91380  0.71760  0.54200  Biso   1.000  O
  O63      1.0000 0.46760  0.83620  0.29200  Biso   1.000  O
  O64      1.0000 0.03240  0.16380  0.79200  Biso   1.000  O
