data_image0
_cell_length_a       20.643
_cell_length_b       20.643
_cell_length_c       12.52
_cell_angle_alpha    90
_cell_angle_beta     90
_cell_angle_gamma    90

_symmetry_space_group_name_H-M    "P 1"
_symmetry_int_tables_number       1

loop_
  _symmetry_equiv_pos_as_xyz
  'x, y, z'

loop_
  _atom_site_label
  _atom_site_occupancy
  _atom_site_fract_x
  _atom_site_fract_y
  _atom_site_fract_z
  _atom_site_thermal_displace_type
  _atom_site_B_iso_or_equiv
  _atom_site_type_symbol
  Cu1      1.0000 0.00000  0.00000  0.00000  Biso   1.000  Cu
  Cu2      1.0000 0.75000  0.25000  0.25000  Biso   1.000  Cu
  Cu3      1.0000 0.50000  0.00000  0.50000  Biso   1.000  Cu
  Cu4      1.0000 0.75000  0.75000  0.75000  Biso   1.000  Cu
  Cu5      1.0000 0.50000  0.50000  0.50000  Biso   1.000  Cu
  Cu6      1.0000 0.25000  0.75000  0.75000  Biso   1.000  Cu
  Cu7      1.0000 0.00000  0.50000  0.00000  Biso   1.000  Cu
  Cu8      1.0000 0.25000  0.25000  0.25000  Biso   1.000  Cu
  O1       1.0000 0.07080  0.95180  0.84380  Biso   1.000  O
  O2       1.0000 0.79820  0.32080  0.09380  Biso   1.000  O
  O3       1.0000 0.42920  0.04820  0.34380  Biso   1.000  O
  O4       1.0000 0.70180  0.67920  0.59380  Biso   1.000  O
  O5       1.0000 0.57080  0.45180  0.34380  Biso   1.000  O
  O6       1.0000 0.29820  0.82080  0.59380  Biso   1.000  O
  O7       1.0000 0.92920  0.54820  0.84380  Biso   1.000  O
  O8       1.0000 0.20180  0.17920  0.09380  Biso   1.000  O
  O9       1.0000 0.92920  0.04820  0.15620  Biso   1.000  O
  O10      1.0000 0.70180  0.17920  0.40620  Biso   1.000  O
  O11      1.0000 0.57080  0.95180  0.65620  Biso   1.000  O
  O12      1.0000 0.79820  0.82080  0.90620  Biso   1.000  O
  O13      1.0000 0.42920  0.54820  0.65620  Biso   1.000  O
  O14      1.0000 0.20180  0.67920  0.90620  Biso   1.000  O
  O15      1.0000 0.07080  0.45180  0.15620  Biso   1.000  O
  O16      1.0000 0.29820  0.32080  0.40620  Biso   1.000  O
  O17      1.0000 0.05110  0.05600  0.90150  Biso   1.000  O
  O18      1.0000 0.69400  0.30110  0.15150  Biso   1.000  O
  O19      1.0000 0.44890  0.94400  0.40150  Biso   1.000  O
  O20      1.0000 0.80600  0.69890  0.65150  Biso   1.000  O
  O21      1.0000 0.55110  0.55600  0.40150  Biso   1.000  O
  O22      1.0000 0.19400  0.80110  0.65150  Biso   1.000  O
  O23      1.0000 0.94890  0.44400  0.90150  Biso   1.000  O
  O24      1.0000 0.30600  0.19890  0.15150  Biso   1.000  O
  O25      1.0000 0.94890  0.94400  0.09850  Biso   1.000  O
  O26      1.0000 0.80600  0.19890  0.34850  Biso   1.000  O
  O27      1.0000 0.55110  0.05600  0.59850  Biso   1.000  O
  O28      1.0000 0.69400  0.80110  0.84850  Biso   1.000  O
  O29      1.0000 0.44890  0.44400  0.59850  Biso   1.000  O
  O30      1.0000 0.30600  0.69890  0.84850  Biso   1.000  O
  O31      1.0000 0.05110  0.55600  0.09850  Biso   1.000  O
  O32      1.0000 0.19400  0.30110  0.34850  Biso   1.000  O
  N1       1.0000 0.24760  0.17840  0.35100  Biso   1.000  N
  N2       1.0000 0.57160  0.49760  0.60100  Biso   1.000  N
  N3       1.0000 0.25240  0.82160  0.85100  Biso   1.000  N
  N4       1.0000 0.92840  0.50240  0.10100  Biso   1.000  N
  N5       1.0000 0.74760  0.67840  0.85100  Biso   1.000  N
  N6       1.0000 0.07160  0.99760  0.10100  Biso   1.000  N
  N7       1.0000 0.75240  0.32160  0.35100  Biso   1.000  N
  N8       1.0000 0.42840  0.00240  0.60100  Biso   1.000  N
  N9       1.0000 0.75240  0.82160  0.64900  Biso   1.000  N
  N10      1.0000 0.92840  0.00240  0.89900  Biso   1.000  N
  N11      1.0000 0.74760  0.17840  0.14900  Biso   1.000  N
  N12      1.0000 0.57160  0.99760  0.39900  Biso   1.000  N
  N13      1.0000 0.25240  0.32160  0.14900  Biso   1.000  N
  N14      1.0000 0.42840  0.50240  0.39900  Biso   1.000  N
  N15      1.0000 0.24760  0.67840  0.64900  Biso   1.000  N
  N16      1.0000 0.07160  0.49760  0.89900  Biso   1.000  N
  N17      1.0000 0.22170  0.11580  0.48700  Biso   1.000  N
  N18      1.0000 0.63420  0.47170  0.73700  Biso   1.000  N
  N19      1.0000 0.27830  0.88420  0.98700  Biso   1.000  N
  N20      1.0000 0.86580  0.52830  0.23700  Biso   1.000  N
  N21      1.0000 0.72170  0.61580  0.98700  Biso   1.000  N
  N22      1.0000 0.13420  0.97170  0.23700  Biso   1.000  N
  N23      1.0000 0.77830  0.38420  0.48700  Biso   1.000  N
  N24      1.0000 0.36580  0.02830  0.73700  Biso   1.000  N
  N25      1.0000 0.77830  0.88420  0.51300  Biso   1.000  N
  N26      1.0000 0.86580  0.02830  0.76300  Biso   1.000  N
  N27      1.0000 0.72170  0.11580  0.01300  Biso   1.000  N
  N28      1.0000 0.63420  0.97170  0.26300  Biso   1.000  N
  N29      1.0000 0.27830  0.38420  0.01300  Biso   1.000  N
  N30      1.0000 0.36580  0.52830  0.26300  Biso   1.000  N
  N31      1.0000 0.22170  0.61580  0.51300  Biso   1.000  N
  N32      1.0000 0.13420  0.47170  0.76300  Biso   1.000  N
  C1       1.0000 0.07630  0.01280  0.83720  Biso   1.000  C
  C2       1.0000 0.73720  0.32630  0.08720  Biso   1.000  C
  C3       1.0000 0.42370  0.98720  0.33720  Biso   1.000  C
  C4       1.0000 0.76280  0.67370  0.58720  Biso   1.000  C
  C5       1.0000 0.57630  0.51280  0.33720  Biso   1.000  C
  C6       1.0000 0.23720  0.82630  0.58720  Biso   1.000  C
  C7       1.0000 0.92370  0.48720  0.83720  Biso   1.000  C
  C8       1.0000 0.26280  0.17370  0.08720  Biso   1.000  C
  C9       1.0000 0.92370  0.98720  0.16280  Biso   1.000  C
  C10      1.0000 0.76280  0.17370  0.41280  Biso   1.000  C
  C11      1.0000 0.57630  0.01280  0.66280  Biso   1.000  C
  C12      1.0000 0.73720  0.82630  0.91280  Biso   1.000  C
  C13      1.0000 0.42370  0.48720  0.66280  Biso   1.000  C
  C14      1.0000 0.26280  0.67370  0.91280  Biso   1.000  C
  C15      1.0000 0.07630  0.51280  0.16280  Biso   1.000  C
  C16      1.0000 0.23720  0.32630  0.41280  Biso   1.000  C
  C17      1.0000 0.11290  0.04120  0.74220  Biso   1.000  C
  C18      1.0000 0.70880  0.36290  0.99220  Biso   1.000  C
  C19      1.0000 0.38710  0.95880  0.24220  Biso   1.000  C
  C20      1.0000 0.79120  0.63710  0.49220  Biso   1.000  C
  C21      1.0000 0.61290  0.54120  0.24220  Biso   1.000  C
  C22      1.0000 0.20880  0.86290  0.49220  Biso   1.000  C
  C23      1.0000 0.88710  0.45880  0.74220  Biso   1.000  C
  C24      1.0000 0.29120  0.13710  0.99220  Biso   1.000  C
  C25      1.0000 0.88710  0.95880  0.25780  Biso   1.000  C
  C26      1.0000 0.79120  0.13710  0.50780  Biso   1.000  C
  C27      1.0000 0.61290  0.04120  0.75780  Biso   1.000  C
  C28      1.0000 0.70880  0.86290  0.00780  Biso   1.000  C
  C29      1.0000 0.38710  0.45880  0.75780  Biso   1.000  C
  C30      1.0000 0.29120  0.63710  0.00780  Biso   1.000  C
  C31      1.0000 0.11290  0.54120  0.25780  Biso   1.000  C
  C32      1.0000 0.20880  0.36290  0.50780  Biso   1.000  C
  C33      1.0000 0.14330  0.00090  0.67020  Biso   1.000  C
  C34      1.0000 0.74910  0.39330  0.92020  Biso   1.000  C
  C35      1.0000 0.35670  0.99910  0.17020  Biso   1.000  C
  C36      1.0000 0.75090  0.60670  0.42020  Biso   1.000  C
  C37      1.0000 0.64330  0.50090  0.17020  Biso   1.000  C
  C38      1.0000 0.24910  0.89330  0.42020  Biso   1.000  C
  C39      1.0000 0.85670  0.49910  0.67020  Biso   1.000  C
  C40      1.0000 0.25090  0.10670  0.92020  Biso   1.000  C
  C41      1.0000 0.85670  0.99910  0.32980  Biso   1.000  C
  C42      1.0000 0.75090  0.10670  0.57980  Biso   1.000  C
  C43      1.0000 0.64330  0.00090  0.82980  Biso   1.000  C
  C44      1.0000 0.74910  0.89330  0.07980  Biso   1.000  C
  C45      1.0000 0.35670  0.49910  0.82980  Biso   1.000  C
  C46      1.0000 0.25090  0.60670  0.07980  Biso   1.000  C
  C47      1.0000 0.14330  0.50090  0.32980  Biso   1.000  C
  C48      1.0000 0.24910  0.39330  0.57980  Biso   1.000  C
  H1       1.0000 0.14020  0.95630  0.67880  Biso   1.000  H
  H2       1.0000 0.79370  0.39020  0.92880  Biso   1.000  H
  H3       1.0000 0.35980  0.04370  0.17880  Biso   1.000  H
  H4       1.0000 0.70630  0.60980  0.42880  Biso   1.000  H
  H5       1.0000 0.64020  0.45630  0.17880  Biso   1.000  H
  H6       1.0000 0.29370  0.89020  0.42880  Biso   1.000  H
  H7       1.0000 0.85980  0.54370  0.67880  Biso   1.000  H
  H8       1.0000 0.20630  0.10980  0.92880  Biso   1.000  H
  H9       1.0000 0.85980  0.04370  0.32120  Biso   1.000  H
  H10      1.0000 0.70630  0.10980  0.57120  Biso   1.000  H
  H11      1.0000 0.64020  0.95630  0.82120  Biso   1.000  H
  H12      1.0000 0.79370  0.89020  0.07120  Biso   1.000  H
  H13      1.0000 0.35980  0.54370  0.82120  Biso   1.000  H
  H14      1.0000 0.20630  0.60980  0.07120  Biso   1.000  H
  H15      1.0000 0.14020  0.45630  0.32120  Biso   1.000  H
  H16      1.0000 0.29370  0.39020  0.57120  Biso   1.000  H
  C49      1.0000 0.17750  0.02540  0.58680  Biso   1.000  C
  C50      1.0000 0.72460  0.42750  0.83680  Biso   1.000  C
  C51      1.0000 0.32250  0.97460  0.08680  Biso   1.000  C
  C52      1.0000 0.77540  0.57250  0.33680  Biso   1.000  C
  C53      1.0000 0.67750  0.52540  0.08680  Biso   1.000  C
  C54      1.0000 0.22460  0.92750  0.33680  Biso   1.000  C
  C55      1.0000 0.82250  0.47460  0.58680  Biso   1.000  C
  C56      1.0000 0.27540  0.07250  0.83680  Biso   1.000  C
  C57      1.0000 0.82250  0.97460  0.41320  Biso   1.000  C
  C58      1.0000 0.77540  0.07250  0.66320  Biso   1.000  C
  C59      1.0000 0.67750  0.02540  0.91320  Biso   1.000  C
  C60      1.0000 0.72460  0.92750  0.16320  Biso   1.000  C
  C61      1.0000 0.32250  0.47460  0.91320  Biso   1.000  C
  C62      1.0000 0.27540  0.57250  0.16320  Biso   1.000  C
  C63      1.0000 0.17750  0.52540  0.41320  Biso   1.000  C
  C64      1.0000 0.22460  0.42750  0.66320  Biso   1.000  C
  H17      1.0000 0.19850  0.99730  0.54020  Biso   1.000  H
  H18      1.0000 0.75270  0.44850  0.79020  Biso   1.000  H
  H19      1.0000 0.30150  0.00270  0.04020  Biso   1.000  H
  H20      1.0000 0.74730  0.55150  0.29020  Biso   1.000  H
  H21      1.0000 0.69850  0.49730  0.04020  Biso   1.000  H
  H22      1.0000 0.25270  0.94850  0.29020  Biso   1.000  H
  H23      1.0000 0.80150  0.50270  0.54020  Biso   1.000  H
  H24      1.0000 0.24730  0.05150  0.79020  Biso   1.000  H
  H25      1.0000 0.80150  0.00270  0.45980  Biso   1.000  H
  H26      1.0000 0.74730  0.05150  0.70980  Biso   1.000  H
  H27      1.0000 0.69850  0.99730  0.95980  Biso   1.000  H
  H28      1.0000 0.75270  0.94850  0.20980  Biso   1.000  H
  H29      1.0000 0.30150  0.50270  0.95980  Biso   1.000  H
  H30      1.0000 0.24730  0.55150  0.20980  Biso   1.000  H
  H31      1.0000 0.19850  0.49730  0.45980  Biso   1.000  H
  H32      1.0000 0.25270  0.44850  0.70980  Biso   1.000  H
  C65      1.0000 0.18160  0.08940  0.57080  Biso   1.000  C
  C66      1.0000 0.66060  0.43160  0.82080  Biso   1.000  C
  C67      1.0000 0.31840  0.91060  0.07080  Biso   1.000  C
  C68      1.0000 0.83940  0.56840  0.32080  Biso   1.000  C
  C69      1.0000 0.68160  0.58940  0.07080  Biso   1.000  C
  C70      1.0000 0.16060  0.93160  0.32080  Biso   1.000  C
  C71      1.0000 0.81840  0.41060  0.57080  Biso   1.000  C
  C72      1.0000 0.33940  0.06840  0.82080  Biso   1.000  C
  C73      1.0000 0.81840  0.91060  0.42920  Biso   1.000  C
  C74      1.0000 0.83940  0.06840  0.67920  Biso   1.000  C
  C75      1.0000 0.68160  0.08940  0.92920  Biso   1.000  C
  C76      1.0000 0.66060  0.93160  0.17920  Biso   1.000  C
  C77      1.0000 0.31840  0.41060  0.92920  Biso   1.000  C
  C78      1.0000 0.33940  0.56840  0.17920  Biso   1.000  C
  C79      1.0000 0.18160  0.58940  0.42920  Biso   1.000  C
  C80      1.0000 0.16060  0.43160  0.67920  Biso   1.000  C
  C81      1.0000 0.15100  0.13380  0.64420  Biso   1.000  C
  C82      1.0000 0.61620  0.40100  0.89420  Biso   1.000  C
  C83      1.0000 0.34900  0.86620  0.14420  Biso   1.000  C
  C84      1.0000 0.88380  0.59900  0.39420  Biso   1.000  C
  C85      1.0000 0.65100  0.63380  0.14420  Biso   1.000  C
  C86      1.0000 0.11620  0.90100  0.39420  Biso   1.000  C
  C87      1.0000 0.84900  0.36620  0.64420  Biso   1.000  C
  C88      1.0000 0.38380  0.09900  0.89420  Biso   1.000  C
  C89      1.0000 0.84900  0.86620  0.35580  Biso   1.000  C
  C90      1.0000 0.88380  0.09900  0.60580  Biso   1.000  C
  C91      1.0000 0.65100  0.13380  0.85580  Biso   1.000  C
  C92      1.0000 0.61620  0.90100  0.10580  Biso   1.000  C
  C93      1.0000 0.34900  0.36620  0.85580  Biso   1.000  C
  C94      1.0000 0.38380  0.59900  0.10580  Biso   1.000  C
  C95      1.0000 0.15100  0.63380  0.35580  Biso   1.000  C
  C96      1.0000 0.11620  0.40100  0.60580  Biso   1.000  C
  H33      1.0000 0.15350  0.17840  0.63440  Biso   1.000  H
  H34      1.0000 0.57160  0.40350  0.88440  Biso   1.000  H
  H35      1.0000 0.34650  0.82160  0.13440  Biso   1.000  H
  H36      1.0000 0.92840  0.59650  0.38440  Biso   1.000  H
  H37      1.0000 0.65350  0.67840  0.13440  Biso   1.000  H
  H38      1.0000 0.07160  0.90350  0.38440  Biso   1.000  H
  H39      1.0000 0.84650  0.32160  0.63440  Biso   1.000  H
  H40      1.0000 0.42840  0.09650  0.88440  Biso   1.000  H
  H41      1.0000 0.84650  0.82160  0.36560  Biso   1.000  H
  H42      1.0000 0.92840  0.09650  0.61560  Biso   1.000  H
  H43      1.0000 0.65350  0.17840  0.86560  Biso   1.000  H
  H44      1.0000 0.57160  0.90350  0.11560  Biso   1.000  H
  H45      1.0000 0.34650  0.32160  0.86560  Biso   1.000  H
  H46      1.0000 0.42840  0.59650  0.11560  Biso   1.000  H
  H47      1.0000 0.15350  0.67840  0.36560  Biso   1.000  H
  H48      1.0000 0.07160  0.40350  0.61560  Biso   1.000  H
  C97      1.0000 0.11800  0.10760  0.72920  Biso   1.000  C
  C98      1.0000 0.64240  0.36800  0.97920  Biso   1.000  C
  C99      1.0000 0.38200  0.89240  0.22920  Biso   1.000  C
  C100     1.0000 0.85760  0.63200  0.47920  Biso   1.000  C
  C101     1.0000 0.61800  0.60760  0.22920  Biso   1.000  C
  C102     1.0000 0.14240  0.86800  0.47920  Biso   1.000  C
  C103     1.0000 0.88200  0.39240  0.72920  Biso   1.000  C
  C104     1.0000 0.35760  0.13200  0.97920  Biso   1.000  C
  C105     1.0000 0.88200  0.89240  0.27080  Biso   1.000  C
  C106     1.0000 0.85760  0.13200  0.52080  Biso   1.000  C
  C107     1.0000 0.61800  0.10760  0.77080  Biso   1.000  C
  C108     1.0000 0.64240  0.86800  0.02080  Biso   1.000  C
  C109     1.0000 0.38200  0.39240  0.77080  Biso   1.000  C
  C110     1.0000 0.35760  0.63200  0.02080  Biso   1.000  C
  C111     1.0000 0.11800  0.60760  0.27080  Biso   1.000  C
  C112     1.0000 0.14240  0.36800  0.52080  Biso   1.000  C
  H49      1.0000 0.09860  0.13500  0.77890  Biso   1.000  H
  H50      1.0000 0.61500  0.34860  0.02890  Biso   1.000  H
  H51      1.0000 0.40140  0.86500  0.27890  Biso   1.000  H
  H52      1.0000 0.88500  0.65140  0.52890  Biso   1.000  H
  H53      1.0000 0.59860  0.63500  0.27890  Biso   1.000  H
  H54      1.0000 0.11500  0.84860  0.52890  Biso   1.000  H
  H55      1.0000 0.90140  0.36500  0.77890  Biso   1.000  H
  H56      1.0000 0.38500  0.15140  0.02890  Biso   1.000  H
  H57      1.0000 0.90140  0.86500  0.22110  Biso   1.000  H
  H58      1.0000 0.88500  0.15140  0.47110  Biso   1.000  H
  H59      1.0000 0.59860  0.13500  0.72110  Biso   1.000  H
  H60      1.0000 0.61500  0.84860  0.97110  Biso   1.000  H
  H61      1.0000 0.40140  0.36500  0.72110  Biso   1.000  H
  H62      1.0000 0.38500  0.65140  0.97110  Biso   1.000  H
  H63      1.0000 0.09860  0.63500  0.22110  Biso   1.000  H
  H64      1.0000 0.11500  0.34860  0.47110  Biso   1.000  H
  C113     1.0000 0.20570  0.16890  0.42680  Biso   1.000  C
  C114     1.0000 0.58110  0.45570  0.67680  Biso   1.000  C
  C115     1.0000 0.29430  0.83110  0.92680  Biso   1.000  C
  C116     1.0000 0.91890  0.54430  0.17680  Biso   1.000  C
  C117     1.0000 0.70570  0.66890  0.92680  Biso   1.000  C
  C118     1.0000 0.08110  0.95570  0.17680  Biso   1.000  C
  C119     1.0000 0.79430  0.33110  0.42680  Biso   1.000  C
  C120     1.0000 0.41890  0.04430  0.67680  Biso   1.000  C
  C121     1.0000 0.79430  0.83110  0.57320  Biso   1.000  C
  C122     1.0000 0.91890  0.04430  0.82320  Biso   1.000  C
  C123     1.0000 0.70570  0.16890  0.07320  Biso   1.000  C
  C124     1.0000 0.58110  0.95570  0.32320  Biso   1.000  C
  C125     1.0000 0.29430  0.33110  0.07320  Biso   1.000  C
  C126     1.0000 0.41890  0.54430  0.32320  Biso   1.000  C
  C127     1.0000 0.20570  0.66890  0.57320  Biso   1.000  C
  C128     1.0000 0.08110  0.45570  0.82320  Biso   1.000  C
  H65      1.0000 0.16950  0.19480  0.43870  Biso   1.000  H
  H66      1.0000 0.55520  0.41950  0.68870  Biso   1.000  H
  H67      1.0000 0.33050  0.80520  0.93870  Biso   1.000  H
  H68      1.0000 0.94480  0.58050  0.18870  Biso   1.000  H
  H69      1.0000 0.66950  0.69480  0.93870  Biso   1.000  H
  H70      1.0000 0.05520  0.91950  0.18870  Biso   1.000  H
  H71      1.0000 0.83050  0.30520  0.43870  Biso   1.000  H
  H72      1.0000 0.44480  0.08050  0.68870  Biso   1.000  H
  H73      1.0000 0.83050  0.80520  0.56130  Biso   1.000  H
  H74      1.0000 0.94480  0.08050  0.81130  Biso   1.000  H
  H75      1.0000 0.66950  0.19480  0.06130  Biso   1.000  H
  H76      1.0000 0.55520  0.91950  0.31130  Biso   1.000  H
  H77      1.0000 0.33050  0.30520  0.06130  Biso   1.000  H
  H78      1.0000 0.44480  0.58050  0.31130  Biso   1.000  H
  H79      1.0000 0.16950  0.69480  0.56130  Biso   1.000  H
  H80      1.0000 0.05520  0.41950  0.81130  Biso   1.000  H
  C129     1.0000 0.27810  0.09300  0.45010  Biso   1.000  C
  C130     1.0000 0.65700  0.52810  0.70010  Biso   1.000  C
  C131     1.0000 0.22190  0.90700  0.95010  Biso   1.000  C
  C132     1.0000 0.84300  0.47190  0.20010  Biso   1.000  C
  C133     1.0000 0.77810  0.59300  0.95010  Biso   1.000  C
  C134     1.0000 0.15700  0.02810  0.20010  Biso   1.000  C
  C135     1.0000 0.72190  0.40700  0.45010  Biso   1.000  C
  C136     1.0000 0.34300  0.97190  0.70010  Biso   1.000  C
  C137     1.0000 0.72190  0.90700  0.54990  Biso   1.000  C
  C138     1.0000 0.84300  0.97190  0.79990  Biso   1.000  C
  C139     1.0000 0.77810  0.09300  0.04990  Biso   1.000  C
  C140     1.0000 0.65700  0.02810  0.29990  Biso   1.000  C
  C141     1.0000 0.22190  0.40700  0.04990  Biso   1.000  C
  C142     1.0000 0.34300  0.47190  0.29990  Biso   1.000  C
  C143     1.0000 0.27810  0.59300  0.54990  Biso   1.000  C
  C144     1.0000 0.15700  0.52810  0.79990  Biso   1.000  C
  H81      1.0000 0.30150  0.05790  0.47650  Biso   1.000  H
  H82      1.0000 0.69210  0.55150  0.72650  Biso   1.000  H
  H83      1.0000 0.19850  0.94210  0.97650  Biso   1.000  H
  H84      1.0000 0.80790  0.44850  0.22650  Biso   1.000  H
  H85      1.0000 0.80150  0.55790  0.97650  Biso   1.000  H
  H86      1.0000 0.19210  0.05150  0.22650  Biso   1.000  H
  H87      1.0000 0.69850  0.44210  0.47650  Biso   1.000  H
  H88      1.0000 0.30790  0.94850  0.72650  Biso   1.000  H
  H89      1.0000 0.69850  0.94210  0.52350  Biso   1.000  H
  H90      1.0000 0.80790  0.94850  0.77350  Biso   1.000  H
  H91      1.0000 0.80150  0.05790  0.02350  Biso   1.000  H
  H92      1.0000 0.69210  0.05150  0.27350  Biso   1.000  H
  H93      1.0000 0.19850  0.44210  0.02350  Biso   1.000  H
  H94      1.0000 0.30790  0.44850  0.27350  Biso   1.000  H
  H95      1.0000 0.30150  0.55790  0.52350  Biso   1.000  H
  H96      1.0000 0.19210  0.55150  0.77350  Biso   1.000  H
  C145     1.0000 0.29450  0.13220  0.36490  Biso   1.000  C
  C146     1.0000 0.61780  0.54450  0.61490  Biso   1.000  C
  C147     1.0000 0.20550  0.86780  0.86490  Biso   1.000  C
  C148     1.0000 0.88220  0.45550  0.11490  Biso   1.000  C
  C149     1.0000 0.79450  0.63220  0.86490  Biso   1.000  C
  C150     1.0000 0.11780  0.04450  0.11490  Biso   1.000  C
  C151     1.0000 0.70550  0.36780  0.36490  Biso   1.000  C
  C152     1.0000 0.38220  0.95550  0.61490  Biso   1.000  C
  C153     1.0000 0.70550  0.86780  0.63510  Biso   1.000  C
  C154     1.0000 0.88220  0.95550  0.88510  Biso   1.000  C
  C155     1.0000 0.79450  0.13220  0.13510  Biso   1.000  C
  C156     1.0000 0.61780  0.04450  0.38510  Biso   1.000  C
  C157     1.0000 0.20550  0.36780  0.13510  Biso   1.000  C
  C158     1.0000 0.38220  0.45550  0.38510  Biso   1.000  C
  C159     1.0000 0.29450  0.63220  0.63510  Biso   1.000  C
  C160     1.0000 0.11780  0.54450  0.88510  Biso   1.000  C
  H97      1.0000 0.33160  0.12790  0.32340  Biso   1.000  H
  H98      1.0000 0.62210  0.58160  0.57340  Biso   1.000  H
  H99      1.0000 0.16840  0.87210  0.82340  Biso   1.000  H
  H100     1.0000 0.87790  0.41840  0.07340  Biso   1.000  H
  H101     1.0000 0.83160  0.62790  0.82340  Biso   1.000  H
  H102     1.0000 0.12210  0.08160  0.07340  Biso   1.000  H
  H103     1.0000 0.66840  0.37210  0.32340  Biso   1.000  H
  H104     1.0000 0.37790  0.91840  0.57340  Biso   1.000  H
  H105     1.0000 0.66840  0.87210  0.67660  Biso   1.000  H
  H106     1.0000 0.87790  0.91840  0.92660  Biso   1.000  H
  H107     1.0000 0.83160  0.12790  0.17660  Biso   1.000  H
  H108     1.0000 0.62210  0.08160  0.42660  Biso   1.000  H
  H109     1.0000 0.16840  0.37210  0.17660  Biso   1.000  H
  H110     1.0000 0.37790  0.41840  0.42660  Biso   1.000  H
  H111     1.0000 0.33160  0.62790  0.67660  Biso   1.000  H
  H112     1.0000 0.12210  0.58160  0.92660  Biso   1.000  H
