data_image0
_cell_length_a       23.494
_cell_length_b       23.494
_cell_length_c       10.003
_cell_angle_alpha    90
_cell_angle_beta     90
_cell_angle_gamma    120

_symmetry_space_group_name_H-M    "P 1"
_symmetry_int_tables_number       1

loop_
  _symmetry_equiv_pos_as_xyz
  'x, y, z'

loop_
  _atom_site_label
  _atom_site_occupancy
  _atom_site_fract_x
  _atom_site_fract_y
  _atom_site_fract_z
  _atom_site_thermal_displace_type
  _atom_site_B_iso_or_equiv
  _atom_site_type_symbol
  Cu1      1.0000 0.50000  0.00000  0.00000  Biso   1.000  Cu
  Cu2      1.0000 0.00000  0.50000  0.00000  Biso   1.000  Cu
  Cu3      1.0000 0.50000  0.50000  0.00000  Biso   1.000  Cu
  Cu4      1.0000 0.16667  0.33333  0.33333  Biso   1.000  Cu
  Cu5      1.0000 0.66667  0.83333  0.33333  Biso   1.000  Cu
  Cu6      1.0000 0.16667  0.83333  0.33333  Biso   1.000  Cu
  Cu7      1.0000 0.83333  0.66667  0.66667  Biso   1.000  Cu
  Cu8      1.0000 0.33333  0.16667  0.66667  Biso   1.000  Cu
  Cu9      1.0000 0.83333  0.16667  0.66667  Biso   1.000  Cu
  O1       1.0000 0.08448  0.58293  0.01320  Biso   1.000  O
  O2       1.0000 0.41707  0.50155  0.01320  Biso   1.000  O
  O3       1.0000 0.49845  0.91552  0.01320  Biso   1.000  O
  O4       1.0000 0.75115  0.91626  0.34653  Biso   1.000  O
  O5       1.0000 0.08374  0.83488  0.34653  Biso   1.000  O
  O6       1.0000 0.16512  0.24885  0.34653  Biso   1.000  O
  O7       1.0000 0.41781  0.24960  0.67987  Biso   1.000  O
  O8       1.0000 0.75040  0.16822  0.67987  Biso   1.000  O
  O9       1.0000 0.83178  0.58219  0.67987  Biso   1.000  O
  O10      1.0000 0.91552  0.41707  0.98680  Biso   1.000  O
  O11      1.0000 0.58293  0.49845  0.98680  Biso   1.000  O
  O12      1.0000 0.50155  0.08448  0.98680  Biso   1.000  O
  O13      1.0000 0.58219  0.75040  0.32013  Biso   1.000  O
  O14      1.0000 0.24960  0.83178  0.32013  Biso   1.000  O
  O15      1.0000 0.16822  0.41781  0.32013  Biso   1.000  O
  O16      1.0000 0.24885  0.08374  0.65347  Biso   1.000  O
  O17      1.0000 0.91626  0.16512  0.65347  Biso   1.000  O
  O18      1.0000 0.83488  0.75115  0.65347  Biso   1.000  O
  O19      1.0000 0.04680  0.59498  0.81680  Biso   1.000  O
  O20      1.0000 0.40502  0.45182  0.81680  Biso   1.000  O
  O21      1.0000 0.54818  0.95320  0.81680  Biso   1.000  O
  O22      1.0000 0.71347  0.92831  0.15013  Biso   1.000  O
  O23      1.0000 0.07169  0.78515  0.15013  Biso   1.000  O
  O24      1.0000 0.21485  0.28653  0.15013  Biso   1.000  O
  O25      1.0000 0.38013  0.26165  0.48347  Biso   1.000  O
  O26      1.0000 0.73835  0.11849  0.48347  Biso   1.000  O
  O27      1.0000 0.88151  0.61987  0.48347  Biso   1.000  O
  O28      1.0000 0.95320  0.40502  0.18320  Biso   1.000  O
  O29      1.0000 0.59498  0.54818  0.18320  Biso   1.000  O
  O30      1.0000 0.45182  0.04680  0.18320  Biso   1.000  O
  O31      1.0000 0.61987  0.73835  0.51653  Biso   1.000  O
  O32      1.0000 0.26165  0.88151  0.51653  Biso   1.000  O
  O33      1.0000 0.11849  0.38013  0.51653  Biso   1.000  O
  O34      1.0000 0.28653  0.07169  0.84987  Biso   1.000  O
  O35      1.0000 0.92831  0.21485  0.84987  Biso   1.000  O
  O36      1.0000 0.78515  0.71347  0.84987  Biso   1.000  O
  N1       1.0000 0.41028  0.95490  0.92380  Biso   1.000  N
  N2       1.0000 0.04510  0.45538  0.92380  Biso   1.000  N
  N3       1.0000 0.54462  0.58972  0.92380  Biso   1.000  N
  N4       1.0000 0.07695  0.28823  0.25713  Biso   1.000  N
  N5       1.0000 0.71177  0.78871  0.25713  Biso   1.000  N
  N6       1.0000 0.21129  0.92305  0.25713  Biso   1.000  N
  N7       1.0000 0.74361  0.62157  0.59047  Biso   1.000  N
  N8       1.0000 0.37843  0.12205  0.59047  Biso   1.000  N
  N9       1.0000 0.87795  0.25639  0.59047  Biso   1.000  N
  N10      1.0000 0.58972  0.04510  0.07620  Biso   1.000  N
  N11      1.0000 0.95490  0.54462  0.07620  Biso   1.000  N
  N12      1.0000 0.45538  0.41028  0.07620  Biso   1.000  N
  N13      1.0000 0.25639  0.37843  0.40953  Biso   1.000  N
  N14      1.0000 0.62157  0.87795  0.40953  Biso   1.000  N
  N15      1.0000 0.12205  0.74361  0.40953  Biso   1.000  N
  N16      1.0000 0.92305  0.71177  0.74287  Biso   1.000  N
  N17      1.0000 0.28823  0.21129  0.74287  Biso   1.000  N
  N18      1.0000 0.78871  0.07695  0.74287  Biso   1.000  N
  N19      1.0000 0.30905  0.87557  0.88650  Biso   1.000  N
  N20      1.0000 0.12443  0.43348  0.88650  Biso   1.000  N
  N21      1.0000 0.56652  0.69095  0.88650  Biso   1.000  N
  N22      1.0000 0.97572  0.20890  0.21983  Biso   1.000  N
  N23      1.0000 0.79110  0.76681  0.21983  Biso   1.000  N
  N24      1.0000 0.23319  0.02428  0.21983  Biso   1.000  N
  N25      1.0000 0.64238  0.54224  0.55317  Biso   1.000  N
  N26      1.0000 0.45776  0.10015  0.55317  Biso   1.000  N
  N27      1.0000 0.89985  0.35762  0.55317  Biso   1.000  N
  N28      1.0000 0.69095  0.12443  0.11350  Biso   1.000  N
  N29      1.0000 0.87557  0.56652  0.11350  Biso   1.000  N
  N30      1.0000 0.43348  0.30905  0.11350  Biso   1.000  N
  N31      1.0000 0.35762  0.45776  0.44683  Biso   1.000  N
  N32      1.0000 0.54224  0.89985  0.44683  Biso   1.000  N
  N33      1.0000 0.10015  0.64238  0.44683  Biso   1.000  N
  N34      1.0000 0.02428  0.79110  0.78017  Biso   1.000  N
  N35      1.0000 0.20890  0.23319  0.78017  Biso   1.000  N
  N36      1.0000 0.76681  0.97572  0.78017  Biso   1.000  N
  C1       1.0000 0.37600  0.98080  0.85750  Biso   1.000  C
  C2       1.0000 0.01920  0.39520  0.85750  Biso   1.000  C
  C3       1.0000 0.60480  0.62400  0.85750  Biso   1.000  C
  C4       1.0000 0.04267  0.31413  0.19083  Biso   1.000  C
  C5       1.0000 0.68587  0.72853  0.19083  Biso   1.000  C
  C6       1.0000 0.27147  0.95733  0.19083  Biso   1.000  C
  C7       1.0000 0.70933  0.64747  0.52417  Biso   1.000  C
  C8       1.0000 0.35253  0.06187  0.52417  Biso   1.000  C
  C9       1.0000 0.93813  0.29067  0.52417  Biso   1.000  C
  C10      1.0000 0.62400  0.01920  0.14250  Biso   1.000  C
  C11      1.0000 0.98080  0.60480  0.14250  Biso   1.000  C
  C12      1.0000 0.39520  0.37600  0.14250  Biso   1.000  C
  C13      1.0000 0.29067  0.35253  0.47583  Biso   1.000  C
  C14      1.0000 0.64747  0.93813  0.47583  Biso   1.000  C
  C15      1.0000 0.06187  0.70933  0.47583  Biso   1.000  C
  C16      1.0000 0.95733  0.68587  0.80917  Biso   1.000  C
  C17      1.0000 0.31413  0.27147  0.80917  Biso   1.000  C
  C18      1.0000 0.72853  0.04267  0.80917  Biso   1.000  C
  H1       1.0000 0.39330  0.02470  0.83380  Biso   1.000  H
  H2       1.0000 0.97530  0.36860  0.83380  Biso   1.000  H
  H3       1.0000 0.63140  0.60670  0.83380  Biso   1.000  H
  H4       1.0000 0.05997  0.35803  0.16713  Biso   1.000  H
  H5       1.0000 0.64197  0.70193  0.16713  Biso   1.000  H
  H6       1.0000 0.29807  0.94003  0.16713  Biso   1.000  H
  H7       1.0000 0.72663  0.69137  0.50047  Biso   1.000  H
  H8       1.0000 0.30863  0.03527  0.50047  Biso   1.000  H
  H9       1.0000 0.96473  0.27337  0.50047  Biso   1.000  H
  H10      1.0000 0.60670  0.97530  0.16620  Biso   1.000  H
  H11      1.0000 0.02470  0.63140  0.16620  Biso   1.000  H
  H12      1.0000 0.36860  0.39330  0.16620  Biso   1.000  H
  H13      1.0000 0.27337  0.30863  0.49953  Biso   1.000  H
  H14      1.0000 0.69137  0.96473  0.49953  Biso   1.000  H
  H15      1.0000 0.03527  0.72663  0.49953  Biso   1.000  H
  H16      1.0000 0.94003  0.64197  0.83287  Biso   1.000  H
  H17      1.0000 0.35803  0.29807  0.83287  Biso   1.000  H
  H18      1.0000 0.70193  0.05997  0.83287  Biso   1.000  H
  C19      1.0000 0.31410  0.93260  0.83310  Biso   1.000  C
  C20      1.0000 0.06740  0.38150  0.83310  Biso   1.000  C
  C21      1.0000 0.61850  0.68590  0.83310  Biso   1.000  C
  C22      1.0000 0.98077  0.26593  0.16643  Biso   1.000  C
  C23      1.0000 0.73407  0.71483  0.16643  Biso   1.000  C
  C24      1.0000 0.28517  0.01923  0.16643  Biso   1.000  C
  C25      1.0000 0.64743  0.59927  0.49977  Biso   1.000  C
  C26      1.0000 0.40073  0.04817  0.49977  Biso   1.000  C
  C27      1.0000 0.95183  0.35257  0.49977  Biso   1.000  C
  C28      1.0000 0.68590  0.06740  0.16690  Biso   1.000  C
  C29      1.0000 0.93260  0.61850  0.16690  Biso   1.000  C
  C30      1.0000 0.38150  0.31410  0.16690  Biso   1.000  C
  C31      1.0000 0.35257  0.40073  0.50023  Biso   1.000  C
  C32      1.0000 0.59927  0.95183  0.50023  Biso   1.000  C
  C33      1.0000 0.04817  0.64743  0.50023  Biso   1.000  C
  C34      1.0000 0.01923  0.73407  0.83357  Biso   1.000  C
  C35      1.0000 0.26593  0.28517  0.83357  Biso   1.000  C
  C36      1.0000 0.71483  0.98077  0.83357  Biso   1.000  C
  H19      1.0000 0.28130  0.93660  0.78940  Biso   1.000  H
  H20      1.0000 0.06340  0.34470  0.78940  Biso   1.000  H
  H21      1.0000 0.65530  0.71870  0.78940  Biso   1.000  H
  H22      1.0000 0.94797  0.26993  0.12273  Biso   1.000  H
  H23      1.0000 0.73007  0.67803  0.12273  Biso   1.000  H
  H24      1.0000 0.32197  0.05203  0.12273  Biso   1.000  H
  H25      1.0000 0.61463  0.60327  0.45607  Biso   1.000  H
  H26      1.0000 0.39673  0.01137  0.45607  Biso   1.000  H
  H27      1.0000 0.98863  0.38537  0.45607  Biso   1.000  H
  H28      1.0000 0.71870  0.06340  0.21060  Biso   1.000  H
  H29      1.0000 0.93660  0.65530  0.21060  Biso   1.000  H
  H30      1.0000 0.34470  0.28130  0.21060  Biso   1.000  H
  H31      1.0000 0.38537  0.39673  0.54393  Biso   1.000  H
  H32      1.0000 0.60327  0.98863  0.54393  Biso   1.000  H
  H33      1.0000 0.01137  0.61463  0.54393  Biso   1.000  H
  H34      1.0000 0.05203  0.73007  0.87727  Biso   1.000  H
  H35      1.0000 0.26993  0.32197  0.87727  Biso   1.000  H
  H36      1.0000 0.67803  0.94797  0.87727  Biso   1.000  H
  C37      1.0000 0.36800  0.89170  0.93870  Biso   1.000  C
  C38      1.0000 0.10830  0.47630  0.93870  Biso   1.000  C
  C39      1.0000 0.52370  0.63200  0.93870  Biso   1.000  C
  C40      1.0000 0.03467  0.22503  0.27203  Biso   1.000  C
  C41      1.0000 0.77497  0.80963  0.27203  Biso   1.000  C
  C42      1.0000 0.19037  0.96533  0.27203  Biso   1.000  C
  C43      1.0000 0.70133  0.55837  0.60537  Biso   1.000  C
  C44      1.0000 0.44163  0.14297  0.60537  Biso   1.000  C
  C45      1.0000 0.85703  0.29867  0.60537  Biso   1.000  C
  C46      1.0000 0.63200  0.10830  0.06130  Biso   1.000  C
  C47      1.0000 0.89170  0.52370  0.06130  Biso   1.000  C
  C48      1.0000 0.47630  0.36800  0.06130  Biso   1.000  C
  C49      1.0000 0.29867  0.44163  0.39463  Biso   1.000  C
  C50      1.0000 0.55837  0.85703  0.39463  Biso   1.000  C
  C51      1.0000 0.14297  0.70133  0.39463  Biso   1.000  C
  C52      1.0000 0.96533  0.77497  0.72797  Biso   1.000  C
  C53      1.0000 0.22503  0.19037  0.72797  Biso   1.000  C
  C54      1.0000 0.80963  0.03467  0.72797  Biso   1.000  C
  H37      1.0000 0.37760  0.86210  0.98010  Biso   1.000  H
  H38      1.0000 0.13790  0.51550  0.98010  Biso   1.000  H
  H39      1.0000 0.48450  0.62240  0.98010  Biso   1.000  H
  H40      1.0000 0.04427  0.19543  0.31343  Biso   1.000  H
  H41      1.0000 0.80457  0.84883  0.31343  Biso   1.000  H
  H42      1.0000 0.15117  0.95573  0.31343  Biso   1.000  H
  H43      1.0000 0.71093  0.52877  0.64677  Biso   1.000  H
  H44      1.0000 0.47123  0.18217  0.64677  Biso   1.000  H
  H45      1.0000 0.81783  0.28907  0.64677  Biso   1.000  H
  H46      1.0000 0.62240  0.13790  0.01990  Biso   1.000  H
  H47      1.0000 0.86210  0.48450  0.01990  Biso   1.000  H
  H48      1.0000 0.51550  0.37760  0.01990  Biso   1.000  H
  H49      1.0000 0.28907  0.47123  0.35323  Biso   1.000  H
  H50      1.0000 0.52877  0.81783  0.35323  Biso   1.000  H
  H51      1.0000 0.18217  0.71093  0.35323  Biso   1.000  H
  H52      1.0000 0.95573  0.80457  0.68657  Biso   1.000  H
  H53      1.0000 0.19543  0.15117  0.68657  Biso   1.000  H
  H54      1.0000 0.84883  0.04427  0.68657  Biso   1.000  H
  C55      1.0000 0.25190  0.81080  0.89040  Biso   1.000  C
  C56      1.0000 0.18920  0.44110  0.89040  Biso   1.000  C
  C57      1.0000 0.55890  0.74810  0.89040  Biso   1.000  C
  C58      1.0000 0.91857  0.14413  0.22373  Biso   1.000  C
  C59      1.0000 0.85587  0.77443  0.22373  Biso   1.000  C
  C60      1.0000 0.22557  0.08143  0.22373  Biso   1.000  C
  C61      1.0000 0.58523  0.47747  0.55707  Biso   1.000  C
  C62      1.0000 0.52253  0.10777  0.55707  Biso   1.000  C
  C63      1.0000 0.89223  0.41477  0.55707  Biso   1.000  C
  C64      1.0000 0.74810  0.18920  0.10960  Biso   1.000  C
  C65      1.0000 0.81080  0.55890  0.10960  Biso   1.000  C
  C66      1.0000 0.44110  0.25190  0.10960  Biso   1.000  C
  C67      1.0000 0.41477  0.52253  0.44293  Biso   1.000  C
  C68      1.0000 0.47747  0.89223  0.44293  Biso   1.000  C
  C69      1.0000 0.10777  0.58523  0.44293  Biso   1.000  C
  C70      1.0000 0.08143  0.85587  0.77627  Biso   1.000  C
  C71      1.0000 0.14413  0.22557  0.77627  Biso   1.000  C
  C72      1.0000 0.77443  0.91857  0.77627  Biso   1.000  C
  C73      1.0000 0.21350  0.78450  0.77830  Biso   1.000  C
  C74      1.0000 0.21550  0.42900  0.77830  Biso   1.000  C
  C75      1.0000 0.57100  0.78650  0.77830  Biso   1.000  C
  C76      1.0000 0.88017  0.11783  0.11163  Biso   1.000  C
  C77      1.0000 0.88217  0.76233  0.11163  Biso   1.000  C
  C78      1.0000 0.23767  0.11983  0.11163  Biso   1.000  C
  C79      1.0000 0.54683  0.45117  0.44497  Biso   1.000  C
  C80      1.0000 0.54883  0.09567  0.44497  Biso   1.000  C
  C81      1.0000 0.90433  0.45317  0.44497  Biso   1.000  C
  C82      1.0000 0.78650  0.21550  0.22170  Biso   1.000  C
  C83      1.0000 0.78450  0.57100  0.22170  Biso   1.000  C
  C84      1.0000 0.42900  0.21350  0.22170  Biso   1.000  C
  C85      1.0000 0.45317  0.54883  0.55503  Biso   1.000  C
  C86      1.0000 0.45117  0.90433  0.55503  Biso   1.000  C
  C87      1.0000 0.09567  0.54683  0.55503  Biso   1.000  C
  C88      1.0000 0.11983  0.88217  0.88837  Biso   1.000  C
  C89      1.0000 0.11783  0.23767  0.88837  Biso   1.000  C
  C90      1.0000 0.76233  0.88017  0.88837  Biso   1.000  C
  H55      1.0000 0.22310  0.80880  0.69970  Biso   1.000  H
  H56      1.0000 0.19120  0.41430  0.69970  Biso   1.000  H
  H57      1.0000 0.58570  0.77690  0.69970  Biso   1.000  H
  H58      1.0000 0.88977  0.14213  0.03303  Biso   1.000  H
  H59      1.0000 0.85787  0.74763  0.03303  Biso   1.000  H
  H60      1.0000 0.25237  0.11023  0.03303  Biso   1.000  H
  H61      1.0000 0.55643  0.47547  0.36637  Biso   1.000  H
  H62      1.0000 0.52453  0.08097  0.36637  Biso   1.000  H
  H63      1.0000 0.91903  0.44357  0.36637  Biso   1.000  H
  H64      1.0000 0.77690  0.19120  0.30030  Biso   1.000  H
  H65      1.0000 0.80880  0.58570  0.30030  Biso   1.000  H
  H66      1.0000 0.41430  0.22310  0.30030  Biso   1.000  H
  H67      1.0000 0.44357  0.52453  0.63363  Biso   1.000  H
  H68      1.0000 0.47547  0.91903  0.63363  Biso   1.000  H
  H69      1.0000 0.08097  0.55643  0.63363  Biso   1.000  H
  H70      1.0000 0.11023  0.85787  0.96697  Biso   1.000  H
  H71      1.0000 0.14213  0.25237  0.96697  Biso   1.000  H
  H72      1.0000 0.74763  0.88977  0.96697  Biso   1.000  H
  C91      1.0000 0.16000  0.72090  0.78490  Biso   1.000  C
  C92      1.0000 0.27910  0.43910  0.78490  Biso   1.000  C
  C93      1.0000 0.56090  0.84000  0.78490  Biso   1.000  C
  C94      1.0000 0.82667  0.05423  0.11823  Biso   1.000  C
  C95      1.0000 0.94577  0.77243  0.11823  Biso   1.000  C
  C96      1.0000 0.22757  0.17333  0.11823  Biso   1.000  C
  C97      1.0000 0.49333  0.38757  0.45157  Biso   1.000  C
  C98      1.0000 0.61243  0.10577  0.45157  Biso   1.000  C
  C99      1.0000 0.89423  0.50667  0.45157  Biso   1.000  C
  C100     1.0000 0.84000  0.27910  0.21510  Biso   1.000  C
  C101     1.0000 0.72090  0.56090  0.21510  Biso   1.000  C
  C102     1.0000 0.43910  0.16000  0.21510  Biso   1.000  C
  C103     1.0000 0.50667  0.61243  0.54843  Biso   1.000  C
  C104     1.0000 0.38757  0.89423  0.54843  Biso   1.000  C
  C105     1.0000 0.10577  0.49333  0.54843  Biso   1.000  C
  C106     1.0000 0.17333  0.94577  0.88177  Biso   1.000  C
  C107     1.0000 0.05423  0.22757  0.88177  Biso   1.000  C
  C108     1.0000 0.77243  0.82667  0.88177  Biso   1.000  C
  H73      1.0000 0.13360  0.70250  0.70990  Biso   1.000  H
  H74      1.0000 0.29750  0.43110  0.70990  Biso   1.000  H
  H75      1.0000 0.56890  0.86640  0.70990  Biso   1.000  H
  H76      1.0000 0.80027  0.03583  0.04323  Biso   1.000  H
  H77      1.0000 0.96417  0.76443  0.04323  Biso   1.000  H
  H78      1.0000 0.23557  0.19973  0.04323  Biso   1.000  H
  H79      1.0000 0.46693  0.36917  0.37657  Biso   1.000  H
  H80      1.0000 0.63083  0.09777  0.37657  Biso   1.000  H
  H81      1.0000 0.90223  0.53307  0.37657  Biso   1.000  H
  H82      1.0000 0.86640  0.29750  0.29010  Biso   1.000  H
  H83      1.0000 0.70250  0.56890  0.29010  Biso   1.000  H
  H84      1.0000 0.43110  0.13360  0.29010  Biso   1.000  H
  H85      1.0000 0.53307  0.63083  0.62343  Biso   1.000  H
  H86      1.0000 0.36917  0.90223  0.62343  Biso   1.000  H
  H87      1.0000 0.09777  0.46693  0.62343  Biso   1.000  H
  H88      1.0000 0.19973  0.96417  0.95677  Biso   1.000  H
  H89      1.0000 0.03583  0.23557  0.95677  Biso   1.000  H
  H90      1.0000 0.76443  0.80027  0.95677  Biso   1.000  H
  C109     1.0000 0.14560  0.68480  0.90140  Biso   1.000  C
  C110     1.0000 0.31520  0.46080  0.90140  Biso   1.000  C
  C111     1.0000 0.53920  0.85440  0.90140  Biso   1.000  C
  C112     1.0000 0.81227  0.01813  0.23473  Biso   1.000  C
  C113     1.0000 0.98187  0.79413  0.23473  Biso   1.000  C
  C114     1.0000 0.20587  0.18773  0.23473  Biso   1.000  C
  C115     1.0000 0.47893  0.35147  0.56807  Biso   1.000  C
  C116     1.0000 0.64853  0.12747  0.56807  Biso   1.000  C
  C117     1.0000 0.87253  0.52107  0.56807  Biso   1.000  C
  C118     1.0000 0.85440  0.31520  0.09860  Biso   1.000  C
  C119     1.0000 0.68480  0.53920  0.09860  Biso   1.000  C
  C120     1.0000 0.46080  0.14560  0.09860  Biso   1.000  C
  C121     1.0000 0.52107  0.64853  0.43193  Biso   1.000  C
  C122     1.0000 0.35147  0.87253  0.43193  Biso   1.000  C
  C123     1.0000 0.12747  0.47893  0.43193  Biso   1.000  C
  C124     1.0000 0.18773  0.98187  0.76527  Biso   1.000  C
  C125     1.0000 0.01813  0.20587  0.76527  Biso   1.000  C
  C126     1.0000 0.79413  0.81227  0.76527  Biso   1.000  C
  C127     1.0000 0.18470  0.71330  0.01390  Biso   1.000  C
  C128     1.0000 0.28670  0.47140  0.01390  Biso   1.000  C
  C129     1.0000 0.52860  0.81530  0.01390  Biso   1.000  C
  C130     1.0000 0.85137  0.04663  0.34723  Biso   1.000  C
  C131     1.0000 0.95337  0.80473  0.34723  Biso   1.000  C
  C132     1.0000 0.19527  0.14863  0.34723  Biso   1.000  C
  C133     1.0000 0.51803  0.37997  0.68057  Biso   1.000  C
  C134     1.0000 0.62003  0.13807  0.68057  Biso   1.000  C
  C135     1.0000 0.86193  0.48197  0.68057  Biso   1.000  C
  C136     1.0000 0.81530  0.28670  0.98610  Biso   1.000  C
  C137     1.0000 0.71330  0.52860  0.98610  Biso   1.000  C
  C138     1.0000 0.47140  0.18470  0.98610  Biso   1.000  C
  C139     1.0000 0.48197  0.62003  0.31943  Biso   1.000  C
  C140     1.0000 0.37997  0.86193  0.31943  Biso   1.000  C
  C141     1.0000 0.13807  0.51803  0.31943  Biso   1.000  C
  C142     1.0000 0.14863  0.95337  0.65277  Biso   1.000  C
  C143     1.0000 0.04663  0.19527  0.65277  Biso   1.000  C
  C144     1.0000 0.80473  0.85137  0.65277  Biso   1.000  C
  H91      1.0000 0.17530  0.68930  0.09280  Biso   1.000  H
  H92      1.0000 0.31070  0.48600  0.09280  Biso   1.000  H
  H93      1.0000 0.51400  0.82470  0.09280  Biso   1.000  H
  H94      1.0000 0.84197  0.02263  0.42613  Biso   1.000  H
  H95      1.0000 0.97737  0.81933  0.42613  Biso   1.000  H
  H96      1.0000 0.18067  0.15803  0.42613  Biso   1.000  H
  H97      1.0000 0.50863  0.35597  0.75947  Biso   1.000  H
  H98      1.0000 0.64403  0.15267  0.75947  Biso   1.000  H
  H99      1.0000 0.84733  0.49137  0.75947  Biso   1.000  H
  H100     1.0000 0.82470  0.31070  0.90720  Biso   1.000  H
  H101     1.0000 0.68930  0.51400  0.90720  Biso   1.000  H
  H102     1.0000 0.48600  0.17530  0.90720  Biso   1.000  H
  H103     1.0000 0.49137  0.64403  0.24053  Biso   1.000  H
  H104     1.0000 0.35597  0.84733  0.24053  Biso   1.000  H
  H105     1.0000 0.15267  0.50863  0.24053  Biso   1.000  H
  H106     1.0000 0.15803  0.97737  0.57387  Biso   1.000  H
  H107     1.0000 0.02263  0.18067  0.57387  Biso   1.000  H
  H108     1.0000 0.81933  0.84197  0.57387  Biso   1.000  H
  C145     1.0000 0.23700  0.77650  0.00950  Biso   1.000  C
  C146     1.0000 0.22350  0.46050  0.00950  Biso   1.000  C
  C147     1.0000 0.53950  0.76300  0.00950  Biso   1.000  C
  C148     1.0000 0.90367  0.10983  0.34283  Biso   1.000  C
  C149     1.0000 0.89017  0.79383  0.34283  Biso   1.000  C
  C150     1.0000 0.20617  0.09633  0.34283  Biso   1.000  C
  C151     1.0000 0.57033  0.44317  0.67617  Biso   1.000  C
  C152     1.0000 0.55683  0.12717  0.67617  Biso   1.000  C
  C153     1.0000 0.87283  0.42967  0.67617  Biso   1.000  C
  C154     1.0000 0.76300  0.22350  0.99050  Biso   1.000  C
  C155     1.0000 0.77650  0.53950  0.99050  Biso   1.000  C
  C156     1.0000 0.46050  0.23700  0.99050  Biso   1.000  C
  C157     1.0000 0.42967  0.55683  0.32383  Biso   1.000  C
  C158     1.0000 0.44317  0.87283  0.32383  Biso   1.000  C
  C159     1.0000 0.12717  0.57033  0.32383  Biso   1.000  C
  C160     1.0000 0.09633  0.89017  0.65717  Biso   1.000  C
  C161     1.0000 0.10983  0.20617  0.65717  Biso   1.000  C
  C162     1.0000 0.79383  0.90367  0.65717  Biso   1.000  C
  H109     1.0000 0.26200  0.79590  0.08560  Biso   1.000  H
  H110     1.0000 0.20410  0.46610  0.08560  Biso   1.000  H
  H111     1.0000 0.53390  0.73800  0.08560  Biso   1.000  H
  H112     1.0000 0.92867  0.12923  0.41893  Biso   1.000  H
  H113     1.0000 0.87077  0.79943  0.41893  Biso   1.000  H
  H114     1.0000 0.20057  0.07133  0.41893  Biso   1.000  H
  H115     1.0000 0.59533  0.46257  0.75227  Biso   1.000  H
  H116     1.0000 0.53743  0.13277  0.75227  Biso   1.000  H
  H117     1.0000 0.86723  0.40467  0.75227  Biso   1.000  H
  H118     1.0000 0.73800  0.20410  0.91440  Biso   1.000  H
  H119     1.0000 0.79590  0.53390  0.91440  Biso   1.000  H
  H120     1.0000 0.46610  0.26200  0.91440  Biso   1.000  H
  H121     1.0000 0.40467  0.53743  0.24773  Biso   1.000  H
  H122     1.0000 0.46257  0.86723  0.24773  Biso   1.000  H
  H123     1.0000 0.13277  0.59533  0.24773  Biso   1.000  H
  H124     1.0000 0.07133  0.87077  0.58107  Biso   1.000  H
  H125     1.0000 0.12923  0.20057  0.58107  Biso   1.000  H
  H126     1.0000 0.79943  0.92867  0.58107  Biso   1.000  H
  C163     1.0000 0.08780  0.61640  0.90780  Biso   1.000  C
  C164     1.0000 0.38360  0.47140  0.90780  Biso   1.000  C
  C165     1.0000 0.52860  0.91220  0.90780  Biso   1.000  C
  C166     1.0000 0.75447  0.94973  0.24113  Biso   1.000  C
  C167     1.0000 0.05027  0.80473  0.24113  Biso   1.000  C
  C168     1.0000 0.19527  0.24553  0.24113  Biso   1.000  C
  C169     1.0000 0.42113  0.28307  0.57447  Biso   1.000  C
  C170     1.0000 0.71693  0.13807  0.57447  Biso   1.000  C
  C171     1.0000 0.86193  0.57887  0.57447  Biso   1.000  C
  C172     1.0000 0.91220  0.38360  0.09220  Biso   1.000  C
  C173     1.0000 0.61640  0.52860  0.09220  Biso   1.000  C
  C174     1.0000 0.47140  0.08780  0.09220  Biso   1.000  C
  C175     1.0000 0.57887  0.71693  0.42553  Biso   1.000  C
  C176     1.0000 0.28307  0.86193  0.42553  Biso   1.000  C
  C177     1.0000 0.13807  0.42113  0.42553  Biso   1.000  C
  C178     1.0000 0.24553  0.05027  0.75887  Biso   1.000  C
  C179     1.0000 0.94973  0.19527  0.75887  Biso   1.000  C
  C180     1.0000 0.80473  0.75447  0.75887  Biso   1.000  C
