data_image0
_cell_length_a       23.5358
_cell_length_b       23.5358
_cell_length_c       10.1078
_cell_angle_alpha    90
_cell_angle_beta     90
_cell_angle_gamma    120

_symmetry_space_group_name_H-M    "P 1"
_symmetry_int_tables_number       1

loop_
  _symmetry_equiv_pos_as_xyz
  'x, y, z'

loop_
  _atom_site_label
  _atom_site_occupancy
  _atom_site_fract_x
  _atom_site_fract_y
  _atom_site_fract_z
  _atom_site_thermal_displace_type
  _atom_site_B_iso_or_equiv
  _atom_site_type_symbol
  Cu1      1.0000 0.83330  0.66670  0.16670  Biso   1.000  Cu
  Cu2      1.0000 0.33330  0.16660  0.16670  Biso   1.000  Cu
  Cu3      1.0000 0.83340  0.16670  0.16670  Biso   1.000  Cu
  Cu4      1.0000 0.49997  0.00003  0.50003  Biso   1.000  Cu
  Cu5      1.0000 0.99997  0.49993  0.50003  Biso   1.000  Cu
  Cu6      1.0000 0.50007  0.50003  0.50003  Biso   1.000  Cu
  Cu7      1.0000 0.16663  0.33337  0.83337  Biso   1.000  Cu
  Cu8      1.0000 0.66663  0.83327  0.83337  Biso   1.000  Cu
  Cu9      1.0000 0.16673  0.83337  0.83337  Biso   1.000  Cu
  N1       1.0000 0.87777  0.25678  0.09230  Biso   1.000  N
  N2       1.0000 0.74322  0.62099  0.09230  Biso   1.000  N
  N3       1.0000 0.37901  0.12223  0.09230  Biso   1.000  N
  N4       1.0000 0.54444  0.59011  0.42563  Biso   1.000  N
  N5       1.0000 0.40989  0.95432  0.42563  Biso   1.000  N
  N6       1.0000 0.04568  0.45556  0.42563  Biso   1.000  N
  N7       1.0000 0.21110  0.92345  0.75897  Biso   1.000  N
  N8       1.0000 0.07655  0.28766  0.75897  Biso   1.000  N
  N9       1.0000 0.71234  0.78890  0.75897  Biso   1.000  N
  N10      1.0000 0.12223  0.74322  0.90770  Biso   1.000  N
  N11      1.0000 0.25678  0.37901  0.90770  Biso   1.000  N
  N12      1.0000 0.62099  0.87777  0.90770  Biso   1.000  N
  N13      1.0000 0.78890  0.07655  0.24103  Biso   1.000  N
  N14      1.0000 0.92345  0.71234  0.24103  Biso   1.000  N
  N15      1.0000 0.28766  0.21110  0.24103  Biso   1.000  N
  N16      1.0000 0.45556  0.40989  0.57437  Biso   1.000  N
  N17      1.0000 0.59011  0.04568  0.57437  Biso   1.000  N
  N18      1.0000 0.95432  0.54444  0.57437  Biso   1.000  N
  N19      1.0000 0.89895  0.35764  0.05440  Biso   1.000  N
  N20      1.0000 0.64236  0.54131  0.05440  Biso   1.000  N
  N21      1.0000 0.45869  0.10105  0.05440  Biso   1.000  N
  N22      1.0000 0.56562  0.69097  0.38773  Biso   1.000  N
  N23      1.0000 0.30903  0.87464  0.38773  Biso   1.000  N
  N24      1.0000 0.12536  0.43438  0.38773  Biso   1.000  N
  N25      1.0000 0.23228  0.02431  0.72107  Biso   1.000  N
  N26      1.0000 0.97569  0.20798  0.72107  Biso   1.000  N
  N27      1.0000 0.79202  0.76772  0.72107  Biso   1.000  N
  N28      1.0000 0.10105  0.64236  0.94560  Biso   1.000  N
  N29      1.0000 0.35764  0.45869  0.94560  Biso   1.000  N
  N30      1.0000 0.54131  0.89895  0.94560  Biso   1.000  N
  N31      1.0000 0.76772  0.97569  0.27893  Biso   1.000  N
  N32      1.0000 0.02431  0.79202  0.27893  Biso   1.000  N
  N33      1.0000 0.20798  0.23228  0.27893  Biso   1.000  N
  N34      1.0000 0.43438  0.30903  0.61227  Biso   1.000  N
  N35      1.0000 0.69097  0.12536  0.61227  Biso   1.000  N
  N36      1.0000 0.87464  0.56562  0.61227  Biso   1.000  N
  C1       1.0000 0.95005  0.35226  0.00150  Biso   1.000  C
  C2       1.0000 0.64774  0.59779  0.00150  Biso   1.000  C
  C3       1.0000 0.40221  0.04995  0.00150  Biso   1.000  C
  C4       1.0000 0.61672  0.68559  0.33483  Biso   1.000  C
  C5       1.0000 0.31441  0.93112  0.33483  Biso   1.000  C
  C6       1.0000 0.06888  0.38328  0.33483  Biso   1.000  C
  C7       1.0000 0.28338  0.01893  0.66817  Biso   1.000  C
  C8       1.0000 0.98107  0.26446  0.66817  Biso   1.000  C
  C9       1.0000 0.73554  0.71662  0.66817  Biso   1.000  C
  C10      1.0000 0.04995  0.64774  0.99850  Biso   1.000  C
  C11      1.0000 0.35226  0.40221  0.99850  Biso   1.000  C
  C12      1.0000 0.59779  0.95005  0.99850  Biso   1.000  C
  C13      1.0000 0.71662  0.98107  0.33183  Biso   1.000  C
  C14      1.0000 0.01893  0.73554  0.33183  Biso   1.000  C
  C15      1.0000 0.26446  0.28338  0.33183  Biso   1.000  C
  C16      1.0000 0.38328  0.31441  0.66517  Biso   1.000  C
  C17      1.0000 0.68559  0.06888  0.66517  Biso   1.000  C
  C18      1.0000 0.93112  0.61672  0.66517  Biso   1.000  C
  H1       1.0000 0.98660  0.38480  0.95760  Biso   1.000  H
  H2       1.0000 0.61520  0.60180  0.95760  Biso   1.000  H
  H3       1.0000 0.39820  0.01340  0.95760  Biso   1.000  H
  H4       1.0000 0.65327  0.71813  0.29093  Biso   1.000  H
  H5       1.0000 0.28187  0.93513  0.29093  Biso   1.000  H
  H6       1.0000 0.06487  0.34673  0.29093  Biso   1.000  H
  H7       1.0000 0.31993  0.05147  0.62427  Biso   1.000  H
  H8       1.0000 0.94853  0.26847  0.62427  Biso   1.000  H
  H9       1.0000 0.73153  0.68007  0.62427  Biso   1.000  H
  H10      1.0000 0.01340  0.61520  0.04240  Biso   1.000  H
  H11      1.0000 0.38480  0.39820  0.04240  Biso   1.000  H
  H12      1.0000 0.60180  0.98660  0.04240  Biso   1.000  H
  H13      1.0000 0.68007  0.94853  0.37573  Biso   1.000  H
  H14      1.0000 0.05147  0.73153  0.37573  Biso   1.000  H
  H15      1.0000 0.26847  0.31993  0.37573  Biso   1.000  H
  H16      1.0000 0.34673  0.28187  0.70907  Biso   1.000  H
  H17      1.0000 0.71813  0.06487  0.70907  Biso   1.000  H
  H18      1.0000 0.93513  0.65327  0.70907  Biso   1.000  H
  C19      1.0000 0.85672  0.29899  0.10810  Biso   1.000  C
  C20      1.0000 0.70101  0.55773  0.10810  Biso   1.000  C
  C21      1.0000 0.44227  0.14328  0.10810  Biso   1.000  C
  C22      1.0000 0.52339  0.63232  0.44143  Biso   1.000  C
  C23      1.0000 0.36768  0.89106  0.44143  Biso   1.000  C
  C24      1.0000 0.10894  0.47661  0.44143  Biso   1.000  C
  C25      1.0000 0.19005  0.96566  0.77477  Biso   1.000  C
  C26      1.0000 0.03434  0.22440  0.77477  Biso   1.000  C
  C27      1.0000 0.77560  0.80995  0.77477  Biso   1.000  C
  C28      1.0000 0.14328  0.70101  0.89190  Biso   1.000  C
  C29      1.0000 0.29899  0.44227  0.89190  Biso   1.000  C
  C30      1.0000 0.55773  0.85672  0.89190  Biso   1.000  C
  C31      1.0000 0.80995  0.03434  0.22523  Biso   1.000  C
  C32      1.0000 0.96566  0.77560  0.22523  Biso   1.000  C
  C33      1.0000 0.22440  0.19005  0.22523  Biso   1.000  C
  C34      1.0000 0.47661  0.36768  0.55857  Biso   1.000  C
  C35      1.0000 0.63232  0.10894  0.55857  Biso   1.000  C
  C36      1.0000 0.89106  0.52339  0.55857  Biso   1.000  C
  H19      1.0000 0.81790  0.28940  0.15070  Biso   1.000  H
  H20      1.0000 0.71060  0.52850  0.15070  Biso   1.000  H
  H21      1.0000 0.47150  0.18210  0.15070  Biso   1.000  H
  H22      1.0000 0.48457  0.62273  0.48403  Biso   1.000  H
  H23      1.0000 0.37727  0.86183  0.48403  Biso   1.000  H
  H24      1.0000 0.13817  0.51543  0.48403  Biso   1.000  H
  H25      1.0000 0.15123  0.95607  0.81737  Biso   1.000  H
  H26      1.0000 0.04393  0.19517  0.81737  Biso   1.000  H
  H27      1.0000 0.80483  0.84877  0.81737  Biso   1.000  H
  H28      1.0000 0.18210  0.71060  0.84930  Biso   1.000  H
  H29      1.0000 0.28940  0.47150  0.84930  Biso   1.000  H
  H30      1.0000 0.52850  0.81790  0.84930  Biso   1.000  H
  H31      1.0000 0.84877  0.04393  0.18263  Biso   1.000  H
  H32      1.0000 0.95607  0.80483  0.18263  Biso   1.000  H
  H33      1.0000 0.19517  0.15123  0.18263  Biso   1.000  H
  H34      1.0000 0.51543  0.37727  0.51597  Biso   1.000  H
  H35      1.0000 0.62273  0.13817  0.51597  Biso   1.000  H
  H36      1.0000 0.86183  0.48457  0.51597  Biso   1.000  H
  C37      1.0000 0.90272  0.45222  0.94850  Biso   1.000  C
  C38      1.0000 0.54778  0.45050  0.94850  Biso   1.000  C
  C39      1.0000 0.54950  0.09728  0.94850  Biso   1.000  C
  C40      1.0000 0.56939  0.78555  0.28183  Biso   1.000  C
  C41      1.0000 0.21445  0.78383  0.28183  Biso   1.000  C
  C42      1.0000 0.21617  0.43061  0.28183  Biso   1.000  C
  C43      1.0000 0.23605  0.11889  0.61517  Biso   1.000  C
  C44      1.0000 0.88111  0.11717  0.61517  Biso   1.000  C
  C45      1.0000 0.88283  0.76395  0.61517  Biso   1.000  C
  C46      1.0000 0.09728  0.54778  0.05150  Biso   1.000  C
  C47      1.0000 0.45222  0.54950  0.05150  Biso   1.000  C
  C48      1.0000 0.45050  0.90272  0.05150  Biso   1.000  C
  C49      1.0000 0.76395  0.88111  0.38483  Biso   1.000  C
  C50      1.0000 0.11889  0.88283  0.38483  Biso   1.000  C
  C51      1.0000 0.11717  0.23605  0.38483  Biso   1.000  C
  C52      1.0000 0.43061  0.21445  0.71817  Biso   1.000  C
  C53      1.0000 0.78555  0.21617  0.71817  Biso   1.000  C
  C54      1.0000 0.78383  0.56939  0.71817  Biso   1.000  C
  H37      1.0000 0.91670  0.44230  0.87030  Biso   1.000  H
  H38      1.0000 0.55770  0.47440  0.87030  Biso   1.000  H
  H39      1.0000 0.52560  0.08330  0.87030  Biso   1.000  H
  H40      1.0000 0.58337  0.77563  0.20363  Biso   1.000  H
  H41      1.0000 0.22437  0.80773  0.20363  Biso   1.000  H
  H42      1.0000 0.19227  0.41663  0.20363  Biso   1.000  H
  H43      1.0000 0.25003  0.10897  0.53697  Biso   1.000  H
  H44      1.0000 0.89103  0.14107  0.53697  Biso   1.000  H
  H45      1.0000 0.85893  0.74997  0.53697  Biso   1.000  H
  H46      1.0000 0.08330  0.55770  0.12970  Biso   1.000  H
  H47      1.0000 0.44230  0.52560  0.12970  Biso   1.000  H
  H48      1.0000 0.47440  0.91670  0.12970  Biso   1.000  H
  H49      1.0000 0.74997  0.89103  0.46303  Biso   1.000  H
  H50      1.0000 0.10897  0.85893  0.46303  Biso   1.000  H
  H51      1.0000 0.14107  0.25003  0.46303  Biso   1.000  H
  H52      1.0000 0.41663  0.22437  0.79637  Biso   1.000  H
  H53      1.0000 0.77563  0.19227  0.79637  Biso   1.000  H
  H54      1.0000 0.80773  0.58337  0.79637  Biso   1.000  H
  C55      1.0000 0.93665  0.29074  0.02600  Biso   1.000  C
  C56      1.0000 0.70926  0.64591  0.02600  Biso   1.000  C
  C57      1.0000 0.35409  0.06335  0.02600  Biso   1.000  C
  C58      1.0000 0.60332  0.62407  0.35933  Biso   1.000  C
  C59      1.0000 0.37593  0.97924  0.35933  Biso   1.000  C
  C60      1.0000 0.02076  0.39668  0.35933  Biso   1.000  C
  C61      1.0000 0.26998  0.95741  0.69267  Biso   1.000  C
  C62      1.0000 0.04259  0.31258  0.69267  Biso   1.000  C
  C63      1.0000 0.68742  0.73002  0.69267  Biso   1.000  C
  C64      1.0000 0.06335  0.70926  0.97400  Biso   1.000  C
  C65      1.0000 0.29074  0.35409  0.97400  Biso   1.000  C
  C66      1.0000 0.64591  0.93665  0.97400  Biso   1.000  C
  C67      1.0000 0.73002  0.04259  0.30733  Biso   1.000  C
  C68      1.0000 0.95741  0.68742  0.30733  Biso   1.000  C
  C69      1.0000 0.31258  0.26998  0.30733  Biso   1.000  C
  C70      1.0000 0.39668  0.37593  0.64067  Biso   1.000  C
  C71      1.0000 0.62407  0.02076  0.64067  Biso   1.000  C
  C72      1.0000 0.97924  0.60332  0.64067  Biso   1.000  C
  H55      1.0000 0.96320  0.27360  0.00180  Biso   1.000  H
  H56      1.0000 0.72640  0.68960  0.00180  Biso   1.000  H
  H57      1.0000 0.31040  0.03680  0.00180  Biso   1.000  H
  H58      1.0000 0.62987  0.60693  0.33513  Biso   1.000  H
  H59      1.0000 0.39307  0.02293  0.33513  Biso   1.000  H
  H60      1.0000 0.97707  0.37013  0.33513  Biso   1.000  H
  H61      1.0000 0.29653  0.94027  0.66847  Biso   1.000  H
  H62      1.0000 0.05973  0.35627  0.66847  Biso   1.000  H
  H63      1.0000 0.64373  0.70347  0.66847  Biso   1.000  H
  H64      1.0000 0.03680  0.72640  0.99820  Biso   1.000  H
  H65      1.0000 0.27360  0.31040  0.99820  Biso   1.000  H
  H66      1.0000 0.68960  0.96320  0.99820  Biso   1.000  H
  H67      1.0000 0.70347  0.05973  0.33153  Biso   1.000  H
  H68      1.0000 0.94027  0.64373  0.33153  Biso   1.000  H
  H69      1.0000 0.35627  0.29653  0.33153  Biso   1.000  H
  H70      1.0000 0.37013  0.39307  0.66487  Biso   1.000  H
  H71      1.0000 0.60693  0.97707  0.66487  Biso   1.000  H
  H72      1.0000 0.02293  0.62987  0.66487  Biso   1.000  H
  C73      1.0000 0.89155  0.41434  0.05880  Biso   1.000  C
  C74      1.0000 0.58566  0.47721  0.05880  Biso   1.000  C
  C75      1.0000 0.52279  0.10845  0.05880  Biso   1.000  C
  C76      1.0000 0.55822  0.74767  0.39213  Biso   1.000  C
  C77      1.0000 0.25233  0.81054  0.39213  Biso   1.000  C
  C78      1.0000 0.18946  0.44178  0.39213  Biso   1.000  C
  C79      1.0000 0.22488  0.08101  0.72547  Biso   1.000  C
  C80      1.0000 0.91899  0.14388  0.72547  Biso   1.000  C
  C81      1.0000 0.85612  0.77512  0.72547  Biso   1.000  C
  C82      1.0000 0.10845  0.58566  0.94120  Biso   1.000  C
  C83      1.0000 0.41434  0.52279  0.94120  Biso   1.000  C
  C84      1.0000 0.47721  0.89155  0.94120  Biso   1.000  C
  C85      1.0000 0.77512  0.91899  0.27453  Biso   1.000  C
  C86      1.0000 0.08101  0.85612  0.27453  Biso   1.000  C
  C87      1.0000 0.14388  0.22488  0.27453  Biso   1.000  C
  C88      1.0000 0.44178  0.25233  0.60787  Biso   1.000  C
  C89      1.0000 0.74767  0.18946  0.60787  Biso   1.000  C
  C90      1.0000 0.81054  0.55822  0.60787  Biso   1.000  C
  C91      1.0000 0.87340  0.43020  0.17610  Biso   1.000  C
  C92      1.0000 0.56980  0.44320  0.17610  Biso   1.000  C
  C93      1.0000 0.55680  0.12660  0.17610  Biso   1.000  C
  C94      1.0000 0.54007  0.76353  0.50943  Biso   1.000  C
  C95      1.0000 0.23647  0.77653  0.50943  Biso   1.000  C
  C96      1.0000 0.22347  0.45993  0.50943  Biso   1.000  C
  C97      1.0000 0.20673  0.09687  0.84277  Biso   1.000  C
  C98      1.0000 0.90313  0.10987  0.84277  Biso   1.000  C
  C99      1.0000 0.89013  0.79327  0.84277  Biso   1.000  C
  C100     1.0000 0.12660  0.56980  0.82390  Biso   1.000  C
  C101     1.0000 0.43020  0.55680  0.82390  Biso   1.000  C
  C102     1.0000 0.44320  0.87340  0.82390  Biso   1.000  C
  C103     1.0000 0.79327  0.90313  0.15723  Biso   1.000  C
  C104     1.0000 0.09687  0.89013  0.15723  Biso   1.000  C
  C105     1.0000 0.10987  0.20673  0.15723  Biso   1.000  C
  C106     1.0000 0.45993  0.23647  0.49057  Biso   1.000  C
  C107     1.0000 0.76353  0.22347  0.49057  Biso   1.000  C
  C108     1.0000 0.77653  0.54007  0.49057  Biso   1.000  C
  H73      1.0000 0.86850  0.40590  0.25220  Biso   1.000  H
  H74      1.0000 0.59410  0.46260  0.25220  Biso   1.000  H
  H75      1.0000 0.53740  0.13150  0.25220  Biso   1.000  H
  H76      1.0000 0.53517  0.73923  0.58553  Biso   1.000  H
  H77      1.0000 0.26077  0.79593  0.58553  Biso   1.000  H
  H78      1.0000 0.20407  0.46483  0.58553  Biso   1.000  H
  H79      1.0000 0.20183  0.07257  0.91887  Biso   1.000  H
  H80      1.0000 0.92743  0.12927  0.91887  Biso   1.000  H
  H81      1.0000 0.87073  0.79817  0.91887  Biso   1.000  H
  H82      1.0000 0.13150  0.59410  0.74780  Biso   1.000  H
  H83      1.0000 0.40590  0.53740  0.74780  Biso   1.000  H
  H84      1.0000 0.46260  0.86850  0.74780  Biso   1.000  H
  H85      1.0000 0.79817  0.92743  0.08113  Biso   1.000  H
  H86      1.0000 0.07257  0.87073  0.08113  Biso   1.000  H
  H87      1.0000 0.12927  0.20183  0.08113  Biso   1.000  H
  H88      1.0000 0.46483  0.26077  0.41447  Biso   1.000  H
  H89      1.0000 0.73923  0.20407  0.41447  Biso   1.000  H
  H90      1.0000 0.79593  0.53517  0.41447  Biso   1.000  H
  O1       1.0000 0.83255  0.58313  0.17920  Biso   1.000  O
  O2       1.0000 0.41687  0.24942  0.17920  Biso   1.000  O
  O3       1.0000 0.75058  0.16745  0.17920  Biso   1.000  O
  O4       1.0000 0.49922  0.91646  0.51253  Biso   1.000  O
  O5       1.0000 0.08354  0.58275  0.51253  Biso   1.000  O
  O6       1.0000 0.41725  0.50078  0.51253  Biso   1.000  O
  O7       1.0000 0.16588  0.24980  0.84587  Biso   1.000  O
  O8       1.0000 0.75020  0.91609  0.84587  Biso   1.000  O
  O9       1.0000 0.08391  0.83412  0.84587  Biso   1.000  O
  O10      1.0000 0.16745  0.41687  0.82080  Biso   1.000  O
  O11      1.0000 0.58313  0.75058  0.82080  Biso   1.000  O
  O12      1.0000 0.24942  0.83255  0.82080  Biso   1.000  O
  O13      1.0000 0.83412  0.75020  0.15413  Biso   1.000  O
  O14      1.0000 0.24980  0.08391  0.15413  Biso   1.000  O
  O15      1.0000 0.91609  0.16588  0.15413  Biso   1.000  O
  O16      1.0000 0.50078  0.08354  0.48747  Biso   1.000  O
  O17      1.0000 0.91646  0.41725  0.48747  Biso   1.000  O
  O18      1.0000 0.58275  0.49922  0.48747  Biso   1.000  O
  O19      1.0000 0.88011  0.61859  0.98320  Biso   1.000  O
  O20      1.0000 0.38141  0.26152  0.98320  Biso   1.000  O
  O21      1.0000 0.73848  0.11989  0.98320  Biso   1.000  O
  O22      1.0000 0.54678  0.95192  0.31653  Biso   1.000  O
  O23      1.0000 0.04808  0.59485  0.31653  Biso   1.000  O
  O24      1.0000 0.40515  0.45322  0.31653  Biso   1.000  O
  O25      1.0000 0.21344  0.28526  0.64987  Biso   1.000  O
  O26      1.0000 0.71474  0.92819  0.64987  Biso   1.000  O
  O27      1.0000 0.07181  0.78656  0.64987  Biso   1.000  O
  O28      1.0000 0.11989  0.38141  0.01680  Biso   1.000  O
  O29      1.0000 0.61859  0.73848  0.01680  Biso   1.000  O
  O30      1.0000 0.26152  0.88011  0.01680  Biso   1.000  O
  O31      1.0000 0.78656  0.71474  0.35013  Biso   1.000  O
  O32      1.0000 0.28526  0.07181  0.35013  Biso   1.000  O
  O33      1.0000 0.92819  0.21344  0.35013  Biso   1.000  O
  O34      1.0000 0.45322  0.04808  0.68347  Biso   1.000  O
  O35      1.0000 0.95192  0.40515  0.68347  Biso   1.000  O
  O36      1.0000 0.59485  0.54678  0.68347  Biso   1.000  O
  C109     1.0000 0.87185  0.52080  0.06910  Biso   1.000  C
  C110     1.0000 0.47920  0.35105  0.06910  Biso   1.000  C
  C111     1.0000 0.64895  0.12815  0.06910  Biso   1.000  C
  C112     1.0000 0.53852  0.85413  0.40243  Biso   1.000  C
  C113     1.0000 0.14587  0.68438  0.40243  Biso   1.000  C
  C114     1.0000 0.31562  0.46148  0.40243  Biso   1.000  C
  C115     1.0000 0.20518  0.18747  0.73577  Biso   1.000  C
  C116     1.0000 0.81253  0.01772  0.73577  Biso   1.000  C
  C117     1.0000 0.98228  0.79482  0.73577  Biso   1.000  C
  C118     1.0000 0.12815  0.47920  0.93090  Biso   1.000  C
  C119     1.0000 0.52080  0.64895  0.93090  Biso   1.000  C
  C120     1.0000 0.35105  0.87185  0.93090  Biso   1.000  C
  C121     1.0000 0.79482  0.81253  0.26423  Biso   1.000  C
  C122     1.0000 0.18747  0.98228  0.26423  Biso   1.000  C
  C123     1.0000 0.01772  0.20518  0.26423  Biso   1.000  C
  C124     1.0000 0.46148  0.14587  0.59757  Biso   1.000  C
  C125     1.0000 0.85413  0.31562  0.59757  Biso   1.000  C
  C126     1.0000 0.68438  0.53852  0.59757  Biso   1.000  C
  C127     1.0000 0.86154  0.57853  0.07500  Biso   1.000  C
  C128     1.0000 0.42147  0.28301  0.07500  Biso   1.000  C
  C129     1.0000 0.71699  0.13846  0.07500  Biso   1.000  C
  C130     1.0000 0.52821  0.91186  0.40833  Biso   1.000  C
  C131     1.0000 0.08814  0.61634  0.40833  Biso   1.000  C
  C132     1.0000 0.38366  0.47179  0.40833  Biso   1.000  C
  C133     1.0000 0.19487  0.24520  0.74167  Biso   1.000  C
  C134     1.0000 0.75480  0.94968  0.74167  Biso   1.000  C
  C135     1.0000 0.05032  0.80513  0.74167  Biso   1.000  C
  C136     1.0000 0.13846  0.42147  0.92500  Biso   1.000  C
  C137     1.0000 0.57853  0.71699  0.92500  Biso   1.000  C
  C138     1.0000 0.28301  0.86154  0.92500  Biso   1.000  C
  C139     1.0000 0.80513  0.75480  0.25833  Biso   1.000  C
  C140     1.0000 0.24520  0.05032  0.25833  Biso   1.000  C
  C141     1.0000 0.94968  0.19487  0.25833  Biso   1.000  C
  C142     1.0000 0.47179  0.08814  0.59167  Biso   1.000  C
  C143     1.0000 0.91186  0.38366  0.59167  Biso   1.000  C
  C144     1.0000 0.61634  0.52821  0.59167  Biso   1.000  C
  C145     1.0000 0.89298  0.50553  0.95450  Biso   1.000  C
  C146     1.0000 0.49447  0.38745  0.95450  Biso   1.000  C
  C147     1.0000 0.61255  0.10702  0.95450  Biso   1.000  C
  C148     1.0000 0.55965  0.83886  0.28783  Biso   1.000  C
  C149     1.0000 0.16114  0.72078  0.28783  Biso   1.000  C
  C150     1.0000 0.27922  0.44035  0.28783  Biso   1.000  C
  C151     1.0000 0.22631  0.17220  0.62117  Biso   1.000  C
  C152     1.0000 0.82780  0.05412  0.62117  Biso   1.000  C
  C153     1.0000 0.94588  0.77369  0.62117  Biso   1.000  C
  C154     1.0000 0.10702  0.49447  0.04550  Biso   1.000  C
  C155     1.0000 0.50553  0.61255  0.04550  Biso   1.000  C
  C156     1.0000 0.38745  0.89298  0.04550  Biso   1.000  C
  C157     1.0000 0.77369  0.82780  0.37883  Biso   1.000  C
  C158     1.0000 0.17220  0.94588  0.37883  Biso   1.000  C
  C159     1.0000 0.05412  0.22631  0.37883  Biso   1.000  C
  C160     1.0000 0.44035  0.16114  0.71217  Biso   1.000  C
  C161     1.0000 0.83886  0.27922  0.71217  Biso   1.000  C
  C162     1.0000 0.72078  0.55965  0.71217  Biso   1.000  C
  H91      1.0000 0.90090  0.53150  0.87980  Biso   1.000  H
  H92      1.0000 0.46850  0.36940  0.87980  Biso   1.000  H
  H93      1.0000 0.63060  0.09910  0.87980  Biso   1.000  H
  H94      1.0000 0.56757  0.86483  0.21313  Biso   1.000  H
  H95      1.0000 0.13517  0.70273  0.21313  Biso   1.000  H
  H96      1.0000 0.29727  0.43243  0.21313  Biso   1.000  H
  H97      1.0000 0.23423  0.19817  0.54647  Biso   1.000  H
  H98      1.0000 0.80183  0.03607  0.54647  Biso   1.000  H
  H99      1.0000 0.96393  0.76577  0.54647  Biso   1.000  H
  H100     1.0000 0.09910  0.46850  0.12020  Biso   1.000  H
  H101     1.0000 0.53150  0.63060  0.12020  Biso   1.000  H
  H102     1.0000 0.36940  0.90090  0.12020  Biso   1.000  H
  H103     1.0000 0.76577  0.80183  0.45353  Biso   1.000  H
  H104     1.0000 0.19817  0.96393  0.45353  Biso   1.000  H
  H105     1.0000 0.03607  0.23423  0.45353  Biso   1.000  H
  H106     1.0000 0.43243  0.13517  0.78687  Biso   1.000  H
  H107     1.0000 0.86483  0.29727  0.78687  Biso   1.000  H
  H108     1.0000 0.70273  0.56757  0.78687  Biso   1.000  H
  C163     1.0000 0.86230  0.48260  0.17970  Biso   1.000  C
  C164     1.0000 0.51740  0.37970  0.17970  Biso   1.000  C
  C165     1.0000 0.62030  0.13770  0.17970  Biso   1.000  C
  C166     1.0000 0.52897  0.81593  0.51303  Biso   1.000  C
  C167     1.0000 0.18407  0.71303  0.51303  Biso   1.000  C
  C168     1.0000 0.28697  0.47103  0.51303  Biso   1.000  C
  C169     1.0000 0.19563  0.14927  0.84637  Biso   1.000  C
  C170     1.0000 0.85073  0.04637  0.84637  Biso   1.000  C
  C171     1.0000 0.95363  0.80437  0.84637  Biso   1.000  C
  C172     1.0000 0.13770  0.51740  0.82030  Biso   1.000  C
  C173     1.0000 0.48260  0.62030  0.82030  Biso   1.000  C
  C174     1.0000 0.37970  0.86230  0.82030  Biso   1.000  C
  C175     1.0000 0.80437  0.85073  0.15363  Biso   1.000  C
  C176     1.0000 0.14927  0.95363  0.15363  Biso   1.000  C
  C177     1.0000 0.04637  0.19563  0.15363  Biso   1.000  C
  C178     1.0000 0.47103  0.18407  0.48697  Biso   1.000  C
  C179     1.0000 0.81593  0.28697  0.48697  Biso   1.000  C
  C180     1.0000 0.71303  0.52897  0.48697  Biso   1.000  C
  H109     1.0000 0.84820  0.49230  0.25800  Biso   1.000  H
  H110     1.0000 0.50770  0.35590  0.25800  Biso   1.000  H
  H111     1.0000 0.64410  0.15180  0.25800  Biso   1.000  H
  H112     1.0000 0.51487  0.82563  0.59133  Biso   1.000  H
  H113     1.0000 0.17437  0.68923  0.59133  Biso   1.000  H
  H114     1.0000 0.31077  0.48513  0.59133  Biso   1.000  H
  H115     1.0000 0.18153  0.15897  0.92467  Biso   1.000  H
  H116     1.0000 0.84103  0.02257  0.92467  Biso   1.000  H
  H117     1.0000 0.97743  0.81847  0.92467  Biso   1.000  H
  H118     1.0000 0.15180  0.50770  0.74200  Biso   1.000  H
  H119     1.0000 0.49230  0.64410  0.74200  Biso   1.000  H
  H120     1.0000 0.35590  0.84820  0.74200  Biso   1.000  H
  H121     1.0000 0.81847  0.84103  0.07533  Biso   1.000  H
  H122     1.0000 0.15897  0.97743  0.07533  Biso   1.000  H
  H123     1.0000 0.02257  0.18153  0.07533  Biso   1.000  H
  H124     1.0000 0.48513  0.17437  0.40867  Biso   1.000  H
  H125     1.0000 0.82563  0.31077  0.40867  Biso   1.000  H
  H126     1.0000 0.68923  0.51487  0.40867  Biso   1.000  H
