data_image0
_cell_length_a       7.7308
_cell_length_b       8.7036
_cell_length_c       12.9182
_cell_angle_alpha    90
_cell_angle_beta     97.791
_cell_angle_gamma    90

_symmetry_space_group_name_H-M    "P 1"
_symmetry_int_tables_number       1

loop_
  _symmetry_equiv_pos_as_xyz
  'x, y, z'

loop_
  _atom_site_label
  _atom_site_occupancy
  _atom_site_fract_x
  _atom_site_fract_y
  _atom_site_fract_z
  _atom_site_thermal_displace_type
  _atom_site_B_iso_or_equiv
  _atom_site_type_symbol
  Cu1      1.0000 0.00000  0.00000  0.50000  Biso   1.000  Cu
  Cu2      1.0000 0.50000  0.50000  0.00000  Biso   1.000  Cu
  N1       1.0000 0.05760  0.11510  0.37891  Biso   1.000  N
  N2       1.0000 0.44240  0.61510  0.12109  Biso   1.000  N
  N3       1.0000 0.94240  0.88490  0.62109  Biso   1.000  N
  N4       1.0000 0.55760  0.38490  0.87891  Biso   1.000  N
  N5       1.0000 0.04780  0.28740  0.25171  Biso   1.000  N
  N6       1.0000 0.45220  0.78740  0.24829  Biso   1.000  N
  N7       1.0000 0.95220  0.71260  0.74829  Biso   1.000  N
  N8       1.0000 0.54780  0.21260  0.75171  Biso   1.000  N
  H1       1.0000 0.04510  0.37740  0.22400  Biso   1.000  H
  H2       1.0000 0.45490  0.87740  0.27600  Biso   1.000  H
  H3       1.0000 0.95490  0.62260  0.77600  Biso   1.000  H
  H4       1.0000 0.54510  0.12260  0.72400  Biso   1.000  H
  C1       1.0000 0.03920  0.25830  0.35300  Biso   1.000  C
  C2       1.0000 0.46080  0.75830  0.14700  Biso   1.000  C
  C3       1.0000 0.96080  0.74170  0.64700  Biso   1.000  C
  C4       1.0000 0.53920  0.24170  0.85300  Biso   1.000  C
  C5       1.0000 0.07880  0.02600  0.28380  Biso   1.000  C
  C6       1.0000 0.42120  0.52600  0.21620  Biso   1.000  C
  C7       1.0000 0.92120  0.97400  0.71620  Biso   1.000  C
  C8       1.0000 0.57880  0.47400  0.78380  Biso   1.000  C
  H5       1.0000 0.98870  0.94810  0.27060  Biso   1.000  H
  H6       1.0000 0.51130  0.44810  0.22940  Biso   1.000  H
  H7       1.0000 0.01130  0.05190  0.72940  Biso   1.000  H
  H8       1.0000 0.48870  0.55190  0.77060  Biso   1.000  H
  H9       1.0000 0.19210  0.97630  0.29100  Biso   1.000  H
  H10      1.0000 0.30790  0.47630  0.20900  Biso   1.000  H
  H11      1.0000 0.80790  0.02370  0.70900  Biso   1.000  H
  H12      1.0000 0.69210  0.52370  0.79100  Biso   1.000  H
  C9       1.0000 0.06240  0.14360  0.19609  Biso   1.000  C
  C10      1.0000 0.43760  0.64360  0.30391  Biso   1.000  C
  C11      1.0000 0.93760  0.85640  0.80391  Biso   1.000  C
  C12      1.0000 0.56240  0.35640  0.69609  Biso   1.000  C
  H13      1.0000 0.16480  0.14310  0.16020  Biso   1.000  H
  H14      1.0000 0.33520  0.64310  0.33980  Biso   1.000  H
  H15      1.0000 0.83520  0.85690  0.83980  Biso   1.000  H
  H16      1.0000 0.66480  0.35690  0.66020  Biso   1.000  H
  H17      1.0000 0.95940  0.12490  0.14590  Biso   1.000  H
  H18      1.0000 0.54060  0.62490  0.35410  Biso   1.000  H
  H19      1.0000 0.04060  0.87510  0.85410  Biso   1.000  H
  H20      1.0000 0.45940  0.37510  0.64590  Biso   1.000  H
  C13      1.0000 0.01900  0.38290  0.42819  Biso   1.000  C
  C14      1.0000 0.48100  0.88290  0.07181  Biso   1.000  C
  C15      1.0000 0.98100  0.61710  0.57181  Biso   1.000  C
  C16      1.0000 0.51900  0.11710  0.92819  Biso   1.000  C
  C17      1.0000 0.09150  0.36830  0.53245  Biso   1.000  C
  C18      1.0000 0.40850  0.86830  0.96755  Biso   1.000  C
  C19      1.0000 0.90850  0.63170  0.46755  Biso   1.000  C
  C20      1.0000 0.59150  0.13170  0.03245  Biso   1.000  C
  H21      1.0000 0.15340  0.27980  0.55430  Biso   1.000  H
  H22      1.0000 0.34660  0.77980  0.94570  Biso   1.000  H
  H23      1.0000 0.84660  0.72020  0.44570  Biso   1.000  H
  H24      1.0000 0.65340  0.22020  0.05430  Biso   1.000  H
  C21      1.0000 0.92710  0.51670  0.39620  Biso   1.000  C
  C22      1.0000 0.57290  0.01670  0.10380  Biso   1.000  C
  C23      1.0000 0.07290  0.48330  0.60380  Biso   1.000  C
  C24      1.0000 0.42710  0.98330  0.89620  Biso   1.000  C
  H25      1.0000 0.87850  0.52850  0.32670  Biso   1.000  H
  H26      1.0000 0.62150  0.02850  0.17330  Biso   1.000  H
  H27      1.0000 0.12150  0.47150  0.67330  Biso   1.000  H
  H28      1.0000 0.37850  0.97150  0.82670  Biso   1.000  H
  C25      1.0000 0.48150  0.79790  0.58500  Biso   1.000  C
  C26      1.0000 0.01850  0.29790  0.91500  Biso   1.000  C
  C27      1.0000 0.51850  0.20210  0.41500  Biso   1.000  C
  C28      1.0000 0.98150  0.70210  0.08500  Biso   1.000  C
  H29      1.0000 0.56250  0.83290  0.64320  Biso   1.000  H
  H30      1.0000 0.93750  0.33290  0.85680  Biso   1.000  H
  H31      1.0000 0.43750  0.16710  0.35680  Biso   1.000  H
  H32      1.0000 0.06250  0.66710  0.14320  Biso   1.000  H
  H33      1.0000 0.53770  0.79710  0.52310  Biso   1.000  H
  H34      1.0000 0.96230  0.29710  0.97690  Biso   1.000  H
  H35      1.0000 0.46230  0.20290  0.47690  Biso   1.000  H
  H36      1.0000 0.03770  0.70290  0.02310  Biso   1.000  H
  H37      1.0000 0.44320  0.69590  0.59880  Biso   1.000  H
  H38      1.0000 0.05680  0.19590  0.90120  Biso   1.000  H
  H39      1.0000 0.55680  0.30410  0.40120  Biso   1.000  H
  H40      1.0000 0.94320  0.80410  0.09880  Biso   1.000  H
  C29      1.0000 0.32740  0.90360  0.56933  Biso   1.000  C
  C30      1.0000 0.17260  0.40360  0.93067  Biso   1.000  C
  C31      1.0000 0.67260  0.09640  0.43067  Biso   1.000  C
  C32      1.0000 0.82740  0.59640  0.06933  Biso   1.000  C
  O1       1.0000 0.20870  0.87094  0.49467  Biso   1.000  O
  O2       1.0000 0.29130  0.37094  0.00533  Biso   1.000  O
  O3       1.0000 0.79130  0.12906  0.50533  Biso   1.000  O
  O4       1.0000 0.70870  0.62906  0.99467  Biso   1.000  O
  O5       1.0000 0.31830  0.01650  0.62683  Biso   1.000  O
  O6       1.0000 0.18170  0.51650  0.87317  Biso   1.000  O
  O7       1.0000 0.68170  0.98350  0.37317  Biso   1.000  O
  O8       1.0000 0.81830  0.48350  0.12683  Biso   1.000  O
