data_image0
_cell_length_a       20.539
_cell_length_b       20.539
_cell_length_c       6.9994
_cell_angle_alpha    90
_cell_angle_beta     90
_cell_angle_gamma    90

_symmetry_space_group_name_H-M    "P 1"
_symmetry_int_tables_number       1

loop_
  _symmetry_equiv_pos_as_xyz
  'x, y, z'

loop_
  _atom_site_label
  _atom_site_occupancy
  _atom_site_fract_x
  _atom_site_fract_y
  _atom_site_fract_z
  _atom_site_thermal_displace_type
  _atom_site_B_iso_or_equiv
  _atom_site_type_symbol
  C1       1.0000 0.81400  0.01568  0.67760  Biso   1.000  C
  C2       1.0000 0.68600  0.48432  0.67760  Biso   1.000  C
  C3       1.0000 0.98432  0.31400  0.17760  Biso   1.000  C
  C4       1.0000 0.51568  0.18600  0.17760  Biso   1.000  C
  C5       1.0000 0.18600  0.98432  0.32240  Biso   1.000  C
  C6       1.0000 0.31400  0.51568  0.32240  Biso   1.000  C
  C7       1.0000 0.01568  0.68600  0.82240  Biso   1.000  C
  C8       1.0000 0.48432  0.81400  0.82240  Biso   1.000  C
  C9       1.0000 0.79628  0.99024  0.85070  Biso   1.000  C
  C10      1.0000 0.70372  0.50976  0.85070  Biso   1.000  C
  C11      1.0000 0.00976  0.29628  0.35070  Biso   1.000  C
  C12      1.0000 0.49024  0.20372  0.35070  Biso   1.000  C
  C13      1.0000 0.20372  0.00976  0.14930  Biso   1.000  C
  C14      1.0000 0.29628  0.49024  0.14930  Biso   1.000  C
  C15      1.0000 0.99024  0.70372  0.64930  Biso   1.000  C
  C16      1.0000 0.50976  0.79628  0.64930  Biso   1.000  C
  H1       1.0000 0.82830  0.97200  0.93280  Biso   1.000  H
  H2       1.0000 0.67170  0.52800  0.93280  Biso   1.000  H
  H3       1.0000 0.02800  0.32830  0.43280  Biso   1.000  H
  H4       1.0000 0.47200  0.17170  0.43280  Biso   1.000  H
  H5       1.0000 0.17170  0.02800  0.06720  Biso   1.000  H
  H6       1.0000 0.32830  0.47200  0.06720  Biso   1.000  H
  H7       1.0000 0.97200  0.67170  0.56720  Biso   1.000  H
  H8       1.0000 0.52800  0.82830  0.56720  Biso   1.000  H
  C17      1.0000 0.73034  0.99116  0.90650  Biso   1.000  C
  C18      1.0000 0.76966  0.50884  0.90650  Biso   1.000  C
  C19      1.0000 0.00884  0.23034  0.40650  Biso   1.000  C
  C20      1.0000 0.49116  0.26966  0.40650  Biso   1.000  C
  C21      1.0000 0.26966  0.00884  0.09350  Biso   1.000  C
  C22      1.0000 0.23034  0.49116  0.09350  Biso   1.000  C
  C23      1.0000 0.99116  0.76966  0.59350  Biso   1.000  C
  C24      1.0000 0.50884  0.73034  0.59350  Biso   1.000  C
  H9       1.0000 0.71810  0.97180  0.02440  Biso   1.000  H
  H10      1.0000 0.78190  0.52820  0.02440  Biso   1.000  H
  H11      1.0000 0.02820  0.21810  0.52440  Biso   1.000  H
  H12      1.0000 0.47180  0.28190  0.52440  Biso   1.000  H
  H13      1.0000 0.28190  0.02820  0.97560  Biso   1.000  H
  H14      1.0000 0.21810  0.47180  0.97560  Biso   1.000  H
  H15      1.0000 0.97180  0.78190  0.47560  Biso   1.000  H
  H16      1.0000 0.52820  0.71810  0.47560  Biso   1.000  H
  C25      1.0000 0.68323  0.01958  0.79390  Biso   1.000  C
  C26      1.0000 0.81677  0.48042  0.79390  Biso   1.000  C
  C27      1.0000 0.98042  0.18323  0.29390  Biso   1.000  C
  C28      1.0000 0.51958  0.31677  0.29390  Biso   1.000  C
  C29      1.0000 0.31677  0.98042  0.20610  Biso   1.000  C
  C30      1.0000 0.18323  0.51958  0.20610  Biso   1.000  C
  C31      1.0000 0.01958  0.81677  0.70610  Biso   1.000  C
  C32      1.0000 0.48042  0.68323  0.70610  Biso   1.000  C
  C33      1.0000 0.65772  0.08979  0.50650  Biso   1.000  C
  C34      1.0000 0.84228  0.41021  0.50650  Biso   1.000  C
  C35      1.0000 0.91021  0.15772  0.00650  Biso   1.000  C
  C36      1.0000 0.58979  0.34228  0.00650  Biso   1.000  C
  C37      1.0000 0.34228  0.91021  0.49350  Biso   1.000  C
  C38      1.0000 0.15772  0.58979  0.49350  Biso   1.000  C
  C39      1.0000 0.08979  0.84228  0.99350  Biso   1.000  C
  C40      1.0000 0.41021  0.65772  0.99350  Biso   1.000  C
  H17      1.0000 0.61330  0.09300  0.54350  Biso   1.000  H
  H18      1.0000 0.88670  0.40700  0.54350  Biso   1.000  H
  H19      1.0000 0.90700  0.11330  0.04350  Biso   1.000  H
  H20      1.0000 0.59300  0.38670  0.04350  Biso   1.000  H
  H21      1.0000 0.38670  0.90700  0.45650  Biso   1.000  H
  H22      1.0000 0.11330  0.59300  0.45650  Biso   1.000  H
  H23      1.0000 0.09300  0.88670  0.95650  Biso   1.000  H
  H24      1.0000 0.40700  0.61330  0.95650  Biso   1.000  H
  C41      1.0000 0.67831  0.12122  0.34570  Biso   1.000  C
  C42      1.0000 0.82169  0.37878  0.34570  Biso   1.000  C
  C43      1.0000 0.87878  0.17831  0.84570  Biso   1.000  C
  C44      1.0000 0.62122  0.32169  0.84570  Biso   1.000  C
  C45      1.0000 0.32169  0.87878  0.65430  Biso   1.000  C
  C46      1.0000 0.17831  0.62122  0.65430  Biso   1.000  C
  C47      1.0000 0.12122  0.82169  0.15430  Biso   1.000  C
  C48      1.0000 0.37878  0.67831  0.15430  Biso   1.000  C
  H25      1.0000 0.64820  0.14600  0.27280  Biso   1.000  H
  H26      1.0000 0.85180  0.35400  0.27280  Biso   1.000  H
  H27      1.0000 0.85400  0.14820  0.77280  Biso   1.000  H
  H28      1.0000 0.64600  0.35180  0.77280  Biso   1.000  H
  H29      1.0000 0.35180  0.85400  0.72720  Biso   1.000  H
  H30      1.0000 0.14820  0.64600  0.72720  Biso   1.000  H
  H31      1.0000 0.14600  0.85180  0.22720  Biso   1.000  H
  H32      1.0000 0.35400  0.64820  0.22720  Biso   1.000  H
  C49      1.0000 0.74390  0.11735  0.28630  Biso   1.000  C
  C50      1.0000 0.75610  0.38265  0.28630  Biso   1.000  C
  C51      1.0000 0.88265  0.24390  0.78630  Biso   1.000  C
  C52      1.0000 0.61735  0.25610  0.78630  Biso   1.000  C
  C53      1.0000 0.25610  0.88265  0.71370  Biso   1.000  C
  C54      1.0000 0.24390  0.61735  0.71370  Biso   1.000  C
  C55      1.0000 0.11735  0.75610  0.21370  Biso   1.000  C
  C56      1.0000 0.38265  0.74390  0.21370  Biso   1.000  C
  H33      1.0000 0.75770  0.13940  0.17410  Biso   1.000  H
  H34      1.0000 0.74230  0.36060  0.17410  Biso   1.000  H
  H35      1.0000 0.86060  0.25770  0.67410  Biso   1.000  H
  H36      1.0000 0.63940  0.24230  0.67410  Biso   1.000  H
  H37      1.0000 0.24230  0.86060  0.82590  Biso   1.000  H
  H38      1.0000 0.25770  0.63940  0.82590  Biso   1.000  H
  H39      1.0000 0.13940  0.74230  0.32590  Biso   1.000  H
  H40      1.0000 0.36060  0.75770  0.32590  Biso   1.000  H
  C57      1.0000 0.78736  0.08191  0.39040  Biso   1.000  C
  C58      1.0000 0.71264  0.41809  0.39040  Biso   1.000  C
  C59      1.0000 0.91809  0.28736  0.89040  Biso   1.000  C
  C60      1.0000 0.58191  0.21264  0.89040  Biso   1.000  C
  C61      1.0000 0.21264  0.91809  0.60960  Biso   1.000  C
  C62      1.0000 0.28736  0.58191  0.60960  Biso   1.000  C
  C63      1.0000 0.08191  0.71264  0.10960  Biso   1.000  C
  C64      1.0000 0.41809  0.78736  0.10960  Biso   1.000  C
  H41      1.0000 0.83130  0.07910  0.34900  Biso   1.000  H
  H42      1.0000 0.66870  0.42090  0.34900  Biso   1.000  H
  H43      1.0000 0.92090  0.33130  0.84900  Biso   1.000  H
  H44      1.0000 0.57910  0.16870  0.84900  Biso   1.000  H
  H45      1.0000 0.16870  0.92090  0.65100  Biso   1.000  H
  H46      1.0000 0.33130  0.57910  0.65100  Biso   1.000  H
  H47      1.0000 0.07910  0.66870  0.15100  Biso   1.000  H
  H48      1.0000 0.42090  0.83130  0.15100  Biso   1.000  H
  C65      1.0000 0.76798  0.04902  0.56010  Biso   1.000  C
  C66      1.0000 0.73202  0.45098  0.56010  Biso   1.000  C
  C67      1.0000 0.95098  0.26798  0.06010  Biso   1.000  C
  C68      1.0000 0.54902  0.23202  0.06010  Biso   1.000  C
  C69      1.0000 0.23202  0.95098  0.43990  Biso   1.000  C
  C70      1.0000 0.26798  0.54902  0.43990  Biso   1.000  C
  C71      1.0000 0.04902  0.73202  0.93990  Biso   1.000  C
  C72      1.0000 0.45098  0.76798  0.93990  Biso   1.000  C
  C73      1.0000 0.70121  0.05233  0.62000  Biso   1.000  C
  C74      1.0000 0.79879  0.44767  0.62000  Biso   1.000  C
  C75      1.0000 0.94767  0.20121  0.12000  Biso   1.000  C
  C76      1.0000 0.55233  0.29879  0.12000  Biso   1.000  C
  C77      1.0000 0.29879  0.94767  0.38000  Biso   1.000  C
  C78      1.0000 0.20121  0.55233  0.38000  Biso   1.000  C
  C79      1.0000 0.05233  0.79879  0.88000  Biso   1.000  C
  C80      1.0000 0.44767  0.70121  0.88000  Biso   1.000  C
  C81      1.0000 0.88381  0.00810  0.61690  Biso   1.000  C
  C82      1.0000 0.61619  0.49190  0.61690  Biso   1.000  C
  C83      1.0000 0.99190  0.38381  0.11690  Biso   1.000  C
  C84      1.0000 0.50810  0.11619  0.11690  Biso   1.000  C
  C85      1.0000 0.11619  0.99190  0.38310  Biso   1.000  C
  C86      1.0000 0.38381  0.50810  0.38310  Biso   1.000  C
  C87      1.0000 0.00810  0.61619  0.88310  Biso   1.000  C
  C88      1.0000 0.49190  0.88381  0.88310  Biso   1.000  C
  C89      1.0000 0.61429  0.01263  0.86520  Biso   1.000  C
  C90      1.0000 0.88571  0.48737  0.86520  Biso   1.000  C
  C91      1.0000 0.98737  0.11429  0.36520  Biso   1.000  C
  C92      1.0000 0.51263  0.38571  0.36520  Biso   1.000  C
  C93      1.0000 0.38571  0.98737  0.13480  Biso   1.000  C
  C94      1.0000 0.11429  0.51263  0.13480  Biso   1.000  C
  C95      1.0000 0.01263  0.88571  0.63480  Biso   1.000  C
  C96      1.0000 0.48737  0.61429  0.63480  Biso   1.000  C
  O1       1.0000 0.89410  0.98512  0.45160  Biso   1.000  O
  O2       1.0000 0.60590  0.51488  0.45160  Biso   1.000  O
  O3       1.0000 0.01488  0.39410  0.95160  Biso   1.000  O
  O4       1.0000 0.48512  0.10590  0.95160  Biso   1.000  O
  O5       1.0000 0.10590  0.01488  0.54840  Biso   1.000  O
  O6       1.0000 0.39410  0.48512  0.54840  Biso   1.000  O
  O7       1.0000 0.98512  0.60590  0.04840  Biso   1.000  O
  O8       1.0000 0.51488  0.89410  0.04840  Biso   1.000  O
  O9       1.0000 0.92656  0.02481  0.73450  Biso   1.000  O
  O10      1.0000 0.57344  0.47519  0.73450  Biso   1.000  O
  O11      1.0000 0.97519  0.42656  0.23450  Biso   1.000  O
  O12      1.0000 0.52481  0.07344  0.23450  Biso   1.000  O
  O13      1.0000 0.07344  0.97519  0.26550  Biso   1.000  O
  O14      1.0000 0.42656  0.52481  0.26550  Biso   1.000  O
  O15      1.0000 0.02481  0.57344  0.76550  Biso   1.000  O
  O16      1.0000 0.47519  0.92656  0.76550  Biso   1.000  O
  O17      1.0000 0.87697  0.81772  0.07940  Biso   1.000  O
  O18      1.0000 0.62303  0.68228  0.07940  Biso   1.000  O
  O19      1.0000 0.18228  0.37697  0.57940  Biso   1.000  O
  O20      1.0000 0.31772  0.12303  0.57940  Biso   1.000  O
  O21      1.0000 0.12303  0.18228  0.92060  Biso   1.000  O
  O22      1.0000 0.37697  0.31772  0.92060  Biso   1.000  O
  O23      1.0000 0.81772  0.62303  0.42060  Biso   1.000  O
  O24      1.0000 0.68228  0.87697  0.42060  Biso   1.000  O
  O25      1.0000 0.56749  0.02382  0.75080  Biso   1.000  O
  O26      1.0000 0.93251  0.47618  0.75080  Biso   1.000  O
  O27      1.0000 0.97618  0.06749  0.25080  Biso   1.000  O
  O28      1.0000 0.52382  0.43251  0.25080  Biso   1.000  O
  O29      1.0000 0.43251  0.97618  0.24920  Biso   1.000  O
  O30      1.0000 0.06749  0.52382  0.24920  Biso   1.000  O
  O31      1.0000 0.02382  0.93251  0.74920  Biso   1.000  O
  O32      1.0000 0.47618  0.56749  0.74920  Biso   1.000  O
  O33      1.0000 0.81300  0.88140  0.36600  Biso   1.000  O
  O34      1.0000 0.68700  0.61860  0.36600  Biso   1.000  O
  O35      1.0000 0.11860  0.31300  0.86600  Biso   1.000  O
  O36      1.0000 0.38140  0.18700  0.86600  Biso   1.000  O
  O37      1.0000 0.18700  0.11860  0.63400  Biso   1.000  O
  O38      1.0000 0.31300  0.38140  0.63400  Biso   1.000  O
  O39      1.0000 0.88140  0.68700  0.13400  Biso   1.000  O
  O40      1.0000 0.61860  0.81300  0.13400  Biso   1.000  O
  O41      1.0000 0.60741  0.99463  0.03470  Biso   1.000  O
  O42      1.0000 0.89259  0.50537  0.03470  Biso   1.000  O
  O43      1.0000 0.00537  0.10741  0.53470  Biso   1.000  O
  O44      1.0000 0.49463  0.39259  0.53470  Biso   1.000  O
  O45      1.0000 0.39259  0.00537  0.96530  Biso   1.000  O
  O46      1.0000 0.10741  0.49463  0.96530  Biso   1.000  O
  O47      1.0000 0.99463  0.89259  0.46530  Biso   1.000  O
  O48      1.0000 0.50537  0.60741  0.46530  Biso   1.000  O
  O49      1.0000 0.84640  0.80860  0.90080  Biso   1.000  O
  O50      1.0000 0.65360  0.69140  0.90080  Biso   1.000  O
  O51      1.0000 0.19140  0.34640  0.40080  Biso   1.000  O
  O52      1.0000 0.30860  0.15360  0.40080  Biso   1.000  O
  O53      1.0000 0.15360  0.19140  0.09920  Biso   1.000  O
  O54      1.0000 0.34640  0.30860  0.09920  Biso   1.000  O
  O55      1.0000 0.80860  0.65360  0.59920  Biso   1.000  O
  O56      1.0000 0.69140  0.84640  0.59920  Biso   1.000  O
  O57      1.0000 0.81610  0.81790  0.72490  Biso   1.000  O
  O58      1.0000 0.68390  0.68210  0.72490  Biso   1.000  O
  O59      1.0000 0.18210  0.31610  0.22490  Biso   1.000  O
  O60      1.0000 0.31790  0.18390  0.22490  Biso   1.000  O
  O61      1.0000 0.18390  0.18210  0.27510  Biso   1.000  O
  O62      1.0000 0.31610  0.31790  0.27510  Biso   1.000  O
  O63      1.0000 0.81790  0.68390  0.77510  Biso   1.000  O
  O64      1.0000 0.68210  0.81610  0.77510  Biso   1.000  O
  O65      1.0000 0.94535  0.93149  0.08300  Biso   1.000  O
  O66      1.0000 0.55465  0.56851  0.08300  Biso   1.000  O
  O67      1.0000 0.06851  0.44535  0.58300  Biso   1.000  O
  O68      1.0000 0.43149  0.05465  0.58300  Biso   1.000  O
  O69      1.0000 0.05465  0.06851  0.91700  Biso   1.000  O
  O70      1.0000 0.44535  0.43149  0.91700  Biso   1.000  O
  O71      1.0000 0.93149  0.55465  0.41700  Biso   1.000  O
  O72      1.0000 0.56851  0.94535  0.41700  Biso   1.000  O
  Cu1      1.0000 0.98103  0.97609  0.33626  Biso   1.000  Cu
  Cu2      1.0000 0.51897  0.52391  0.33626  Biso   1.000  Cu
  Cu3      1.0000 0.02391  0.48103  0.83626  Biso   1.000  Cu
  Cu4      1.0000 0.47609  0.01897  0.83626  Biso   1.000  Cu
  Cu5      1.0000 0.01897  0.02391  0.66374  Biso   1.000  Cu
  Cu6      1.0000 0.48103  0.47609  0.66374  Biso   1.000  Cu
  Cu7      1.0000 0.97609  0.51897  0.16374  Biso   1.000  Cu
  Cu8      1.0000 0.52391  0.98103  0.16374  Biso   1.000  Cu
  O73      1.0000 0.79840  0.90330  0.28360  Biso   1.000  O
  O74      1.0000 0.70160  0.59670  0.28360  Biso   1.000  O
  O75      1.0000 0.09670  0.29840  0.78360  Biso   1.000  O
  O76      1.0000 0.40330  0.20160  0.78360  Biso   1.000  O
  O77      1.0000 0.20160  0.09670  0.71640  Biso   1.000  O
  O78      1.0000 0.29840  0.40330  0.71640  Biso   1.000  O
  O79      1.0000 0.90330  0.70160  0.21640  Biso   1.000  O
  O80      1.0000 0.59670  0.79840  0.21640  Biso   1.000  O
