data_image0
_cell_length_a       16.1983
_cell_length_b       14.3762
_cell_length_c       12.8497
_cell_angle_alpha    90
_cell_angle_beta     90
_cell_angle_gamma    90

_symmetry_space_group_name_H-M    "P 1"
_symmetry_int_tables_number       1

loop_
  _symmetry_equiv_pos_as_xyz
  'x, y, z'

loop_
  _atom_site_label
  _atom_site_occupancy
  _atom_site_fract_x
  _atom_site_fract_y
  _atom_site_fract_z
  _atom_site_thermal_displace_type
  _atom_site_B_iso_or_equiv
  _atom_site_type_symbol
  C1       1.0000 0.17840  0.38710  0.73720  Biso   1.000  C
  C2       1.0000 0.32160  0.11290  0.23720  Biso   1.000  C
  C3       1.0000 0.67840  0.11290  0.26280  Biso   1.000  C
  C4       1.0000 0.82160  0.38710  0.76280  Biso   1.000  C
  C5       1.0000 0.82160  0.61290  0.26280  Biso   1.000  C
  C6       1.0000 0.67840  0.88710  0.76280  Biso   1.000  C
  C7       1.0000 0.32160  0.88710  0.73720  Biso   1.000  C
  C8       1.0000 0.17840  0.61290  0.23720  Biso   1.000  C
  C9       1.0000 0.24480  0.37220  0.79960  Biso   1.000  C
  C10      1.0000 0.25520  0.12780  0.29960  Biso   1.000  C
  C11      1.0000 0.74480  0.12780  0.20040  Biso   1.000  C
  C12      1.0000 0.75520  0.37220  0.70040  Biso   1.000  C
  C13      1.0000 0.75520  0.62780  0.20040  Biso   1.000  C
  C14      1.0000 0.74480  0.87220  0.70040  Biso   1.000  C
  C15      1.0000 0.25520  0.87220  0.79960  Biso   1.000  C
  C16      1.0000 0.24480  0.62780  0.29960  Biso   1.000  C
  H1       1.0000 0.24580  0.31900  0.84340  Biso   1.000  H
  H2       1.0000 0.25420  0.18100  0.34340  Biso   1.000  H
  H3       1.0000 0.74580  0.18100  0.15660  Biso   1.000  H
  H4       1.0000 0.75420  0.31900  0.65660  Biso   1.000  H
  H5       1.0000 0.75420  0.68100  0.15660  Biso   1.000  H
  H6       1.0000 0.74580  0.81900  0.65660  Biso   1.000  H
  H7       1.0000 0.25420  0.81900  0.84340  Biso   1.000  H
  H8       1.0000 0.24580  0.68100  0.34340  Biso   1.000  H
  C17      1.0000 0.31120  0.43340  0.80040  Biso   1.000  C
  C18      1.0000 0.18880  0.06660  0.30040  Biso   1.000  C
  C19      1.0000 0.81120  0.06660  0.19960  Biso   1.000  C
  C20      1.0000 0.68880  0.43340  0.69960  Biso   1.000  C
  C21      1.0000 0.68880  0.56660  0.19960  Biso   1.000  C
  C22      1.0000 0.81120  0.93340  0.69960  Biso   1.000  C
  C23      1.0000 0.18880  0.93340  0.80040  Biso   1.000  C
  C24      1.0000 0.31120  0.56660  0.30040  Biso   1.000  C
  H9       1.0000 0.35660  0.42180  0.84550  Biso   1.000  H
  H10      1.0000 0.14340  0.07820  0.34550  Biso   1.000  H
  H11      1.0000 0.85660  0.07820  0.15450  Biso   1.000  H
  H12      1.0000 0.64340  0.42180  0.65450  Biso   1.000  H
  H13      1.0000 0.64340  0.57820  0.15450  Biso   1.000  H
  H14      1.0000 0.85660  0.92180  0.65450  Biso   1.000  H
  H15      1.0000 0.14340  0.92180  0.84550  Biso   1.000  H
  H16      1.0000 0.35660  0.57820  0.34550  Biso   1.000  H
  C25      1.0000 0.31240  0.51030  0.73720  Biso   1.000  C
  C26      1.0000 0.18760  0.98970  0.23720  Biso   1.000  C
  C27      1.0000 0.81240  0.98970  0.26280  Biso   1.000  C
  C28      1.0000 0.68760  0.51030  0.76280  Biso   1.000  C
  C29      1.0000 0.68760  0.48970  0.26280  Biso   1.000  C
  C30      1.0000 0.81240  0.01030  0.76280  Biso   1.000  C
  C31      1.0000 0.18760  0.01030  0.73720  Biso   1.000  C
  C32      1.0000 0.31240  0.48970  0.23720  Biso   1.000  C
  C33      1.0000 0.23880  0.61230  0.61050  Biso   1.000  C
  C34      1.0000 0.26120  0.88770  0.11050  Biso   1.000  C
  C35      1.0000 0.73880  0.88770  0.38950  Biso   1.000  C
  C36      1.0000 0.76120  0.61230  0.88950  Biso   1.000  C
  C37      1.0000 0.76120  0.38770  0.38950  Biso   1.000  C
  C38      1.0000 0.73880  0.11230  0.88950  Biso   1.000  C
  C39      1.0000 0.26120  0.11230  0.61050  Biso   1.000  C
  C40      1.0000 0.23880  0.38770  0.11050  Biso   1.000  C
  H17      1.0000 0.28450  0.65370  0.60890  Biso   1.000  H
  H18      1.0000 0.21550  0.84630  0.10890  Biso   1.000  H
  H19      1.0000 0.78450  0.84630  0.39110  Biso   1.000  H
  H20      1.0000 0.71550  0.65370  0.89110  Biso   1.000  H
  H21      1.0000 0.71550  0.34630  0.39110  Biso   1.000  H
  H22      1.0000 0.78450  0.15370  0.89110  Biso   1.000  H
  H23      1.0000 0.21550  0.15370  0.60890  Biso   1.000  H
  H24      1.0000 0.28450  0.34630  0.10890  Biso   1.000  H
  C41      1.0000 0.16870  0.63360  0.55550  Biso   1.000  C
  C42      1.0000 0.33130  0.86640  0.05550  Biso   1.000  C
  C43      1.0000 0.66870  0.86640  0.44450  Biso   1.000  C
  C44      1.0000 0.83130  0.63360  0.94450  Biso   1.000  C
  C45      1.0000 0.83130  0.36640  0.44450  Biso   1.000  C
  C46      1.0000 0.66870  0.13360  0.94450  Biso   1.000  C
  C47      1.0000 0.33130  0.13360  0.55550  Biso   1.000  C
  C48      1.0000 0.16870  0.36640  0.05550  Biso   1.000  C
  H25      1.0000 0.16660  0.68930  0.51590  Biso   1.000  H
  H26      1.0000 0.33340  0.81070  0.01590  Biso   1.000  H
  H27      1.0000 0.66660  0.81070  0.48410  Biso   1.000  H
  H28      1.0000 0.83340  0.68930  0.98410  Biso   1.000  H
  H29      1.0000 0.83340  0.31070  0.48410  Biso   1.000  H
  H30      1.0000 0.66660  0.18930  0.98410  Biso   1.000  H
  H31      1.0000 0.33340  0.18930  0.51590  Biso   1.000  H
  H32      1.0000 0.16660  0.31070  0.01590  Biso   1.000  H
  C49      1.0000 0.09970  0.57350  0.55720  Biso   1.000  C
  C50      1.0000 0.40030  0.92650  0.05720  Biso   1.000  C
  C51      1.0000 0.59970  0.92650  0.44280  Biso   1.000  C
  C52      1.0000 0.90030  0.57350  0.94280  Biso   1.000  C
  C53      1.0000 0.90030  0.42650  0.44280  Biso   1.000  C
  C54      1.0000 0.59970  0.07350  0.94280  Biso   1.000  C
  C55      1.0000 0.40030  0.07350  0.55720  Biso   1.000  C
  C56      1.0000 0.09970  0.42650  0.05720  Biso   1.000  C
  H33      1.0000 0.05120  0.58900  0.51930  Biso   1.000  H
  H34      1.0000 0.44880  0.91100  0.01930  Biso   1.000  H
  H35      1.0000 0.55120  0.91100  0.48070  Biso   1.000  H
  H36      1.0000 0.94880  0.58900  0.98070  Biso   1.000  H
  H37      1.0000 0.94880  0.41100  0.48070  Biso   1.000  H
  H38      1.0000 0.55120  0.08900  0.98070  Biso   1.000  H
  H39      1.0000 0.44880  0.08900  0.51930  Biso   1.000  H
  H40      1.0000 0.05120  0.41100  0.01930  Biso   1.000  H
  C57      1.0000 0.10300  0.49290  0.61340  Biso   1.000  C
  C58      1.0000 0.39700  0.00710  0.11340  Biso   1.000  C
  C59      1.0000 0.60300  0.00710  0.38660  Biso   1.000  C
  C60      1.0000 0.89700  0.49290  0.88660  Biso   1.000  C
  C61      1.0000 0.89700  0.50710  0.38660  Biso   1.000  C
  C62      1.0000 0.60300  0.99290  0.88660  Biso   1.000  C
  C63      1.0000 0.39700  0.99290  0.61340  Biso   1.000  C
  C64      1.0000 0.10300  0.50710  0.11340  Biso   1.000  C
  H41      1.0000 0.05650  0.45260  0.61410  Biso   1.000  H
  H42      1.0000 0.44350  0.04740  0.11410  Biso   1.000  H
  H43      1.0000 0.55650  0.04740  0.38590  Biso   1.000  H
  H44      1.0000 0.94350  0.45260  0.88590  Biso   1.000  H
  H45      1.0000 0.94350  0.54740  0.38590  Biso   1.000  H
  H46      1.0000 0.55650  0.95260  0.88590  Biso   1.000  H
  H47      1.0000 0.44350  0.95260  0.61410  Biso   1.000  H
  H48      1.0000 0.05650  0.54740  0.11410  Biso   1.000  H
  C65      1.0000 0.17530  0.46810  0.67140  Biso   1.000  C
  C66      1.0000 0.32470  0.03190  0.17140  Biso   1.000  C
  C67      1.0000 0.67530  0.03190  0.32860  Biso   1.000  C
  C68      1.0000 0.82470  0.46810  0.82860  Biso   1.000  C
  C69      1.0000 0.82470  0.53190  0.32860  Biso   1.000  C
  C70      1.0000 0.67530  0.96810  0.82860  Biso   1.000  C
  C71      1.0000 0.32470  0.96810  0.67140  Biso   1.000  C
  C72      1.0000 0.17530  0.53190  0.17140  Biso   1.000  C
  C73      1.0000 0.24370  0.53030  0.66920  Biso   1.000  C
  C74      1.0000 0.25630  0.96970  0.16920  Biso   1.000  C
  C75      1.0000 0.74370  0.96970  0.33080  Biso   1.000  C
  C76      1.0000 0.75630  0.53030  0.83080  Biso   1.000  C
  C77      1.0000 0.75630  0.46970  0.33080  Biso   1.000  C
  C78      1.0000 0.74370  0.03030  0.83080  Biso   1.000  C
  C79      1.0000 0.25630  0.03030  0.66920  Biso   1.000  C
  C80      1.0000 0.24370  0.46970  0.16920  Biso   1.000  C
  C81      1.0000 0.11030  0.31730  0.74060  Biso   1.000  C
  C82      1.0000 0.38970  0.18270  0.24060  Biso   1.000  C
  C83      1.0000 0.61030  0.18270  0.25940  Biso   1.000  C
  C84      1.0000 0.88970  0.31730  0.75940  Biso   1.000  C
  C85      1.0000 0.88970  0.68270  0.25940  Biso   1.000  C
  C86      1.0000 0.61030  0.81730  0.75940  Biso   1.000  C
  C87      1.0000 0.38970  0.81730  0.74060  Biso   1.000  C
  C88      1.0000 0.11030  0.68270  0.24060  Biso   1.000  C
  C89      1.0000 0.38580  0.57460  0.74050  Biso   1.000  C
  C90      1.0000 0.11420  0.92540  0.24050  Biso   1.000  C
  C91      1.0000 0.88580  0.92540  0.25950  Biso   1.000  C
  C92      1.0000 0.61420  0.57460  0.75950  Biso   1.000  C
  C93      1.0000 0.61420  0.42540  0.25950  Biso   1.000  C
  C94      1.0000 0.88580  0.07460  0.75950  Biso   1.000  C
  C95      1.0000 0.11420  0.07460  0.74050  Biso   1.000  C
  C96      1.0000 0.38580  0.42540  0.24050  Biso   1.000  C
  C97      1.0000 0.95620  0.12270  0.42140  Biso   1.000  C
  C98      1.0000 0.54380  0.37730  0.92140  Biso   1.000  C
  C99      1.0000 0.45620  0.37730  0.57860  Biso   1.000  C
  C100     1.0000 0.04380  0.12270  0.07860  Biso   1.000  C
  C101     1.0000 0.04380  0.87730  0.57860  Biso   1.000  C
  C102     1.0000 0.45620  0.62270  0.07860  Biso   1.000  C
  C103     1.0000 0.54380  0.62270  0.42140  Biso   1.000  C
  C104     1.0000 0.95620  0.87730  0.92140  Biso   1.000  C
  H49      1.0000 0.99870  0.07450  0.41470  Biso   1.000  H
  H50      1.0000 0.50130  0.42550  0.91470  Biso   1.000  H
  H51      1.0000 0.49870  0.42550  0.58530  Biso   1.000  H
  H52      1.0000 0.00130  0.07450  0.08530  Biso   1.000  H
  H53      1.0000 0.00130  0.92550  0.58530  Biso   1.000  H
  H54      1.0000 0.49870  0.57450  0.08530  Biso   1.000  H
  H55      1.0000 0.50130  0.57450  0.41470  Biso   1.000  H
  H56      1.0000 0.99870  0.92550  0.91470  Biso   1.000  H
  H57      1.0000 0.94160  0.14610  0.35220  Biso   1.000  H
  H58      1.0000 0.55840  0.35390  0.85220  Biso   1.000  H
  H59      1.0000 0.44160  0.35390  0.64780  Biso   1.000  H
  H60      1.0000 0.05840  0.14610  0.14780  Biso   1.000  H
  H61      1.0000 0.05840  0.85390  0.64780  Biso   1.000  H
  H62      1.0000 0.44160  0.64610  0.14780  Biso   1.000  H
  H63      1.0000 0.55840  0.64610  0.35220  Biso   1.000  H
  H64      1.0000 0.94160  0.85390  0.85220  Biso   1.000  H
  H65      1.0000 0.90710  0.09620  0.45460  Biso   1.000  H
  H66      1.0000 0.59290  0.40380  0.95460  Biso   1.000  H
  H67      1.0000 0.40710  0.40380  0.54540  Biso   1.000  H
  H68      1.0000 0.09290  0.09620  0.04540  Biso   1.000  H
  H69      1.0000 0.09290  0.90380  0.54540  Biso   1.000  H
  H70      1.0000 0.40710  0.59620  0.04540  Biso   1.000  H
  H71      1.0000 0.59290  0.59620  0.45460  Biso   1.000  H
  H72      1.0000 0.90710  0.90380  0.95460  Biso   1.000  H
  C105     1.0000 0.14760  0.36100  0.37280  Biso   1.000  C
  C106     1.0000 0.35240  0.13900  0.87280  Biso   1.000  C
  C107     1.0000 0.64760  0.13900  0.62720  Biso   1.000  C
  C108     1.0000 0.85240  0.36100  0.12720  Biso   1.000  C
  C109     1.0000 0.85240  0.63900  0.62720  Biso   1.000  C
  C110     1.0000 0.64760  0.86100  0.12720  Biso   1.000  C
  C111     1.0000 0.35240  0.86100  0.37280  Biso   1.000  C
  C112     1.0000 0.14760  0.63900  0.87280  Biso   1.000  C
  H73      1.0000 0.12070  0.41740  0.39890  Biso   1.000  H
  H74      1.0000 0.37930  0.08260  0.89890  Biso   1.000  H
  H75      1.0000 0.62070  0.08260  0.60110  Biso   1.000  H
  H76      1.0000 0.87930  0.41740  0.10110  Biso   1.000  H
  H77      1.0000 0.87930  0.58260  0.60110  Biso   1.000  H
  H78      1.0000 0.62070  0.91740  0.10110  Biso   1.000  H
  H79      1.0000 0.37930  0.91740  0.39890  Biso   1.000  H
  H80      1.0000 0.12070  0.58260  0.89890  Biso   1.000  H
  H81      1.0000 0.12690  0.34680  0.30290  Biso   1.000  H
  H82      1.0000 0.37310  0.15320  0.80290  Biso   1.000  H
  H83      1.0000 0.62690  0.15320  0.69710  Biso   1.000  H
  H84      1.0000 0.87310  0.34680  0.19710  Biso   1.000  H
  H85      1.0000 0.87310  0.65320  0.69710  Biso   1.000  H
  H86      1.0000 0.62690  0.84680  0.19710  Biso   1.000  H
  H87      1.0000 0.37310  0.84680  0.30290  Biso   1.000  H
  H88      1.0000 0.12690  0.65320  0.80290  Biso   1.000  H
  H89      1.0000 0.20740  0.37080  0.36990  Biso   1.000  H
  H90      1.0000 0.29260  0.12920  0.86990  Biso   1.000  H
  H91      1.0000 0.70740  0.12920  0.63010  Biso   1.000  H
  H92      1.0000 0.79260  0.37080  0.13010  Biso   1.000  H
  H93      1.0000 0.79260  0.62920  0.63010  Biso   1.000  H
  H94      1.0000 0.70740  0.87080  0.13010  Biso   1.000  H
  H95      1.0000 0.29260  0.87080  0.36990  Biso   1.000  H
  H96      1.0000 0.20740  0.62920  0.86990  Biso   1.000  H
  O1       1.0000 0.08170  0.28840  0.65340  Biso   1.000  O
  O2       1.0000 0.41830  0.21160  0.15340  Biso   1.000  O
  O3       1.0000 0.58170  0.21160  0.34660  Biso   1.000  O
  O4       1.0000 0.91830  0.28840  0.84660  Biso   1.000  O
  O5       1.0000 0.91830  0.71160  0.34660  Biso   1.000  O
  O6       1.0000 0.58170  0.78840  0.84660  Biso   1.000  O
  O7       1.0000 0.41830  0.78840  0.65340  Biso   1.000  O
  O8       1.0000 0.08170  0.71160  0.15340  Biso   1.000  O
  O9       1.0000 0.08710  0.28950  0.82820  Biso   1.000  O
  O10      1.0000 0.41290  0.21050  0.32820  Biso   1.000  O
  O11      1.0000 0.58710  0.21050  0.17180  Biso   1.000  O
  O12      1.0000 0.91290  0.28950  0.67180  Biso   1.000  O
  O13      1.0000 0.91290  0.71050  0.17180  Biso   1.000  O
  O14      1.0000 0.58710  0.78950  0.67180  Biso   1.000  O
  O15      1.0000 0.41290  0.78950  0.82820  Biso   1.000  O
  O16      1.0000 0.08710  0.71050  0.32820  Biso   1.000  O
  O17      1.0000 0.41870  0.59760  0.65680  Biso   1.000  O
  O18      1.0000 0.08130  0.90240  0.15680  Biso   1.000  O
  O19      1.0000 0.91870  0.90240  0.34320  Biso   1.000  O
  O20      1.0000 0.58130  0.59760  0.84320  Biso   1.000  O
  O21      1.0000 0.58130  0.40240  0.34320  Biso   1.000  O
  O22      1.0000 0.91870  0.09760  0.84320  Biso   1.000  O
  O23      1.0000 0.08130  0.09760  0.65680  Biso   1.000  O
  O24      1.0000 0.41870  0.40240  0.15680  Biso   1.000  O
  O25      1.0000 0.40860  0.59950  0.83040  Biso   1.000  O
  O26      1.0000 0.09140  0.90050  0.33040  Biso   1.000  O
  O27      1.0000 0.90860  0.90050  0.16960  Biso   1.000  O
  O28      1.0000 0.59140  0.59950  0.66960  Biso   1.000  O
  O29      1.0000 0.59140  0.40050  0.16960  Biso   1.000  O
  O30      1.0000 0.90860  0.09950  0.66960  Biso   1.000  O
  O31      1.0000 0.09140  0.09950  0.83040  Biso   1.000  O
  O32      1.0000 0.40860  0.40050  0.33040  Biso   1.000  O
  O33      1.0000 0.98660  0.19600  0.48240  Biso   1.000  O
  O34      1.0000 0.51340  0.30400  0.98240  Biso   1.000  O
  O35      1.0000 0.48660  0.30400  0.51760  Biso   1.000  O
  O36      1.0000 0.01340  0.19600  0.01760  Biso   1.000  O
  O37      1.0000 0.01340  0.80400  0.51760  Biso   1.000  O
  O38      1.0000 0.48660  0.69600  0.01760  Biso   1.000  O
  O39      1.0000 0.51340  0.69600  0.48240  Biso   1.000  O
  O40      1.0000 0.98660  0.80400  0.98240  Biso   1.000  O
  O41      1.0000 0.12990  0.28560  0.44040  Biso   1.000  O
  O42      1.0000 0.37010  0.21440  0.94040  Biso   1.000  O
  O43      1.0000 0.62990  0.21440  0.55960  Biso   1.000  O
  O44      1.0000 0.87010  0.28560  0.05960  Biso   1.000  O
  O45      1.0000 0.87010  0.71440  0.55960  Biso   1.000  O
  O46      1.0000 0.62990  0.78560  0.05960  Biso   1.000  O
  O47      1.0000 0.37010  0.78560  0.44040  Biso   1.000  O
  O48      1.0000 0.12990  0.71440  0.94040  Biso   1.000  O
  H97      1.0000 0.16320  0.28600  0.49040  Biso   1.000  H
  H98      1.0000 0.33680  0.21400  0.99040  Biso   1.000  H
  H99      1.0000 0.66320  0.21400  0.50960  Biso   1.000  H
  H100     1.0000 0.83680  0.28600  0.00960  Biso   1.000  H
  H101     1.0000 0.83680  0.71400  0.50960  Biso   1.000  H
  H102     1.0000 0.66320  0.78600  0.00960  Biso   1.000  H
  H103     1.0000 0.33680  0.78600  0.49040  Biso   1.000  H
  H104     1.0000 0.16320  0.71400  0.99040  Biso   1.000  H
  Cu1      1.0000 0.99480  0.19232  0.64825  Biso   1.000  Cu
  Cu2      1.0000 0.50520  0.30768  0.14825  Biso   1.000  Cu
  Cu3      1.0000 0.49480  0.30768  0.35175  Biso   1.000  Cu
  Cu4      1.0000 0.00520  0.19232  0.85175  Biso   1.000  Cu
  Cu5      1.0000 0.00520  0.80768  0.35175  Biso   1.000  Cu
  Cu6      1.0000 0.49480  0.69232  0.85175  Biso   1.000  Cu
  Cu7      1.0000 0.50520  0.69232  0.64825  Biso   1.000  Cu
  Cu8      1.0000 0.99480  0.80768  0.14825  Biso   1.000  Cu
  H105     1.0000 0.02500  0.23400  0.44500  Biso   1.000  H
  H106     1.0000 0.47500  0.26600  0.94500  Biso   1.000  H
  H107     1.0000 0.52500  0.26600  0.55500  Biso   1.000  H
  H108     1.0000 0.97500  0.23400  0.05500  Biso   1.000  H
  H109     1.0000 0.97500  0.76600  0.55500  Biso   1.000  H
  H110     1.0000 0.52500  0.73400  0.05500  Biso   1.000  H
  H111     1.0000 0.47500  0.73400  0.44500  Biso   1.000  H
  H112     1.0000 0.02500  0.76600  0.94500  Biso   1.000  H
