data_image0
_cell_length_a       10.8058
_cell_length_b       10.8058
_cell_length_c       14.2168
_cell_angle_alpha    90
_cell_angle_beta     90
_cell_angle_gamma    90

_symmetry_space_group_name_H-M    "P 1"
_symmetry_int_tables_number       1

loop_
  _symmetry_equiv_pos_as_xyz
  'x, y, z'

loop_
  _atom_site_label
  _atom_site_occupancy
  _atom_site_fract_x
  _atom_site_fract_y
  _atom_site_fract_z
  _atom_site_thermal_displace_type
  _atom_site_B_iso_or_equiv
  _atom_site_type_symbol
  Cu1      1.0000 0.50000  0.50000  0.40784  Biso   1.000  Cu
  Cu2      1.0000 0.50000  0.50000  0.59216  Biso   1.000  Cu
  Cu3      1.0000 0.00000  0.00000  0.90784  Biso   1.000  Cu
  Cu4      1.0000 0.00000  0.00000  0.09216  Biso   1.000  Cu
  O1       1.0000 0.50000  0.67850  0.42150  Biso   1.000  O
  O2       1.0000 0.32150  0.50000  0.42150  Biso   1.000  O
  O3       1.0000 0.50000  0.32150  0.42150  Biso   1.000  O
  O4       1.0000 0.67850  0.50000  0.42150  Biso   1.000  O
  O5       1.0000 0.50000  0.32150  0.57850  Biso   1.000  O
  O6       1.0000 0.67850  0.50000  0.57850  Biso   1.000  O
  O7       1.0000 0.50000  0.67850  0.57850  Biso   1.000  O
  O8       1.0000 0.32150  0.50000  0.57850  Biso   1.000  O
  O9       1.0000 0.00000  0.17850  0.92150  Biso   1.000  O
  O10      1.0000 0.82150  0.00000  0.92150  Biso   1.000  O
  O11      1.0000 0.00000  0.82150  0.92150  Biso   1.000  O
  O12      1.0000 0.17850  0.00000  0.92150  Biso   1.000  O
  O13      1.0000 0.00000  0.82150  0.07850  Biso   1.000  O
  O14      1.0000 0.17850  0.00000  0.07850  Biso   1.000  O
  O15      1.0000 0.00000  0.17850  0.07850  Biso   1.000  O
  O16      1.0000 0.82150  0.00000  0.07850  Biso   1.000  O
  O17      1.0000 0.50000  0.50000  0.26010  Biso   1.000  O
  O18      1.0000 0.50000  0.50000  0.73990  Biso   1.000  O
  O19      1.0000 0.00000  0.00000  0.76010  Biso   1.000  O
  O20      1.0000 0.00000  0.00000  0.23990  Biso   1.000  O
  C1       1.0000 0.50000  0.73300  0.50000  Biso   1.000  C
  C2       1.0000 0.26700  0.50000  0.50000  Biso   1.000  C
  C3       1.0000 0.50000  0.26700  0.50000  Biso   1.000  C
  C4       1.0000 0.73300  0.50000  0.50000  Biso   1.000  C
  C5       1.0000 0.00000  0.23300  0.00000  Biso   1.000  C
  C6       1.0000 0.76700  0.00000  0.00000  Biso   1.000  C
  C7       1.0000 0.00000  0.76700  0.00000  Biso   1.000  C
  C8       1.0000 0.23300  0.00000  0.00000  Biso   1.000  C
  C9       1.0000 0.50000  0.87110  0.50000  Biso   1.000  C
  C10      1.0000 0.12890  0.50000  0.50000  Biso   1.000  C
  C11      1.0000 0.50000  0.12890  0.50000  Biso   1.000  C
  C12      1.0000 0.87110  0.50000  0.50000  Biso   1.000  C
  C13      1.0000 0.00000  0.37110  0.00000  Biso   1.000  C
  C14      1.0000 0.62890  0.00000  0.00000  Biso   1.000  C
  C15      1.0000 0.00000  0.62890  0.00000  Biso   1.000  C
  C16      1.0000 0.37110  0.00000  0.00000  Biso   1.000  C
  C17      1.0000 0.43180  0.93540  0.43160  Biso   1.000  C
  C18      1.0000 0.06460  0.43180  0.43160  Biso   1.000  C
  C19      1.0000 0.56820  0.06460  0.43160  Biso   1.000  C
  C20      1.0000 0.93540  0.56820  0.43160  Biso   1.000  C
  C21      1.0000 0.43180  0.06460  0.56840  Biso   1.000  C
  C22      1.0000 0.93540  0.43180  0.56840  Biso   1.000  C
  C23      1.0000 0.56820  0.93540  0.56840  Biso   1.000  C
  C24      1.0000 0.06460  0.56820  0.56840  Biso   1.000  C
  C25      1.0000 0.93180  0.43540  0.93160  Biso   1.000  C
  C26      1.0000 0.56460  0.93180  0.93160  Biso   1.000  C
  C27      1.0000 0.06820  0.56460  0.93160  Biso   1.000  C
  C28      1.0000 0.43540  0.06820  0.93160  Biso   1.000  C
  C29      1.0000 0.93180  0.56460  0.06840  Biso   1.000  C
  C30      1.0000 0.43540  0.93180  0.06840  Biso   1.000  C
  C31      1.0000 0.06820  0.43540  0.06840  Biso   1.000  C
  C32      1.0000 0.56460  0.06820  0.06840  Biso   1.000  C
  C33      1.0000 0.56820  0.06460  0.56840  Biso   1.000  C
  C34      1.0000 0.93540  0.56820  0.56840  Biso   1.000  C
  C35      1.0000 0.43180  0.93540  0.56840  Biso   1.000  C
  C36      1.0000 0.06460  0.43180  0.56840  Biso   1.000  C
  C37      1.0000 0.56820  0.93540  0.43160  Biso   1.000  C
  C38      1.0000 0.06460  0.56820  0.43160  Biso   1.000  C
  C39      1.0000 0.43180  0.06460  0.43160  Biso   1.000  C
  C40      1.0000 0.93540  0.43180  0.43160  Biso   1.000  C
  C41      1.0000 0.06820  0.56460  0.06840  Biso   1.000  C
  C42      1.0000 0.43540  0.06820  0.06840  Biso   1.000  C
  C43      1.0000 0.93180  0.43540  0.06840  Biso   1.000  C
  C44      1.0000 0.56460  0.93180  0.06840  Biso   1.000  C
  C45      1.0000 0.06820  0.43540  0.93160  Biso   1.000  C
  C46      1.0000 0.56460  0.06820  0.93160  Biso   1.000  C
  C47      1.0000 0.93180  0.56460  0.93160  Biso   1.000  C
  C48      1.0000 0.43540  0.93180  0.93160  Biso   1.000  C
  C49      1.0000 0.34900  0.87100  0.36840  Biso   1.000  C
  C50      1.0000 0.12900  0.34900  0.36840  Biso   1.000  C
  C51      1.0000 0.65100  0.12900  0.36840  Biso   1.000  C
  C52      1.0000 0.87100  0.65100  0.36840  Biso   1.000  C
  C53      1.0000 0.34900  0.12900  0.63160  Biso   1.000  C
  C54      1.0000 0.87100  0.34900  0.63160  Biso   1.000  C
  C55      1.0000 0.65100  0.87100  0.63160  Biso   1.000  C
  C56      1.0000 0.12900  0.65100  0.63160  Biso   1.000  C
  C57      1.0000 0.84900  0.37100  0.86840  Biso   1.000  C
  C58      1.0000 0.62900  0.84900  0.86840  Biso   1.000  C
  C59      1.0000 0.15100  0.62900  0.86840  Biso   1.000  C
  C60      1.0000 0.37100  0.15100  0.86840  Biso   1.000  C
  C61      1.0000 0.84900  0.62900  0.13160  Biso   1.000  C
  C62      1.0000 0.37100  0.84900  0.13160  Biso   1.000  C
  C63      1.0000 0.15100  0.37100  0.13160  Biso   1.000  C
  C64      1.0000 0.62900  0.15100  0.13160  Biso   1.000  C
  C65      1.0000 0.65100  0.12900  0.63160  Biso   1.000  C
  C66      1.0000 0.87100  0.65100  0.63160  Biso   1.000  C
  C67      1.0000 0.34900  0.87100  0.63160  Biso   1.000  C
  C68      1.0000 0.12900  0.34900  0.63160  Biso   1.000  C
  C69      1.0000 0.65100  0.87100  0.36840  Biso   1.000  C
  C70      1.0000 0.12900  0.65100  0.36840  Biso   1.000  C
  C71      1.0000 0.34900  0.12900  0.36840  Biso   1.000  C
  C72      1.0000 0.87100  0.34900  0.36840  Biso   1.000  C
  C73      1.0000 0.15100  0.62900  0.13160  Biso   1.000  C
  C74      1.0000 0.37100  0.15100  0.13160  Biso   1.000  C
  C75      1.0000 0.84900  0.37100  0.13160  Biso   1.000  C
  C76      1.0000 0.62900  0.84900  0.13160  Biso   1.000  C
  C77      1.0000 0.15100  0.37100  0.86840  Biso   1.000  C
  C78      1.0000 0.62900  0.15100  0.86840  Biso   1.000  C
  C79      1.0000 0.84900  0.62900  0.86840  Biso   1.000  C
  C80      1.0000 0.37100  0.84900  0.86840  Biso   1.000  C
  H1       1.0000 0.35140  0.78480  0.36520  Biso   1.000  H
  H2       1.0000 0.21520  0.35140  0.36520  Biso   1.000  H
  H3       1.0000 0.64860  0.21520  0.36520  Biso   1.000  H
  H4       1.0000 0.78480  0.64860  0.36520  Biso   1.000  H
  H5       1.0000 0.35140  0.21520  0.63480  Biso   1.000  H
  H6       1.0000 0.78480  0.35140  0.63480  Biso   1.000  H
  H7       1.0000 0.64860  0.78480  0.63480  Biso   1.000  H
  H8       1.0000 0.21520  0.64860  0.63480  Biso   1.000  H
  H9       1.0000 0.85140  0.28480  0.86520  Biso   1.000  H
  H10      1.0000 0.71520  0.85140  0.86520  Biso   1.000  H
  H11      1.0000 0.14860  0.71520  0.86520  Biso   1.000  H
  H12      1.0000 0.28480  0.14860  0.86520  Biso   1.000  H
  H13      1.0000 0.85140  0.71520  0.13480  Biso   1.000  H
  H14      1.0000 0.28480  0.85140  0.13480  Biso   1.000  H
  H15      1.0000 0.14860  0.28480  0.13480  Biso   1.000  H
  H16      1.0000 0.71520  0.14860  0.13480  Biso   1.000  H
  H17      1.0000 0.64860  0.21520  0.63480  Biso   1.000  H
  H18      1.0000 0.78480  0.64860  0.63480  Biso   1.000  H
  H19      1.0000 0.35140  0.78480  0.63480  Biso   1.000  H
  H20      1.0000 0.21520  0.35140  0.63480  Biso   1.000  H
  H21      1.0000 0.64860  0.78480  0.36520  Biso   1.000  H
  H22      1.0000 0.21520  0.64860  0.36520  Biso   1.000  H
  H23      1.0000 0.35140  0.21520  0.36520  Biso   1.000  H
  H24      1.0000 0.78480  0.35140  0.36520  Biso   1.000  H
  H25      1.0000 0.14860  0.71520  0.13480  Biso   1.000  H
  H26      1.0000 0.28480  0.14860  0.13480  Biso   1.000  H
  H27      1.0000 0.85140  0.28480  0.13480  Biso   1.000  H
  H28      1.0000 0.71520  0.85140  0.13480  Biso   1.000  H
  H29      1.0000 0.14860  0.28480  0.86520  Biso   1.000  H
  H30      1.0000 0.71520  0.14860  0.86520  Biso   1.000  H
  H31      1.0000 0.85140  0.71520  0.86520  Biso   1.000  H
  H32      1.0000 0.28480  0.85140  0.86520  Biso   1.000  H
  C81      1.0000 0.26600  0.93600  0.31230  Biso   1.000  C
  C82      1.0000 0.06400  0.26600  0.31230  Biso   1.000  C
  C83      1.0000 0.73400  0.06400  0.31230  Biso   1.000  C
  C84      1.0000 0.93600  0.73400  0.31230  Biso   1.000  C
  C85      1.0000 0.26600  0.06400  0.68770  Biso   1.000  C
  C86      1.0000 0.93600  0.26600  0.68770  Biso   1.000  C
  C87      1.0000 0.73400  0.93600  0.68770  Biso   1.000  C
  C88      1.0000 0.06400  0.73400  0.68770  Biso   1.000  C
  C89      1.0000 0.76600  0.43600  0.81230  Biso   1.000  C
  C90      1.0000 0.56400  0.76600  0.81230  Biso   1.000  C
  C91      1.0000 0.23400  0.56400  0.81230  Biso   1.000  C
  C92      1.0000 0.43600  0.23400  0.81230  Biso   1.000  C
  C93      1.0000 0.76600  0.56400  0.18770  Biso   1.000  C
  C94      1.0000 0.43600  0.76600  0.18770  Biso   1.000  C
  C95      1.0000 0.23400  0.43600  0.18770  Biso   1.000  C
  C96      1.0000 0.56400  0.23400  0.18770  Biso   1.000  C
  C97      1.0000 0.73400  0.06400  0.68770  Biso   1.000  C
  C98      1.0000 0.93600  0.73400  0.68770  Biso   1.000  C
  C99      1.0000 0.26600  0.93600  0.68770  Biso   1.000  C
  C100     1.0000 0.06400  0.26600  0.68770  Biso   1.000  C
  C101     1.0000 0.73400  0.93600  0.31230  Biso   1.000  C
  C102     1.0000 0.06400  0.73400  0.31230  Biso   1.000  C
  C103     1.0000 0.26600  0.06400  0.31230  Biso   1.000  C
  C104     1.0000 0.93600  0.26600  0.31230  Biso   1.000  C
  C105     1.0000 0.23400  0.56400  0.18770  Biso   1.000  C
  C106     1.0000 0.43600  0.23400  0.18770  Biso   1.000  C
  C107     1.0000 0.76600  0.43600  0.18770  Biso   1.000  C
  C108     1.0000 0.56400  0.76600  0.18770  Biso   1.000  C
  C109     1.0000 0.23400  0.43600  0.81230  Biso   1.000  C
  C110     1.0000 0.56400  0.23400  0.81230  Biso   1.000  C
  C111     1.0000 0.76600  0.56400  0.81230  Biso   1.000  C
  C112     1.0000 0.43600  0.76600  0.81230  Biso   1.000  C
  H33      1.0000 0.20980  0.89320  0.27460  Biso   1.000  H
  H34      1.0000 0.10680  0.20980  0.27460  Biso   1.000  H
  H35      1.0000 0.79020  0.10680  0.27460  Biso   1.000  H
  H36      1.0000 0.89320  0.79020  0.27460  Biso   1.000  H
  H37      1.0000 0.20980  0.10680  0.72540  Biso   1.000  H
  H38      1.0000 0.89320  0.20980  0.72540  Biso   1.000  H
  H39      1.0000 0.79020  0.89320  0.72540  Biso   1.000  H
  H40      1.0000 0.10680  0.79020  0.72540  Biso   1.000  H
  H41      1.0000 0.70980  0.39320  0.77460  Biso   1.000  H
  H42      1.0000 0.60680  0.70980  0.77460  Biso   1.000  H
  H43      1.0000 0.29020  0.60680  0.77460  Biso   1.000  H
  H44      1.0000 0.39320  0.29020  0.77460  Biso   1.000  H
  H45      1.0000 0.70980  0.60680  0.22540  Biso   1.000  H
  H46      1.0000 0.39320  0.70980  0.22540  Biso   1.000  H
  H47      1.0000 0.29020  0.39320  0.22540  Biso   1.000  H
  H48      1.0000 0.60680  0.29020  0.22540  Biso   1.000  H
  H49      1.0000 0.79020  0.10680  0.72540  Biso   1.000  H
  H50      1.0000 0.89320  0.79020  0.72540  Biso   1.000  H
  H51      1.0000 0.20980  0.89320  0.72540  Biso   1.000  H
  H52      1.0000 0.10680  0.20980  0.72540  Biso   1.000  H
  H53      1.0000 0.79020  0.89320  0.27460  Biso   1.000  H
  H54      1.0000 0.10680  0.79020  0.27460  Biso   1.000  H
  H55      1.0000 0.20980  0.10680  0.27460  Biso   1.000  H
  H56      1.0000 0.89320  0.20980  0.27460  Biso   1.000  H
  H57      1.0000 0.29020  0.60680  0.22540  Biso   1.000  H
  H58      1.0000 0.39320  0.29020  0.22540  Biso   1.000  H
  H59      1.0000 0.70980  0.39320  0.22540  Biso   1.000  H
  H60      1.0000 0.60680  0.70980  0.22540  Biso   1.000  H
  H61      1.0000 0.29020  0.39320  0.77460  Biso   1.000  H
  H62      1.0000 0.60680  0.29020  0.77460  Biso   1.000  H
  H63      1.0000 0.70980  0.60680  0.77460  Biso   1.000  H
  H64      1.0000 0.39320  0.70980  0.77460  Biso   1.000  H
  O21      1.0000 0.13800  0.13800  0.50000  Biso   1.000  O
  O22      1.0000 0.86200  0.13800  0.50000  Biso   1.000  O
  O23      1.0000 0.86200  0.86200  0.50000  Biso   1.000  O
  O24      1.0000 0.13800  0.86200  0.50000  Biso   1.000  O
  O25      1.0000 0.63800  0.63800  0.00000  Biso   1.000  O
  O26      1.0000 0.36200  0.63800  0.00000  Biso   1.000  O
  O27      1.0000 0.36200  0.36200  0.00000  Biso   1.000  O
  O28      1.0000 0.63800  0.36200  0.00000  Biso   1.000  O
  O29      1.0000 0.25000  0.25000  0.25000  Biso   1.000  O
  O30      1.0000 0.75000  0.25000  0.25000  Biso   1.000  O
  O31      1.0000 0.75000  0.75000  0.25000  Biso   1.000  O
  O32      1.0000 0.25000  0.75000  0.25000  Biso   1.000  O
  O33      1.0000 0.25000  0.75000  0.75000  Biso   1.000  O
  O34      1.0000 0.25000  0.25000  0.75000  Biso   1.000  O
  O35      1.0000 0.75000  0.25000  0.75000  Biso   1.000  O
  O36      1.0000 0.75000  0.75000  0.75000  Biso   1.000  O
