data_image0
_cell_length_a       7.347
_cell_length_b       7.714
_cell_length_c       8.236
_cell_angle_alpha    99.356
_cell_angle_beta     110.182
_cell_angle_gamma    107.29

_symmetry_space_group_name_H-M    "P 1"
_symmetry_int_tables_number       1

loop_
  _symmetry_equiv_pos_as_xyz
  'x, y, z'

loop_
  _atom_site_label
  _atom_site_occupancy
  _atom_site_fract_x
  _atom_site_fract_y
  _atom_site_fract_z
  _atom_site_thermal_displace_type
  _atom_site_B_iso_or_equiv
  _atom_site_type_symbol
  C1       1.0000 0.62600  0.40300  0.17920  Biso   1.000  C
  C2       1.0000 0.37400  0.59700  0.82080  Biso   1.000  C
  H1       1.0000 0.75270  0.41410  0.16730  Biso   1.000  H
  H2       1.0000 0.24730  0.58590  0.83270  Biso   1.000  H
  C3       1.0000 0.61050  0.56350  0.26420  Biso   1.000  C
  C4       1.0000 0.38950  0.43650  0.73580  Biso   1.000  C
  H3       1.0000 0.72530  0.68230  0.30940  Biso   1.000  H
  H4       1.0000 0.27470  0.31770  0.69060  Biso   1.000  H
  C5       1.0000 0.42880  0.55260  0.28410  Biso   1.000  C
  C6       1.0000 0.57120  0.44740  0.71590  Biso   1.000  C
  C7       1.0000 0.26490  0.37530  0.21340  Biso   1.000  C
  C8       1.0000 0.73510  0.62470  0.78660  Biso   1.000  C
  H5       1.0000 0.13620  0.36110  0.22270  Biso   1.000  H
  H6       1.0000 0.86380  0.63890  0.77730  Biso   1.000  H
  C9       1.0000 0.29150  0.22140  0.13010  Biso   1.000  C
  C10      1.0000 0.70850  0.77860  0.86990  Biso   1.000  C
  H7       1.0000 0.17840  0.10120  0.08240  Biso   1.000  H
  H8       1.0000 0.82160  0.89880  0.91760  Biso   1.000  H
  C11      1.0000 0.40800  0.72470  0.38060  Biso   1.000  C
  C12      1.0000 0.59200  0.27530  0.61940  Biso   1.000  C
  H9       1.0000 0.54700  0.83080  0.43980  Biso   1.000  H
  H10      1.0000 0.45300  0.16920  0.56020  Biso   1.000  H
  H11      1.0000 0.36290  0.69510  0.47650  Biso   1.000  H
  H12      1.0000 0.63710  0.30490  0.52350  Biso   1.000  H
  C13      1.0000 0.25240  0.78710  0.25440  Biso   1.000  C
  C14      1.0000 0.74760  0.21290  0.74560  Biso   1.000  C
  Cl1      1.0000 0.19949  0.93430  0.74101  Biso   1.000  Cl
  Cl2      1.0000 0.80051  0.06570  0.25899  Biso   1.000  Cl
  Cu1      1.0000 0.50000  0.00000  0.00000  Biso   1.000  Cu
  N1       1.0000 0.12450  0.83380  0.31890  Biso   1.000  N
  N2       1.0000 0.87550  0.16620  0.68110  Biso   1.000  N
  H13      1.0000 0.03500  0.87200  0.25000  Biso   1.000  H
  H14      1.0000 0.96500  0.12800  0.75000  Biso   1.000  H
  H15      1.0000 0.14400  0.84300  0.43500  Biso   1.000  H
  H16      1.0000 0.85600  0.15700  0.56500  Biso   1.000  H
  N3       1.0000 0.46980  0.23240  0.11280  Biso   1.000  N
  N4       1.0000 0.53020  0.76760  0.88720  Biso   1.000  N
  O1       1.0000 0.24820  0.79560  0.10610  Biso   1.000  O
  O2       1.0000 0.75180  0.20440  0.89390  Biso   1.000  O
