data_image0
_cell_length_a       6.293
_cell_length_b       12.4
_cell_length_c       14.885
_cell_angle_alpha    90
_cell_angle_beta     95.866
_cell_angle_gamma    90

_symmetry_space_group_name_H-M    "P 1"
_symmetry_int_tables_number       1

loop_
  _symmetry_equiv_pos_as_xyz
  'x, y, z'

loop_
  _atom_site_label
  _atom_site_occupancy
  _atom_site_fract_x
  _atom_site_fract_y
  _atom_site_fract_z
  _atom_site_thermal_displace_type
  _atom_site_B_iso_or_equiv
  _atom_site_type_symbol
  C1       1.0000 0.98040  0.35850  0.83850  Biso   1.000  C
  C2       1.0000 0.51960  0.35850  0.66150  Biso   1.000  C
  C3       1.0000 0.01960  0.64150  0.16150  Biso   1.000  C
  C4       1.0000 0.48040  0.64150  0.33850  Biso   1.000  C
  H1       1.0000 0.04960  0.35640  0.78470  Biso   1.000  H
  H2       1.0000 0.45040  0.35640  0.71530  Biso   1.000  H
  H3       1.0000 0.95040  0.64360  0.21530  Biso   1.000  H
  H4       1.0000 0.54960  0.64360  0.28470  Biso   1.000  H
  C5       1.0000 0.04510  0.28800  0.90620  Biso   1.000  C
  C6       1.0000 0.45490  0.28800  0.59380  Biso   1.000  C
  C7       1.0000 0.95490  0.71200  0.09380  Biso   1.000  C
  C8       1.0000 0.54510  0.71200  0.40620  Biso   1.000  C
  H5       1.0000 0.15840  0.23920  0.89890  Biso   1.000  H
  H6       1.0000 0.34160  0.23920  0.60110  Biso   1.000  H
  H7       1.0000 0.84160  0.76080  0.10110  Biso   1.000  H
  H8       1.0000 0.65840  0.76080  0.39890  Biso   1.000  H
  C9       1.0000 0.94790  0.28690  0.98510  Biso   1.000  C
  C10      1.0000 0.55210  0.28690  0.51490  Biso   1.000  C
  C11      1.0000 0.05210  0.71310  0.01490  Biso   1.000  C
  C12      1.0000 0.44790  0.71310  0.48510  Biso   1.000  C
  C13      1.0000 0.78630  0.36130  0.99230  Biso   1.000  C
  C14      1.0000 0.71370  0.36130  0.50770  Biso   1.000  C
  C15      1.0000 0.21370  0.63870  0.00770  Biso   1.000  C
  C16      1.0000 0.28630  0.63870  0.49230  Biso   1.000  C
  H9       1.0000 0.71380  0.36400  0.04520  Biso   1.000  H
  H10      1.0000 0.78620  0.36400  0.45480  Biso   1.000  H
  H11      1.0000 0.28620  0.63600  0.95480  Biso   1.000  H
  H12      1.0000 0.21380  0.63600  0.54520  Biso   1.000  H
  C17      1.0000 0.73230  0.43090  0.92230  Biso   1.000  C
  C18      1.0000 0.76770  0.43090  0.57770  Biso   1.000  C
  C19      1.0000 0.26770  0.56910  0.07770  Biso   1.000  C
  C20      1.0000 0.23230  0.56910  0.42230  Biso   1.000  C
  H13      1.0000 0.62370  0.48270  0.92910  Biso   1.000  H
  H14      1.0000 0.87630  0.48270  0.57090  Biso   1.000  H
  H15      1.0000 0.37630  0.51730  0.07090  Biso   1.000  H
  H16      1.0000 0.12370  0.51730  0.42910  Biso   1.000  H
  C21      1.0000 0.01970  0.21200  0.06100  Biso   1.000  C
  C22      1.0000 0.48030  0.21200  0.43900  Biso   1.000  C
  C23      1.0000 0.98030  0.78800  0.93900  Biso   1.000  C
  C24      1.0000 0.51970  0.78800  0.56100  Biso   1.000  C
  H17      1.0000 0.08330  0.14640  0.03690  Biso   1.000  H
  H18      1.0000 0.41670  0.14640  0.46310  Biso   1.000  H
  H19      1.0000 0.91670  0.85360  0.96310  Biso   1.000  H
  H20      1.0000 0.58330  0.85360  0.53690  Biso   1.000  H
  H21      1.0000 0.89560  0.18990  0.09250  Biso   1.000  H
  H22      1.0000 0.60440  0.18990  0.40750  Biso   1.000  H
  H23      1.0000 0.10440  0.81010  0.90750  Biso   1.000  H
  H24      1.0000 0.39560  0.81010  0.59250  Biso   1.000  H
  C25      1.0000 0.18310  0.26800  0.12660  Biso   1.000  C
  C26      1.0000 0.31690  0.26800  0.37340  Biso   1.000  C
  C27      1.0000 0.81690  0.73200  0.87340  Biso   1.000  C
  C28      1.0000 0.68310  0.73200  0.62660  Biso   1.000  C
  C29      1.0000 0.30800  0.08300  0.73500  Biso   1.000  C
  C30      1.0000 0.19200  0.08300  0.76500  Biso   1.000  C
  C31      1.0000 0.69200  0.91700  0.26500  Biso   1.000  C
  C32      1.0000 0.80800  0.91700  0.23500  Biso   1.000  C
  C33      1.0000 0.18400  0.97400  0.74800  Biso   1.000  C
  C34      1.0000 0.31600  0.97400  0.75200  Biso   1.000  C
  C35      1.0000 0.81600  0.02600  0.25200  Biso   1.000  C
  C36      1.0000 0.68400  0.02600  0.24800  Biso   1.000  C
  C37      1.0000 0.95800  0.02200  0.76400  Biso   1.000  C
  C38      1.0000 0.54200  0.02200  0.73600  Biso   1.000  C
  C39      1.0000 0.04200  0.97800  0.23600  Biso   1.000  C
  C40      1.0000 0.45800  0.97800  0.26400  Biso   1.000  C
  C41      1.0000 0.92500  0.12400  0.69690  Biso   1.000  C
  C42      1.0000 0.57500  0.12400  0.80310  Biso   1.000  C
  C43      1.0000 0.07500  0.87600  0.30310  Biso   1.000  C
  C44      1.0000 0.42500  0.87600  0.19690  Biso   1.000  C
  Cu1      1.0000 0.75000  0.54080  0.75000  Biso   1.000  Cu
  Cu2      1.0000 0.25000  0.45920  0.25000  Biso   1.000  Cu
  N1       1.0000 0.82410  0.43030  0.84450  Biso   1.000  N
  N2       1.0000 0.67590  0.43030  0.65550  Biso   1.000  N
  N3       1.0000 0.17590  0.56970  0.15550  Biso   1.000  N
  N4       1.0000 0.32410  0.56970  0.34450  Biso   1.000  N
  N5       1.0000 0.37460  0.22520  0.14140  Biso   1.000  N
  N6       1.0000 0.12540  0.22520  0.35860  Biso   1.000  N
  N7       1.0000 0.62540  0.77480  0.85860  Biso   1.000  N
  N8       1.0000 0.87460  0.77480  0.64140  Biso   1.000  N
  H25      1.0000 0.43300  0.17300  0.11100  Biso   1.000  H
  H26      1.0000 0.06700  0.17300  0.38900  Biso   1.000  H
  H27      1.0000 0.56700  0.82700  0.88900  Biso   1.000  H
  H28      1.0000 0.93300  0.82700  0.61100  Biso   1.000  H
  H29      1.0000 0.47500  0.25400  0.18100  Biso   1.000  H
  H30      1.0000 0.02500  0.25400  0.31900  Biso   1.000  H
  H31      1.0000 0.52500  0.74600  0.81900  Biso   1.000  H
  H32      1.0000 0.97500  0.74600  0.68100  Biso   1.000  H
  N9       1.0000 0.25000  0.59360  0.75000  Biso   1.000  N
  N10      1.0000 0.75000  0.40640  0.25000  Biso   1.000  N
  N11      1.0000 0.98900  0.02050  0.52880  Biso   1.000  N
  N12      1.0000 0.51100  0.02050  0.97120  Biso   1.000  N
  N13      1.0000 0.01100  0.97950  0.47120  Biso   1.000  N
  N14      1.0000 0.48900  0.97950  0.02880  Biso   1.000  N
  O1       1.0000 0.12840  0.35320  0.16250  Biso   1.000  O
  O2       1.0000 0.37160  0.35320  0.33750  Biso   1.000  O
  O3       1.0000 0.87160  0.64680  0.83750  Biso   1.000  O
  O4       1.0000 0.62840  0.64680  0.66250  Biso   1.000  O
  O5       1.0000 0.11110  0.54670  0.70070  Biso   1.000  O
  O6       1.0000 0.38890  0.54670  0.79930  Biso   1.000  O
  O7       1.0000 0.88890  0.45330  0.29930  Biso   1.000  O
  O8       1.0000 0.61110  0.45330  0.20070  Biso   1.000  O
  O9       1.0000 0.25000  0.69820  0.75000  Biso   1.000  O
  O10      1.0000 0.75000  0.30180  0.25000  Biso   1.000  O
  O11      1.0000 0.13200  0.97200  0.53500  Biso   1.000  O
  O12      1.0000 0.36800  0.97200  0.96500  Biso   1.000  O
  O13      1.0000 0.86800  0.02800  0.46500  Biso   1.000  O
  O14      1.0000 0.63200  0.02800  0.03500  Biso   1.000  O
  O15      1.0000 0.85600  0.98570  0.55900  Biso   1.000  O
  O16      1.0000 0.64400  0.98570  0.94100  Biso   1.000  O
  O17      1.0000 0.14400  0.01430  0.44100  Biso   1.000  O
  O18      1.0000 0.35600  0.01430  0.05900  Biso   1.000  O
  O19      1.0000 0.98400  0.10900  0.51300  Biso   1.000  O
  O20      1.0000 0.51600  0.10900  0.98700  Biso   1.000  O
  O21      1.0000 0.01600  0.89100  0.48700  Biso   1.000  O
  O22      1.0000 0.48400  0.89100  0.01300  Biso   1.000  O
  O23      1.0000 0.13900  0.16660  0.71430  Biso   1.000  O
  O24      1.0000 0.36100  0.16660  0.78570  Biso   1.000  O
  O25      1.0000 0.86100  0.83340  0.28570  Biso   1.000  O
  O26      1.0000 0.63900  0.83340  0.21430  Biso   1.000  O
