data_image0
_cell_length_a       11.0202
_cell_length_b       9.6895
_cell_length_c       15.937
_cell_angle_alpha    90
_cell_angle_beta     105.164
_cell_angle_gamma    90

_symmetry_space_group_name_H-M    "P 1"
_symmetry_int_tables_number       1

loop_
  _symmetry_equiv_pos_as_xyz
  'x, y, z'

loop_
  _atom_site_label
  _atom_site_occupancy
  _atom_site_fract_x
  _atom_site_fract_y
  _atom_site_fract_z
  _atom_site_thermal_displace_type
  _atom_site_B_iso_or_equiv
  _atom_site_type_symbol
  O1       1.0000 0.95890  0.55620  0.15240  Biso   1.000  O
  O2       1.0000 0.04110  0.05620  0.34760  Biso   1.000  O
  O3       1.0000 0.04110  0.44380  0.84760  Biso   1.000  O
  O4       1.0000 0.95890  0.94380  0.65240  Biso   1.000  O
  O5       1.0000 0.09450  0.42000  0.04910  Biso   1.000  O
  O6       1.0000 0.90550  0.92000  0.45090  Biso   1.000  O
  O7       1.0000 0.90550  0.58000  0.95090  Biso   1.000  O
  O8       1.0000 0.09450  0.08000  0.54910  Biso   1.000  O
  I1       1.0000 0.32613  0.56216  0.23932  Biso   1.000  I
  I2       1.0000 0.67387  0.06216  0.26068  Biso   1.000  I
  I3       1.0000 0.67387  0.43784  0.76068  Biso   1.000  I
  I4       1.0000 0.32613  0.93784  0.73932  Biso   1.000  I
  I5       1.0000 0.54246  0.17290  0.93902  Biso   1.000  I
  I6       1.0000 0.45754  0.67290  0.56098  Biso   1.000  I
  I7       1.0000 0.45754  0.82710  0.06098  Biso   1.000  I
  I8       1.0000 0.54246  0.32710  0.43902  Biso   1.000  I
  I9       1.0000 0.65539  0.55122  0.24886  Biso   1.000  I
  I10      1.0000 0.34461  0.05122  0.25114  Biso   1.000  I
  I11      1.0000 0.34461  0.44878  0.75114  Biso   1.000  I
  I12      1.0000 0.65539  0.94878  0.74886  Biso   1.000  I
  I13      1.0000 0.22351  0.14381  0.95139  Biso   1.000  I
  I14      1.0000 0.77649  0.64381  0.54861  Biso   1.000  I
  I15      1.0000 0.77649  0.85619  0.04861  Biso   1.000  I
  I16      1.0000 0.22351  0.35619  0.45139  Biso   1.000  I
  Cu1      1.0000 0.91797  0.41830  0.05630  Biso   1.000  Cu
  Cu2      1.0000 0.08203  0.91830  0.44370  Biso   1.000  Cu
  Cu3      1.0000 0.08203  0.58170  0.94370  Biso   1.000  Cu
  Cu4      1.0000 0.91797  0.08170  0.55630  Biso   1.000  Cu
  C1       1.0000 0.47880  0.27640  0.03370  Biso   1.000  C
  C2       1.0000 0.52120  0.77640  0.46630  Biso   1.000  C
  C3       1.0000 0.52120  0.72360  0.96630  Biso   1.000  C
  C4       1.0000 0.47880  0.22360  0.53370  Biso   1.000  C
  C5       1.0000 0.39380  0.43540  0.15510  Biso   1.000  C
  C6       1.0000 0.60620  0.93540  0.34490  Biso   1.000  C
  C7       1.0000 0.60620  0.56460  0.84490  Biso   1.000  C
  C8       1.0000 0.39380  0.06460  0.65510  Biso   1.000  C
  C9       1.0000 0.52130  0.43470  0.15640  Biso   1.000  C
  C10      1.0000 0.47870  0.93470  0.34360  Biso   1.000  C
  C11      1.0000 0.47870  0.56530  0.84360  Biso   1.000  C
  C12      1.0000 0.52130  0.06530  0.65640  Biso   1.000  C
  C13      1.0000 0.35500  0.27070  0.03640  Biso   1.000  C
  C14      1.0000 0.64500  0.77070  0.46360  Biso   1.000  C
  C15      1.0000 0.64500  0.72930  0.96360  Biso   1.000  C
  C16      1.0000 0.35500  0.22930  0.53640  Biso   1.000  C
  C17      1.0000 0.56780  0.35410  0.09890  Biso   1.000  C
  C18      1.0000 0.43220  0.85410  0.40110  Biso   1.000  C
  C19      1.0000 0.43220  0.64590  0.90110  Biso   1.000  C
  C20      1.0000 0.56780  0.14590  0.59890  Biso   1.000  C
  C21      1.0000 0.30960  0.35090  0.09680  Biso   1.000  C
  C22      1.0000 0.69040  0.85090  0.40320  Biso   1.000  C
  C23      1.0000 0.69040  0.64910  0.90320  Biso   1.000  C
  C24      1.0000 0.30960  0.14910  0.59680  Biso   1.000  C
  C25      1.0000 0.70460  0.35040  0.10270  Biso   1.000  C
  C26      1.0000 0.29540  0.85040  0.39730  Biso   1.000  C
  C27      1.0000 0.29540  0.64960  0.89730  Biso   1.000  C
  C28      1.0000 0.70460  0.14960  0.60270  Biso   1.000  C
  O9       1.0000 0.74250  0.43100  0.05420  Biso   1.000  O
  O10      1.0000 0.25750  0.93100  0.44580  Biso   1.000  O
  O11      1.0000 0.25750  0.56900  0.94580  Biso   1.000  O
  O12      1.0000 0.74250  0.06900  0.55420  Biso   1.000  O
  O13      1.0000 0.77280  0.26190  0.15420  Biso   1.000  O
  O14      1.0000 0.22720  0.76190  0.34580  Biso   1.000  O
  O15      1.0000 0.22720  0.73810  0.84580  Biso   1.000  O
  O16      1.0000 0.77280  0.23810  0.65420  Biso   1.000  O
  O17      1.0000 0.87990  0.24810  0.98070  Biso   1.000  O
  O18      1.0000 0.12010  0.74810  0.51930  Biso   1.000  O
  O19      1.0000 0.12010  0.75190  0.01930  Biso   1.000  O
  O20      1.0000 0.87990  0.25190  0.48070  Biso   1.000  O
  C29      1.0000 0.16980  0.33610  0.09860  Biso   1.000  C
  C30      1.0000 0.83020  0.83610  0.40140  Biso   1.000  C
  C31      1.0000 0.83020  0.66390  0.90140  Biso   1.000  C
  C32      1.0000 0.16980  0.16390  0.59860  Biso   1.000  C
  O21      1.0000 0.14590  0.25270  0.14870  Biso   1.000  O
  O22      1.0000 0.85410  0.75270  0.35130  Biso   1.000  O
  O23      1.0000 0.85410  0.74730  0.85130  Biso   1.000  O
  O24      1.0000 0.14590  0.24730  0.64870  Biso   1.000  O
  O25      1.0000 0.92840  0.19160  0.83190  Biso   1.000  O
  O26      1.0000 0.07160  0.69160  0.66810  Biso   1.000  O
  O27      1.0000 0.07160  0.80840  0.16810  Biso   1.000  O
  O28      1.0000 0.92840  0.30840  0.33190  Biso   1.000  O
  O29      1.0000 0.97050  0.07090  0.17170  Biso   1.000  O
  O30      1.0000 0.02950  0.57090  0.32830  Biso   1.000  O
  O31      1.0000 0.02950  0.92910  0.82830  Biso   1.000  O
  O32      1.0000 0.97050  0.42910  0.67170  Biso   1.000  O
