data_image0
_cell_length_a       10.9277
_cell_length_b       21.668
_cell_length_c       9.579
_cell_angle_alpha    90
_cell_angle_beta     90
_cell_angle_gamma    90

_symmetry_space_group_name_H-M    "P 1"
_symmetry_int_tables_number       1

loop_
  _symmetry_equiv_pos_as_xyz
  'x, y, z'

loop_
  _atom_site_label
  _atom_site_occupancy
  _atom_site_fract_x
  _atom_site_fract_y
  _atom_site_fract_z
  _atom_site_thermal_displace_type
  _atom_site_B_iso_or_equiv
  _atom_site_type_symbol
  I1       1.0000 0.16330  0.27988  0.43340  Biso   1.000  I
  I2       1.0000 0.83670  0.72012  0.93340  Biso   1.000  I
  I3       1.0000 0.16330  0.72012  0.93340  Biso   1.000  I
  I4       1.0000 0.83670  0.27988  0.43340  Biso   1.000  I
  I5       1.0000 0.66330  0.77988  0.43340  Biso   1.000  I
  I6       1.0000 0.33670  0.22012  0.93340  Biso   1.000  I
  I7       1.0000 0.66330  0.22012  0.93340  Biso   1.000  I
  I8       1.0000 0.33670  0.77988  0.43340  Biso   1.000  I
  I9       1.0000 0.16475  0.49922  0.81470  Biso   1.000  I
  I10      1.0000 0.83525  0.50078  0.31470  Biso   1.000  I
  I11      1.0000 0.16475  0.50078  0.31470  Biso   1.000  I
  I12      1.0000 0.83525  0.49922  0.81470  Biso   1.000  I
  I13      1.0000 0.66475  0.99922  0.81470  Biso   1.000  I
  I14      1.0000 0.33525  0.00078  0.31470  Biso   1.000  I
  I15      1.0000 0.66475  0.00078  0.31470  Biso   1.000  I
  I16      1.0000 0.33525  0.99922  0.81470  Biso   1.000  I
  Cu1      1.0000 0.50000  0.39430  0.61960  Biso   1.000  Cu
  Cu2      1.0000 0.50000  0.60570  0.11960  Biso   1.000  Cu
  Cu3      1.0000 0.00000  0.89430  0.61960  Biso   1.000  Cu
  Cu4      1.0000 0.00000  0.10570  0.11960  Biso   1.000  Cu
  C1       1.0000 0.06600  0.34990  0.54300  Biso   1.000  C
  C2       1.0000 0.93400  0.65010  0.04300  Biso   1.000  C
  C3       1.0000 0.06600  0.65010  0.04300  Biso   1.000  C
  C4       1.0000 0.93400  0.34990  0.54300  Biso   1.000  C
  C5       1.0000 0.56600  0.84990  0.54300  Biso   1.000  C
  C6       1.0000 0.43400  0.15010  0.04300  Biso   1.000  C
  C7       1.0000 0.56600  0.15010  0.04300  Biso   1.000  C
  C8       1.0000 0.43400  0.84990  0.54300  Biso   1.000  C
  C9       1.0000 0.12520  0.38850  0.62900  Biso   1.000  C
  C10      1.0000 0.87480  0.61150  0.12900  Biso   1.000  C
  C11      1.0000 0.12520  0.61150  0.12900  Biso   1.000  C
  C12      1.0000 0.87480  0.38850  0.62900  Biso   1.000  C
  C13      1.0000 0.62520  0.88850  0.62900  Biso   1.000  C
  C14      1.0000 0.37480  0.11150  0.12900  Biso   1.000  C
  C15      1.0000 0.62520  0.11150  0.12900  Biso   1.000  C
  C16      1.0000 0.37480  0.88850  0.62900  Biso   1.000  C
  O1       1.0000 0.50000  0.31250  0.51600  Biso   1.000  O
  O2       1.0000 0.50000  0.68750  0.01600  Biso   1.000  O
  O3       1.0000 0.00000  0.81250  0.51600  Biso   1.000  O
  O4       1.0000 0.00000  0.18750  0.01600  Biso   1.000  O
  O5       1.0000 0.50000  0.47310  0.70100  Biso   1.000  O
  O6       1.0000 0.50000  0.52690  0.20100  Biso   1.000  O
  O7       1.0000 0.00000  0.97310  0.70100  Biso   1.000  O
  O8       1.0000 0.00000  0.02690  0.20100  Biso   1.000  O
  C17      1.0000 0.26600  0.38980  0.61600  Biso   1.000  C
  C18      1.0000 0.73400  0.61020  0.11600  Biso   1.000  C
  C19      1.0000 0.26600  0.61020  0.11600  Biso   1.000  C
  C20      1.0000 0.73400  0.38980  0.61600  Biso   1.000  C
  C21      1.0000 0.76600  0.88980  0.61600  Biso   1.000  C
  C22      1.0000 0.23400  0.11020  0.11600  Biso   1.000  C
  C23      1.0000 0.76600  0.11020  0.11600  Biso   1.000  C
  C24      1.0000 0.23400  0.88980  0.61600  Biso   1.000  C
  C25      1.0000 0.05900  0.43610  0.69300  Biso   1.000  C
  C26      1.0000 0.94100  0.56390  0.19300  Biso   1.000  C
  C27      1.0000 0.05900  0.56390  0.19300  Biso   1.000  C
  C28      1.0000 0.94100  0.43610  0.69300  Biso   1.000  C
  C29      1.0000 0.55900  0.93610  0.69300  Biso   1.000  C
  C30      1.0000 0.44100  0.06390  0.19300  Biso   1.000  C
  C31      1.0000 0.55900  0.06390  0.19300  Biso   1.000  C
  C32      1.0000 0.44100  0.93610  0.69300  Biso   1.000  C
  O9       1.0000 0.31870  0.41300  0.53200  Biso   1.000  O
  O10      1.0000 0.68130  0.58700  0.03200  Biso   1.000  O
  O11      1.0000 0.31870  0.58700  0.03200  Biso   1.000  O
  O12      1.0000 0.68130  0.41300  0.53200  Biso   1.000  O
  O13      1.0000 0.81870  0.91300  0.53200  Biso   1.000  O
  O14      1.0000 0.18130  0.08700  0.03200  Biso   1.000  O
  O15      1.0000 0.81870  0.08700  0.03200  Biso   1.000  O
  O16      1.0000 0.18130  0.91300  0.53200  Biso   1.000  O
  N1       1.0000 0.50000  0.21020  0.52100  Biso   1.000  N
  N2       1.0000 0.50000  0.78980  0.02100  Biso   1.000  N
  N3       1.0000 0.00000  0.71020  0.52100  Biso   1.000  N
  N4       1.0000 0.00000  0.28980  0.02100  Biso   1.000  N
  C33      1.0000 0.50000  0.21100  0.36900  Biso   1.000  C
  C34      1.0000 0.50000  0.78900  0.86900  Biso   1.000  C
  C35      1.0000 0.00000  0.71100  0.36900  Biso   1.000  C
  C36      1.0000 0.00000  0.28900  0.86900  Biso   1.000  C
  N5       1.0000 0.50000  0.57220  0.61300  Biso   1.000  N
  N6       1.0000 0.50000  0.42780  0.11300  Biso   1.000  N
  N7       1.0000 0.00000  0.07220  0.61300  Biso   1.000  N
  N8       1.0000 0.00000  0.92780  0.11300  Biso   1.000  N
  C37      1.0000 0.50000  0.26210  0.59100  Biso   1.000  C
  C38      1.0000 0.50000  0.73790  0.09100  Biso   1.000  C
  C39      1.0000 0.00000  0.76210  0.59100  Biso   1.000  C
  C40      1.0000 0.00000  0.23790  0.09100  Biso   1.000  C
  O17      1.0000 0.32150  0.35990  0.73000  Biso   1.000  O
  O18      1.0000 0.67850  0.64010  0.23000  Biso   1.000  O
  O19      1.0000 0.32150  0.64010  0.23000  Biso   1.000  O
  O20      1.0000 0.67850  0.35990  0.73000  Biso   1.000  O
  O21      1.0000 0.82150  0.85990  0.73000  Biso   1.000  O
  O22      1.0000 0.17850  0.14010  0.23000  Biso   1.000  O
  O23      1.0000 0.82150  0.14010  0.23000  Biso   1.000  O
  O24      1.0000 0.17850  0.85990  0.73000  Biso   1.000  O
  C41      1.0000 0.50000  0.50800  0.57400  Biso   1.000  C
  C42      1.0000 0.50000  0.49200  0.07400  Biso   1.000  C
  C43      1.0000 0.00000  0.00800  0.57400  Biso   1.000  C
  C44      1.0000 0.00000  0.99200  0.07400  Biso   1.000  C
  C45      1.0000 0.56100  0.60300  0.73800  Biso   1.000  C
  C46      1.0000 0.43900  0.39700  0.23800  Biso   1.000  C
  C47      1.0000 0.56100  0.39700  0.23800  Biso   1.000  C
  C48      1.0000 0.43900  0.60300  0.73800  Biso   1.000  C
  C49      1.0000 0.06100  0.10300  0.73800  Biso   1.000  C
  C50      1.0000 0.93900  0.89700  0.23800  Biso   1.000  C
  C51      1.0000 0.06100  0.89700  0.23800  Biso   1.000  C
  C52      1.0000 0.93900  0.10300  0.73800  Biso   1.000  C
  C53      1.0000 0.44000  0.15000  0.58000  Biso   1.000  C
  C54      1.0000 0.56000  0.85000  0.08000  Biso   1.000  C
  C55      1.0000 0.44000  0.85000  0.08000  Biso   1.000  C
  C56      1.0000 0.56000  0.15000  0.58000  Biso   1.000  C
  C57      1.0000 0.94000  0.65000  0.58000  Biso   1.000  C
  C58      1.0000 0.06000  0.35000  0.08000  Biso   1.000  C
  C59      1.0000 0.94000  0.35000  0.08000  Biso   1.000  C
  C60      1.0000 0.06000  0.65000  0.58000  Biso   1.000  C
  C61      1.0000 0.50000  0.62300  0.56000  Biso   1.000  C
  C62      1.0000 0.50000  0.37700  0.06000  Biso   1.000  C
  C63      1.0000 0.00000  0.12300  0.56000  Biso   1.000  C
  C64      1.0000 0.00000  0.87700  0.06000  Biso   1.000  C
