data_image0
_cell_length_a       11.1745
_cell_length_b       10.1143
_cell_length_c       12.2459
_cell_angle_alpha    90
_cell_angle_beta     107.293
_cell_angle_gamma    90

_symmetry_space_group_name_H-M    "P 1"
_symmetry_int_tables_number       1

loop_
  _symmetry_equiv_pos_as_xyz
  'x, y, z'

loop_
  _atom_site_label
  _atom_site_occupancy
  _atom_site_fract_x
  _atom_site_fract_y
  _atom_site_fract_z
  _atom_site_thermal_displace_type
  _atom_site_B_iso_or_equiv
  _atom_site_type_symbol
  Cu1      1.0000 0.09191  0.90255  0.26586  Biso   1.000  Cu
  Cu2      1.0000 0.90809  0.40255  0.73414  Biso   1.000  Cu
  I1       1.0000 0.80337  0.65777  0.38426  Biso   1.000  I
  I2       1.0000 0.19663  0.15777  0.61574  Biso   1.000  I
  I3       1.0000 0.48471  0.65697  0.39642  Biso   1.000  I
  I4       1.0000 0.51529  0.15697  0.60358  Biso   1.000  I
  I5       1.0000 0.66390  0.06194  0.00932  Biso   1.000  I
  I6       1.0000 0.33610  0.56194  0.99068  Biso   1.000  I
  I7       1.0000 0.34794  0.06534  0.02447  Biso   1.000  I
  I8       1.0000 0.65206  0.56534  0.97553  Biso   1.000  I
  N1       1.0000 0.03800  0.29720  0.21010  Biso   1.000  N
  N2       1.0000 0.96200  0.79720  0.78990  Biso   1.000  N
  N3       1.0000 0.26750  0.76260  0.59790  Biso   1.000  N
  N4       1.0000 0.73250  0.26260  0.40210  Biso   1.000  N
  C1       1.0000 0.69580  0.85140  0.19110  Biso   1.000  C
  C2       1.0000 0.30420  0.35140  0.80890  Biso   1.000  C
  C3       1.0000 0.60730  0.93570  0.12230  Biso   1.000  C
  C4       1.0000 0.39270  0.43570  0.87770  Biso   1.000  C
  C5       1.0000 0.48400  0.93820  0.12660  Biso   1.000  C
  C6       1.0000 0.51600  0.43820  0.87340  Biso   1.000  C
  C7       1.0000 0.44850  0.85210  0.20180  Biso   1.000  C
  C8       1.0000 0.55150  0.35210  0.79820  Biso   1.000  C
  C9       1.0000 0.53920  0.77280  0.27830  Biso   1.000  C
  C10      1.0000 0.46080  0.27280  0.72170  Biso   1.000  C
  C11      1.0000 0.66300  0.77090  0.27250  Biso   1.000  C
  C12      1.0000 0.33700  0.27090  0.72750  Biso   1.000  C
  C13      1.0000 0.82530  0.83450  0.17860  Biso   1.000  C
  C14      1.0000 0.17470  0.33450  0.82140  Biso   1.000  C
  C15      1.0000 0.31270  0.83790  0.19810  Biso   1.000  C
  C16      1.0000 0.68730  0.33790  0.80190  Biso   1.000  C
  C17      1.0000 0.24030  0.84360  0.51020  Biso   1.000  C
  C18      1.0000 0.75970  0.34360  0.48980  Biso   1.000  C
  H1       1.0000 0.30700  0.89150  0.49550  Biso   1.000  H
  H2       1.0000 0.69300  0.39150  0.50450  Biso   1.000  H
  C19      1.0000 0.16750  0.67900  0.61760  Biso   1.000  C
  C20      1.0000 0.83250  0.17900  0.38240  Biso   1.000  C
  H3       1.0000 0.08940  0.73130  0.60260  Biso   1.000  H
  H4       1.0000 0.91060  0.23130  0.39740  Biso   1.000  H
  H5       1.0000 0.19220  0.65020  0.69850  Biso   1.000  H
  H6       1.0000 0.80780  0.15020  0.30150  Biso   1.000  H
  C21      1.0000 0.14390  0.55840  0.54000  Biso   1.000  C
  C22      1.0000 0.85610  0.05840  0.46000  Biso   1.000  C
  H7       1.0000 0.11400  0.58690  0.46000  Biso   1.000  H
  H8       1.0000 0.88600  0.08690  0.54000  Biso   1.000  H
  H9       1.0000 0.08050  0.50210  0.55740  Biso   1.000  H
  H10      1.0000 0.91950  0.00210  0.44260  Biso   1.000  H
  H11      1.0000 0.22210  0.50850  0.55280  Biso   1.000  H
  H12      1.0000 0.77790  0.00850  0.44720  Biso   1.000  H
  C23      1.0000 0.39480  0.75400  0.67700  Biso   1.000  C
  C24      1.0000 0.60520  0.25400  0.32300  Biso   1.000  C
  H13      1.0000 0.45520  0.78530  0.63770  Biso   1.000  H
  H14      1.0000 0.54480  0.28530  0.36230  Biso   1.000  H
  H15      1.0000 0.41440  0.66050  0.69860  Biso   1.000  H
  H16      1.0000 0.58560  0.16050  0.30140  Biso   1.000  H
  C25      1.0000 0.41060  0.83630  0.78530  Biso   1.000  C
  C26      1.0000 0.58940  0.33630  0.21470  Biso   1.000  C
  H17      1.0000 0.39460  0.92960  0.76450  Biso   1.000  H
  H18      1.0000 0.60540  0.42960  0.23550  Biso   1.000  H
  H19      1.0000 0.49630  0.82630  0.83610  Biso   1.000  H
  H20      1.0000 0.50370  0.32630  0.16390  Biso   1.000  H
  H21      1.0000 0.35110  0.80570  0.82460  Biso   1.000  H
  H22      1.0000 0.64890  0.30570  0.17540  Biso   1.000  H
  C27      1.0000 0.02590  0.16940  0.21050  Biso   1.000  C
  C28      1.0000 0.97410  0.66940  0.78950  Biso   1.000  C
  H23      1.0000 0.95570  0.13080  0.15580  Biso   1.000  H
  H24      1.0000 0.04430  0.63080  0.84420  Biso   1.000  H
  C29      1.0000 0.94770  0.38170  0.12720  Biso   1.000  C
  C30      1.0000 0.05230  0.88170  0.87280  Biso   1.000  C
  H25      1.0000 0.91830  0.45230  0.16900  Biso   1.000  H
  H26      1.0000 0.08170  0.95230  0.83100  Biso   1.000  H
  H27      1.0000 0.87420  0.32790  0.08610  Biso   1.000  H
  H28      1.0000 0.12580  0.82790  0.91390  Biso   1.000  H
  C31      1.0000 0.00290  0.44390  0.04170  Biso   1.000  C
  C32      1.0000 0.99710  0.94390  0.95830  Biso   1.000  C
  H29      1.0000 0.07010  0.50480  0.08110  Biso   1.000  H
  H30      1.0000 0.92990  0.00480  0.91890  Biso   1.000  H
  H31      1.0000 0.93750  0.49280  0.98480  Biso   1.000  H
  H32      1.0000 0.06250  0.99280  0.01520  Biso   1.000  H
  H33      1.0000 0.03700  0.37480  0.00340  Biso   1.000  H
  H34      1.0000 0.96300  0.87480  0.99660  Biso   1.000  H
  C33      1.0000 0.14740  0.35850  0.29300  Biso   1.000  C
  C34      1.0000 0.85260  0.85850  0.70700  Biso   1.000  C
  H35      1.0000 0.15390  0.32480  0.37040  Biso   1.000  H
  H36      1.0000 0.84610  0.82480  0.62960  Biso   1.000  H
  H37      1.0000 0.13420  0.45530  0.29330  Biso   1.000  H
  H38      1.0000 0.86580  0.95530  0.70670  Biso   1.000  H
  C35      1.0000 0.27050  0.33130  0.26680  Biso   1.000  C
  C36      1.0000 0.72950  0.83130  0.73320  Biso   1.000  C
  H39      1.0000 0.28340  0.23560  0.26460  Biso   1.000  H
  H40      1.0000 0.71660  0.73560  0.73540  Biso   1.000  H
  H41      1.0000 0.34000  0.37080  0.32660  Biso   1.000  H
  H42      1.0000 0.66000  0.87080  0.67340  Biso   1.000  H
  H43      1.0000 0.26700  0.37000  0.19260  Biso   1.000  H
  H44      1.0000 0.73300  0.87000  0.80740  Biso   1.000  H
  O1       1.0000 0.27020  0.90870  0.26170  Biso   1.000  O
  O2       1.0000 0.72980  0.40870  0.73830  Biso   1.000  O
  O3       1.0000 0.25180  0.75210  0.12770  Biso   1.000  O
  O4       1.0000 0.74820  0.25210  0.87230  Biso   1.000  O
  O5       1.0000 0.90640  0.91700  0.23390  Biso   1.000  O
  O6       1.0000 0.09360  0.41700  0.76610  Biso   1.000  O
  O7       1.0000 0.84160  0.74420  0.11700  Biso   1.000  O
  O8       1.0000 0.15840  0.24420  0.88300  Biso   1.000  O
  O9       1.0000 0.13270  0.86150  0.44530  Biso   1.000  O
  O10      1.0000 0.86730  0.36150  0.55470  Biso   1.000  O
  O11      1.0000 0.10090  0.09430  0.27840  Biso   1.000  O
  O12      1.0000 0.89910  0.59430  0.72160  Biso   1.000  O
  O13      1.0000 0.08000  0.71140  0.22590  Biso   1.000  O
  O14      1.0000 0.92000  0.21140  0.77410  Biso   1.000  O
