data_image0
_cell_length_a       13.942
_cell_length_b       16.422
_cell_length_c       16.473
_cell_angle_alpha    90
_cell_angle_beta     97.93
_cell_angle_gamma    90

_symmetry_space_group_name_H-M    "P 1"
_symmetry_int_tables_number       1

loop_
  _symmetry_equiv_pos_as_xyz
  'x, y, z'

loop_
  _atom_site_label
  _atom_site_occupancy
  _atom_site_fract_x
  _atom_site_fract_y
  _atom_site_fract_z
  _atom_site_thermal_displace_type
  _atom_site_B_iso_or_equiv
  _atom_site_type_symbol
  Cu1      1.0000 0.00000  0.00000  0.00000  Biso   1.000  Cu
  Cu2      1.0000 0.50000  0.00000  0.50000  Biso   1.000  Cu
  Cu3      1.0000 0.37430  0.62150  0.11230  Biso   1.000  Cu
  Cu4      1.0000 0.12570  0.62150  0.38770  Biso   1.000  Cu
  Cu5      1.0000 0.62570  0.37850  0.88770  Biso   1.000  Cu
  Cu6      1.0000 0.87430  0.37850  0.61230  Biso   1.000  Cu
  O1       1.0000 0.04480  0.86450  0.05730  Biso   1.000  O
  O2       1.0000 0.45520  0.86450  0.44270  Biso   1.000  O
  O3       1.0000 0.95520  0.13550  0.94270  Biso   1.000  O
  O4       1.0000 0.54480  0.13550  0.55730  Biso   1.000  O
  O5       1.0000 0.86770  0.96310  0.98230  Biso   1.000  O
  O6       1.0000 0.63230  0.96310  0.51770  Biso   1.000  O
  O7       1.0000 0.13230  0.03690  0.01770  Biso   1.000  O
  O8       1.0000 0.36770  0.03690  0.48230  Biso   1.000  O
  O9       1.0000 0.99260  0.03040  0.11230  Biso   1.000  O
  O10      1.0000 0.50740  0.03040  0.38770  Biso   1.000  O
  O11      1.0000 0.00740  0.96960  0.88770  Biso   1.000  O
  O12      1.0000 0.49260  0.96960  0.61230  Biso   1.000  O
  O13      1.0000 0.22460  0.63460  0.13490  Biso   1.000  O
  O14      1.0000 0.27540  0.63460  0.36510  Biso   1.000  O
  O15      1.0000 0.77540  0.36540  0.86510  Biso   1.000  O
  O16      1.0000 0.72460  0.36540  0.63490  Biso   1.000  O
  O17      1.0000 0.46360  0.68400  0.18950  Biso   1.000  O
  O18      1.0000 0.03640  0.68400  0.31050  Biso   1.000  O
  O19      1.0000 0.53640  0.31600  0.81050  Biso   1.000  O
  O20      1.0000 0.96360  0.31600  0.68950  Biso   1.000  O
  O21      1.0000 0.36010  0.70960  0.03540  Biso   1.000  O
  O22      1.0000 0.13990  0.70960  0.46460  Biso   1.000  O
  O23      1.0000 0.63990  0.29040  0.96460  Biso   1.000  O
  O24      1.0000 0.86010  0.29040  0.53540  Biso   1.000  O
  O25      1.0000 0.35630  0.54580  0.01900  Biso   1.000  O
  O26      1.0000 0.14370  0.54580  0.48100  Biso   1.000  O
  O27      1.0000 0.64370  0.45420  0.98100  Biso   1.000  O
  O28      1.0000 0.85630  0.45420  0.51900  Biso   1.000  O
  O29      1.0000 0.39160  0.53440  0.18970  Biso   1.000  O
  O30      1.0000 0.10840  0.53440  0.31030  Biso   1.000  O
  O31      1.0000 0.60840  0.46560  0.81030  Biso   1.000  O
  O32      1.0000 0.89160  0.46560  0.68970  Biso   1.000  O
  N1       1.0000 0.07940  0.79350  0.05900  Biso   1.000  N
  N2       1.0000 0.42060  0.79350  0.44100  Biso   1.000  N
  N3       1.0000 0.92060  0.20650  0.94100  Biso   1.000  N
  N4       1.0000 0.57940  0.20650  0.55900  Biso   1.000  N
  N5       1.0000 0.16280  0.68380  0.09710  Biso   1.000  N
  N6       1.0000 0.33720  0.68380  0.40290  Biso   1.000  N
  N7       1.0000 0.83720  0.31620  0.90290  Biso   1.000  N
  N8       1.0000 0.66280  0.31620  0.59710  Biso   1.000  N
  C1       1.0000 0.15220  0.76330  0.11420  Biso   1.000  C
  C2       1.0000 0.34780  0.76330  0.38580  Biso   1.000  C
  C3       1.0000 0.84780  0.23670  0.88580  Biso   1.000  C
  C4       1.0000 0.65220  0.23670  0.61420  Biso   1.000  C
  C5       1.0000 0.20350  0.80810  0.18260  Biso   1.000  C
  C6       1.0000 0.29650  0.80810  0.31740  Biso   1.000  C
  C7       1.0000 0.79650  0.19190  0.81740  Biso   1.000  C
  C8       1.0000 0.70350  0.19190  0.68260  Biso   1.000  C
  C9       1.0000 0.20420  0.89280  0.18210  Biso   1.000  C
  C10      1.0000 0.29580  0.89280  0.31790  Biso   1.000  C
  C11      1.0000 0.79580  0.10720  0.81790  Biso   1.000  C
  C12      1.0000 0.70420  0.10720  0.68210  Biso   1.000  C
  C13      1.0000 0.25000  0.93370  0.25000  Biso   1.000  C
  C14      1.0000 0.75000  0.06630  0.75000  Biso   1.000  C
  C15      1.0000 0.25000  0.76720  0.25000  Biso   1.000  C
  C16      1.0000 0.75000  0.23280  0.75000  Biso   1.000  C
  C17      1.0000 0.04460  0.73320  0.99190  Biso   1.000  C
  C18      1.0000 0.45540  0.73320  0.50810  Biso   1.000  C
  C19      1.0000 0.95540  0.26680  0.00810  Biso   1.000  C
  C20      1.0000 0.54460  0.26680  0.49190  Biso   1.000  C
  C21      1.0000 0.93710  0.74040  0.96550  Biso   1.000  C
  C22      1.0000 0.56290  0.74040  0.53450  Biso   1.000  C
  C23      1.0000 0.06290  0.25960  0.03450  Biso   1.000  C
  C24      1.0000 0.43710  0.25960  0.46550  Biso   1.000  C
  C25      1.0000 0.09880  0.75430  0.92130  Biso   1.000  C
  C26      1.0000 0.40120  0.75430  0.57870  Biso   1.000  C
  C27      1.0000 0.90120  0.24570  0.07870  Biso   1.000  C
  C28      1.0000 0.59880  0.24570  0.42130  Biso   1.000  C
  C29      1.0000 0.08270  0.65220  0.03580  Biso   1.000  C
  C30      1.0000 0.41730  0.65220  0.46420  Biso   1.000  C
  C31      1.0000 0.91730  0.34780  0.96420  Biso   1.000  C
  C32      1.0000 0.58270  0.34780  0.53580  Biso   1.000  C
  C33      1.0000 0.11900  0.59030  0.98290  Biso   1.000  C
  C34      1.0000 0.38100  0.59030  0.51710  Biso   1.000  C
  C35      1.0000 0.88100  0.40970  0.01710  Biso   1.000  C
  C36      1.0000 0.61900  0.40970  0.48290  Biso   1.000  C
  C37      1.0000 0.00800  0.61550  0.08480  Biso   1.000  C
  C38      1.0000 0.49200  0.61550  0.41520  Biso   1.000  C
  C39      1.0000 0.99200  0.38450  0.91520  Biso   1.000  C
  C40      1.0000 0.50800  0.38450  0.58480  Biso   1.000  C
  C41      1.0000 0.81480  0.95750  0.03880  Biso   1.000  C
  C42      1.0000 0.68520  0.95750  0.46120  Biso   1.000  C
  C43      1.0000 0.18520  0.04250  0.96120  Biso   1.000  C
  C44      1.0000 0.31480  0.04250  0.53880  Biso   1.000  C
  C45      1.0000 0.83530  0.98130  0.11820  Biso   1.000  C
  C46      1.0000 0.66470  0.98130  0.38180  Biso   1.000  C
  C47      1.0000 0.16470  0.01870  0.88180  Biso   1.000  C
  C48      1.0000 0.33530  0.01870  0.61820  Biso   1.000  C
  C49      1.0000 0.91960  0.01590  0.14740  Biso   1.000  C
  C50      1.0000 0.58040  0.01590  0.35260  Biso   1.000  C
  C51      1.0000 0.08040  0.98410  0.85260  Biso   1.000  C
  C52      1.0000 0.41960  0.98410  0.64740  Biso   1.000  C
  C53      1.0000 0.71550  0.91920  0.00860  Biso   1.000  C
  C54      1.0000 0.78450  0.91920  0.49140  Biso   1.000  C
  C55      1.0000 0.28450  0.08080  0.99140  Biso   1.000  C
  C56      1.0000 0.21550  0.08080  0.50860  Biso   1.000  C
  C57      1.0000 0.93690  0.04360  0.23780  Biso   1.000  C
  C58      1.0000 0.56310  0.04360  0.26220  Biso   1.000  C
  C59      1.0000 0.06310  0.95640  0.76220  Biso   1.000  C
  C60      1.0000 0.43690  0.95640  0.73780  Biso   1.000  C
  C61      1.0000 0.50190  0.74820  0.17190  Biso   1.000  C
  C62      1.0000 0.99810  0.74820  0.32810  Biso   1.000  C
  C63      1.0000 0.49810  0.25180  0.82810  Biso   1.000  C
  C64      1.0000 0.00190  0.25180  0.67190  Biso   1.000  C
  C65      1.0000 0.48080  0.79660  0.10300  Biso   1.000  C
  C66      1.0000 0.01920  0.79660  0.39700  Biso   1.000  C
  C67      1.0000 0.51920  0.20340  0.89700  Biso   1.000  C
  C68      1.0000 0.98080  0.20340  0.60300  Biso   1.000  C
  C69      1.0000 0.41210  0.77260  0.04160  Biso   1.000  C
  C70      1.0000 0.08790  0.77260  0.45840  Biso   1.000  C
  C71      1.0000 0.58790  0.22740  0.95840  Biso   1.000  C
  C72      1.0000 0.91210  0.22740  0.54160  Biso   1.000  C
  C73      1.0000 0.58180  0.77730  0.23670  Biso   1.000  C
  C74      1.0000 0.91820  0.77730  0.26330  Biso   1.000  C
  C75      1.0000 0.41820  0.22270  0.76330  Biso   1.000  C
  C76      1.0000 0.08180  0.22270  0.73670  Biso   1.000  C
  C77      1.0000 0.39480  0.82880  0.96140  Biso   1.000  C
  C78      1.0000 0.10520  0.82880  0.53860  Biso   1.000  C
  C79      1.0000 0.60520  0.17120  0.03860  Biso   1.000  C
  C80      1.0000 0.89480  0.17120  0.46140  Biso   1.000  C
  C81      1.0000 0.35450  0.47090  0.02480  Biso   1.000  C
  C82      1.0000 0.14550  0.47090  0.47520  Biso   1.000  C
  C83      1.0000 0.64550  0.52910  0.97520  Biso   1.000  C
  C84      1.0000 0.85450  0.52910  0.52480  Biso   1.000  C
  C85      1.0000 0.36660  0.42420  0.09390  Biso   1.000  C
  C86      1.0000 0.13340  0.42420  0.40610  Biso   1.000  C
  C87      1.0000 0.63340  0.57580  0.90610  Biso   1.000  C
  C88      1.0000 0.86660  0.57580  0.59390  Biso   1.000  C
  C89      1.0000 0.38720  0.46290  0.17020  Biso   1.000  C
  C90      1.0000 0.11280  0.46290  0.32980  Biso   1.000  C
  C91      1.0000 0.61280  0.53710  0.82980  Biso   1.000  C
  C92      1.0000 0.88720  0.53710  0.67020  Biso   1.000  C
  C93      1.0000 0.33910  0.42700  0.94340  Biso   1.000  C
  C94      1.0000 0.16090  0.42700  0.55660  Biso   1.000  C
  C95      1.0000 0.66090  0.57300  0.05660  Biso   1.000  C
  C96      1.0000 0.83910  0.57300  0.44340  Biso   1.000  C
  C97      1.0000 0.40510  0.40190  0.24500  Biso   1.000  C
  C98      1.0000 0.09490  0.40190  0.25500  Biso   1.000  C
  C99      1.0000 0.59490  0.59810  0.75500  Biso   1.000  C
  C100     1.0000 0.90510  0.59810  0.74500  Biso   1.000  C
  F1       1.0000 0.67870  0.94610  0.93880  Biso   1.000  F
  F2       1.0000 0.82130  0.94610  0.56120  Biso   1.000  F
  F3       1.0000 0.32130  0.05390  0.06120  Biso   1.000  F
  F4       1.0000 0.17870  0.05390  0.43880  Biso   1.000  F
  F5       1.0000 0.72250  0.84440  0.00290  Biso   1.000  F
  F6       1.0000 0.77750  0.84440  0.49710  Biso   1.000  F
  F7       1.0000 0.27750  0.15560  0.99710  Biso   1.000  F
  F8       1.0000 0.22250  0.15560  0.50290  Biso   1.000  F
  F9       1.0000 0.65000  0.93430  0.05530  Biso   1.000  F
  F10      1.0000 0.85000  0.93430  0.44470  Biso   1.000  F
  F11      1.0000 0.35000  0.06570  0.94470  Biso   1.000  F
  F12      1.0000 0.15000  0.06570  0.55530  Biso   1.000  F
  F13      1.0000 0.00840  0.00480  0.27860  Biso   1.000  F
  F14      1.0000 0.49160  0.00480  0.22140  Biso   1.000  F
  F15      1.0000 0.99160  0.99520  0.72140  Biso   1.000  F
  F16      1.0000 0.50840  0.99520  0.77860  Biso   1.000  F
  F17      1.0000 0.86800  0.02820  0.27810  Biso   1.000  F
  F18      1.0000 0.63200  0.02820  0.22190  Biso   1.000  F
  F19      1.0000 0.13200  0.97180  0.72190  Biso   1.000  F
  F20      1.0000 0.36800  0.97180  0.77810  Biso   1.000  F
  F21      1.0000 0.96330  0.11420  0.24710  Biso   1.000  F
  F22      1.0000 0.53670  0.11420  0.25290  Biso   1.000  F
  F23      1.0000 0.03670  0.88580  0.75290  Biso   1.000  F
  F24      1.0000 0.46330  0.88580  0.74710  Biso   1.000  F
  F25      1.0000 0.64080  0.82980  0.21230  Biso   1.000  F
  F26      1.0000 0.85920  0.82980  0.28770  Biso   1.000  F
  F27      1.0000 0.35920  0.17020  0.78770  Biso   1.000  F
  F28      1.0000 0.14080  0.17020  0.71230  Biso   1.000  F
  F29      1.0000 0.55010  0.80280  0.30060  Biso   1.000  F
  F30      1.0000 0.94990  0.80280  0.19940  Biso   1.000  F
  F31      1.0000 0.44990  0.19720  0.69940  Biso   1.000  F
  F32      1.0000 0.05010  0.19720  0.80060  Biso   1.000  F
  F33      1.0000 0.63860  0.71610  0.26600  Biso   1.000  F
  F34      1.0000 0.86140  0.71610  0.23400  Biso   1.000  F
  F35      1.0000 0.36140  0.28390  0.73400  Biso   1.000  F
  F36      1.0000 0.13860  0.28390  0.76600  Biso   1.000  F
  F37      1.0000 0.45070  0.88600  0.96270  Biso   1.000  F
  F38      1.0000 0.04930  0.88600  0.53730  Biso   1.000  F
  F39      1.0000 0.54930  0.11400  0.03730  Biso   1.000  F
  F40      1.0000 0.95070  0.11400  0.46270  Biso   1.000  F
  F41      1.0000 0.38810  0.78660  0.90010  Biso   1.000  F
  F42      1.0000 0.11190  0.78660  0.59990  Biso   1.000  F
  F43      1.0000 0.61190  0.21340  0.09990  Biso   1.000  F
  F44      1.0000 0.88810  0.21340  0.40010  Biso   1.000  F
  F45      1.0000 0.30760  0.86190  0.96850  Biso   1.000  F
  F46      1.0000 0.19240  0.86190  0.53150  Biso   1.000  F
  F47      1.0000 0.69240  0.13810  0.03150  Biso   1.000  F
  F48      1.0000 0.80760  0.13810  0.46850  Biso   1.000  F
  F49      1.0000 0.25710  0.43770  0.90650  Biso   1.000  F
  F50      1.0000 0.24290  0.43770  0.59350  Biso   1.000  F
  F51      1.0000 0.74290  0.56230  0.09350  Biso   1.000  F
  F52      1.0000 0.75710  0.56230  0.40650  Biso   1.000  F
  F53      1.0000 0.34840  0.35040  0.94800  Biso   1.000  F
  F54      1.0000 0.15160  0.35040  0.55200  Biso   1.000  F
  F55      1.0000 0.65160  0.64960  0.05200  Biso   1.000  F
  F56      1.0000 0.84840  0.64960  0.44800  Biso   1.000  F
  F57      1.0000 0.39450  0.44480  0.89680  Biso   1.000  F
  F58      1.0000 0.10550  0.44480  0.60320  Biso   1.000  F
  F59      1.0000 0.60550  0.55520  0.10320  Biso   1.000  F
  F60      1.0000 0.89450  0.55520  0.39680  Biso   1.000  F
  F61      1.0000 0.38360  0.33050  0.23100  Biso   1.000  F
  F62      1.0000 0.11640  0.33050  0.26900  Biso   1.000  F
  F63      1.0000 0.61640  0.66950  0.76900  Biso   1.000  F
  F64      1.0000 0.88360  0.66950  0.73100  Biso   1.000  F
  F65      1.0000 0.36720  0.42850  0.30500  Biso   1.000  F
  F66      1.0000 0.13280  0.42850  0.19500  Biso   1.000  F
  F67      1.0000 0.63280  0.57150  0.69500  Biso   1.000  F
  F68      1.0000 0.86720  0.57150  0.80500  Biso   1.000  F
  F69      1.0000 0.49560  0.40800  0.27230  Biso   1.000  F
  F70      1.0000 0.00440  0.40800  0.22770  Biso   1.000  F
  F71      1.0000 0.50440  0.59200  0.72770  Biso   1.000  F
  F72      1.0000 0.99560  0.59200  0.77230  Biso   1.000  F
  H1       1.0000 0.00280  0.92310  0.13460  Biso   1.000  H
  H2       1.0000 0.49720  0.92310  0.36540  Biso   1.000  H
  H3       1.0000 0.99720  0.07690  0.86540  Biso   1.000  H
  H4       1.0000 0.50280  0.07690  0.63460  Biso   1.000  H
  H5       1.0000 0.25000  0.98100  0.25000  Biso   1.000  H
  H6       1.0000 0.75000  0.01900  0.75000  Biso   1.000  H
  H7       1.0000 0.25000  0.70560  0.25000  Biso   1.000  H
  H8       1.0000 0.75000  0.29440  0.75000  Biso   1.000  H
  H9       1.0000 0.90260  0.72690  0.01150  Biso   1.000  H
  H10      1.0000 0.59740  0.72690  0.48850  Biso   1.000  H
  H11      1.0000 0.09740  0.27310  0.98850  Biso   1.000  H
  H12      1.0000 0.40260  0.27310  0.51150  Biso   1.000  H
  H13      1.0000 0.91740  0.70300  0.91990  Biso   1.000  H
  H14      1.0000 0.58260  0.70300  0.58010  Biso   1.000  H
  H15      1.0000 0.08260  0.29700  0.08010  Biso   1.000  H
  H16      1.0000 0.41740  0.29700  0.41990  Biso   1.000  H
  H17      1.0000 0.92130  0.79650  0.94750  Biso   1.000  H
  H18      1.0000 0.57870  0.79650  0.55250  Biso   1.000  H
  H19      1.0000 0.07870  0.20350  0.05250  Biso   1.000  H
  H20      1.0000 0.42130  0.20350  0.44750  Biso   1.000  H
  H21      1.0000 0.07900  0.71710  0.87570  Biso   1.000  H
  H22      1.0000 0.42100  0.71710  0.62430  Biso   1.000  H
  H23      1.0000 0.92100  0.28290  0.12430  Biso   1.000  H
  H24      1.0000 0.57900  0.28290  0.37570  Biso   1.000  H
  H25      1.0000 0.16860  0.74940  0.93860  Biso   1.000  H
  H26      1.0000 0.33140  0.74940  0.56140  Biso   1.000  H
  H27      1.0000 0.83140  0.25060  0.06140  Biso   1.000  H
  H28      1.0000 0.66860  0.25060  0.43860  Biso   1.000  H
  H29      1.0000 0.08340  0.81050  0.90360  Biso   1.000  H
  H30      1.0000 0.41660  0.81050  0.59640  Biso   1.000  H
  H31      1.0000 0.91660  0.18950  0.09640  Biso   1.000  H
  H32      1.0000 0.58340  0.18950  0.40360  Biso   1.000  H
  H33      1.0000 0.06530  0.57020  0.94320  Biso   1.000  H
  H34      1.0000 0.43470  0.57020  0.55680  Biso   1.000  H
  H35      1.0000 0.93470  0.42980  0.05680  Biso   1.000  H
  H36      1.0000 0.56530  0.42980  0.44320  Biso   1.000  H
  H37      1.0000 0.14710  0.54470  0.01670  Biso   1.000  H
  H38      1.0000 0.35290  0.54470  0.48330  Biso   1.000  H
  H39      1.0000 0.85290  0.45530  0.98330  Biso   1.000  H
  H40      1.0000 0.64710  0.45530  0.51670  Biso   1.000  H
  H41      1.0000 0.16860  0.61430  0.95370  Biso   1.000  H
  H42      1.0000 0.33140  0.61430  0.54630  Biso   1.000  H
  H43      1.0000 0.83140  0.38570  0.04630  Biso   1.000  H
  H44      1.0000 0.66860  0.38570  0.45370  Biso   1.000  H
  H45      1.0000 0.95370  0.59360  0.04720  Biso   1.000  H
  H46      1.0000 0.54630  0.59360  0.45280  Biso   1.000  H
  H47      1.0000 0.04630  0.40640  0.95280  Biso   1.000  H
  H48      1.0000 0.45370  0.40640  0.54720  Biso   1.000  H
  H49      1.0000 0.98450  0.65760  0.11930  Biso   1.000  H
  H50      1.0000 0.51550  0.65760  0.38070  Biso   1.000  H
  H51      1.0000 0.01550  0.34240  0.88070  Biso   1.000  H
  H52      1.0000 0.48450  0.34240  0.61930  Biso   1.000  H
  H53      1.0000 0.03820  0.57150  0.11970  Biso   1.000  H
  H54      1.0000 0.46180  0.57150  0.38030  Biso   1.000  H
  H55      1.0000 0.96180  0.42850  0.88030  Biso   1.000  H
  H56      1.0000 0.53820  0.42850  0.61970  Biso   1.000  H
  H57      1.0000 0.77030  0.95810  0.11060  Biso   1.000  H
  H58      1.0000 0.72970  0.95810  0.38940  Biso   1.000  H
  H59      1.0000 0.22970  0.04190  0.88940  Biso   1.000  H
  H60      1.0000 0.27030  0.04190  0.61060  Biso   1.000  H
  H61      1.0000 0.51580  0.84760  0.09840  Biso   1.000  H
  H62      1.0000 0.98420  0.84760  0.40160  Biso   1.000  H
  H63      1.0000 0.48420  0.15240  0.90160  Biso   1.000  H
  H64      1.0000 0.01580  0.15240  0.59840  Biso   1.000  H
  H65      1.0000 0.36150  0.36480  0.09070  Biso   1.000  H
  H66      1.0000 0.13850  0.36480  0.40930  Biso   1.000  H
  H67      1.0000 0.63850  0.63520  0.90930  Biso   1.000  H
  H68      1.0000 0.86150  0.63520  0.59070  Biso   1.000  H
