data_image0
_cell_length_a       11.243
_cell_length_b       16.07
_cell_length_c       19.872
_cell_angle_alpha    90
_cell_angle_beta     95.678
_cell_angle_gamma    90

_symmetry_space_group_name_H-M    "P 1"
_symmetry_int_tables_number       1

loop_
  _symmetry_equiv_pos_as_xyz
  'x, y, z'

loop_
  _atom_site_label
  _atom_site_occupancy
  _atom_site_fract_x
  _atom_site_fract_y
  _atom_site_fract_z
  _atom_site_thermal_displace_type
  _atom_site_B_iso_or_equiv
  _atom_site_type_symbol
  Cu1      1.0000 0.16535  0.04047  0.13513  Biso   1.000  Cu
  Cu2      1.0000 0.33465  0.54047  0.36487  Biso   1.000  Cu
  Cu3      1.0000 0.83465  0.95953  0.86487  Biso   1.000  Cu
  Cu4      1.0000 0.66535  0.45953  0.63513  Biso   1.000  Cu
  Cl1      1.0000 0.18905  0.00937  0.02716  Biso   1.000  Cl
  Cl2      1.0000 0.31095  0.50937  0.47284  Biso   1.000  Cl
  Cl3      1.0000 0.81095  0.99063  0.97284  Biso   1.000  Cl
  Cl4      1.0000 0.68905  0.49063  0.52716  Biso   1.000  Cl
  Cl5      1.0000 0.26029  0.07107  0.23580  Biso   1.000  Cl
  Cl6      1.0000 0.23971  0.57107  0.26420  Biso   1.000  Cl
  Cl7      1.0000 0.73971  0.92893  0.76420  Biso   1.000  Cl
  Cl8      1.0000 0.76029  0.42893  0.73580  Biso   1.000  Cl
  O1       1.0000 0.44620  0.78710  0.40514  Biso   1.000  O
  O2       1.0000 0.05380  0.28710  0.09486  Biso   1.000  O
  O3       1.0000 0.55380  0.21290  0.59486  Biso   1.000  O
  O4       1.0000 0.94620  0.71290  0.90514  Biso   1.000  O
  O5       1.0000 0.08610  0.79330  0.18591  Biso   1.000  O
  O6       1.0000 0.41390  0.29330  0.31409  Biso   1.000  O
  O7       1.0000 0.91390  0.20670  0.81409  Biso   1.000  O
  O8       1.0000 0.58610  0.70670  0.68591  Biso   1.000  O
  N1       1.0000 0.40220  0.65420  0.38910  Biso   1.000  N
  N2       1.0000 0.09780  0.15420  0.11090  Biso   1.000  N
  N3       1.0000 0.59780  0.34580  0.61090  Biso   1.000  N
  N4       1.0000 0.90220  0.84580  0.88910  Biso   1.000  N
  N5       1.0000 0.10910  0.92370  0.15430  Biso   1.000  N
  N6       1.0000 0.39090  0.42370  0.34570  Biso   1.000  N
  N7       1.0000 0.89090  0.07630  0.84570  Biso   1.000  N
  N8       1.0000 0.60910  0.57630  0.65430  Biso   1.000  N
  C1       1.0000 0.71400  0.74220  0.52390  Biso   1.000  C
  C2       1.0000 0.78600  0.24220  0.97610  Biso   1.000  C
  C3       1.0000 0.28600  0.25780  0.47610  Biso   1.000  C
  C4       1.0000 0.21400  0.75780  0.02390  Biso   1.000  C
  H1       1.0000 0.71930  0.68500  0.51780  Biso   1.000  H
  H2       1.0000 0.78070  0.18500  0.98220  Biso   1.000  H
  H3       1.0000 0.28070  0.31500  0.48220  Biso   1.000  H
  H4       1.0000 0.21930  0.81500  0.01780  Biso   1.000  H
  C5       1.0000 0.79990  0.78290  0.56590  Biso   1.000  C
  C6       1.0000 0.70010  0.28290  0.93410  Biso   1.000  C
  C7       1.0000 0.20010  0.21710  0.43410  Biso   1.000  C
  C8       1.0000 0.29990  0.71710  0.06590  Biso   1.000  C
  H5       1.0000 0.86320  0.75330  0.58800  Biso   1.000  H
  H6       1.0000 0.63680  0.25330  0.91200  Biso   1.000  H
  H7       1.0000 0.13680  0.24670  0.41200  Biso   1.000  H
  H8       1.0000 0.36320  0.74670  0.08800  Biso   1.000  H
  C9       1.0000 0.79150  0.86650  0.57470  Biso   1.000  C
  C10      1.0000 0.70850  0.36650  0.92530  Biso   1.000  C
  C11      1.0000 0.20850  0.13350  0.42530  Biso   1.000  C
  C12      1.0000 0.29150  0.63350  0.07470  Biso   1.000  C
  H9       1.0000 0.85030  0.89340  0.60300  Biso   1.000  H
  H10      1.0000 0.64970  0.39340  0.89700  Biso   1.000  H
  H11      1.0000 0.14970  0.10660  0.39700  Biso   1.000  H
  H12      1.0000 0.35030  0.60660  0.10300  Biso   1.000  H
  C13      1.0000 0.69740  0.91350  0.54280  Biso   1.000  C
  C14      1.0000 0.80260  0.41350  0.95720  Biso   1.000  C
  C15      1.0000 0.30260  0.08650  0.45720  Biso   1.000  C
  C16      1.0000 0.19740  0.58650  0.04280  Biso   1.000  C
  H13      1.0000 0.69300  0.97050  0.55000  Biso   1.000  H
  H14      1.0000 0.80700  0.47050  0.95000  Biso   1.000  H
  H15      1.0000 0.30700  0.02950  0.45000  Biso   1.000  H
  H16      1.0000 0.19300  0.52950  0.05000  Biso   1.000  H
  C17      1.0000 0.60990  0.87270  0.49970  Biso   1.000  C
  C18      1.0000 0.89010  0.37270  0.00030  Biso   1.000  C
  C19      1.0000 0.39010  0.12730  0.50030  Biso   1.000  C
  C20      1.0000 0.10990  0.62730  0.99970  Biso   1.000  C
  H17      1.0000 0.54680  0.90250  0.47750  Biso   1.000  H
  H18      1.0000 0.95320  0.40250  0.02250  Biso   1.000  H
  H19      1.0000 0.45320  0.09750  0.52250  Biso   1.000  H
  H20      1.0000 0.04680  0.59750  0.97750  Biso   1.000  H
  C21      1.0000 0.61820  0.78690  0.49030  Biso   1.000  C
  C22      1.0000 0.88180  0.28690  0.00970  Biso   1.000  C
  C23      1.0000 0.38180  0.21310  0.50970  Biso   1.000  C
  C24      1.0000 0.11820  0.71310  0.99030  Biso   1.000  C
  C25      1.0000 0.52770  0.74170  0.44750  Biso   1.000  C
  C26      1.0000 0.97230  0.24170  0.05250  Biso   1.000  C
  C27      1.0000 0.47230  0.25830  0.55250  Biso   1.000  C
  C28      1.0000 0.02770  0.75830  0.94750  Biso   1.000  C
  C29      1.0000 0.49980  0.66070  0.43790  Biso   1.000  C
  C30      1.0000 0.00020  0.16070  0.06210  Biso   1.000  C
  C31      1.0000 0.50020  0.33930  0.56210  Biso   1.000  C
  C32      1.0000 0.99980  0.83930  0.93790  Biso   1.000  C
  H21      1.0000 0.53930  0.61630  0.46030  Biso   1.000  H
  H22      1.0000 0.96070  0.11630  0.03970  Biso   1.000  H
  H23      1.0000 0.46070  0.38370  0.53970  Biso   1.000  H
  H24      1.0000 0.03930  0.88370  0.96030  Biso   1.000  H
  C33      1.0000 0.37310  0.73090  0.37140  Biso   1.000  C
  C34      1.0000 0.12690  0.23090  0.12860  Biso   1.000  C
  C35      1.0000 0.62690  0.26910  0.62860  Biso   1.000  C
  C36      1.0000 0.87310  0.76910  0.87140  Biso   1.000  C
  C37      1.0000 0.00920  0.88950  0.11630  Biso   1.000  C
  C38      1.0000 0.49080  0.38950  0.38370  Biso   1.000  C
  C39      1.0000 0.99080  0.11050  0.88370  Biso   1.000  C
  C40      1.0000 0.50920  0.61050  0.61630  Biso   1.000  C
  H25      1.0000 0.96050  0.91730  0.08300  Biso   1.000  H
  H26      1.0000 0.53950  0.41730  0.41700  Biso   1.000  H
  H27      1.0000 0.03950  0.08270  0.91700  Biso   1.000  H
  H28      1.0000 0.46050  0.58270  0.58300  Biso   1.000  H
  C41      1.0000 0.99490  0.81080  0.13550  Biso   1.000  C
  C42      1.0000 0.50510  0.31080  0.36450  Biso   1.000  C
  C43      1.0000 0.00510  0.18920  0.86450  Biso   1.000  C
  C44      1.0000 0.49490  0.68920  0.63550  Biso   1.000  C
  C45      1.0000 0.91300  0.74290  0.11260  Biso   1.000  C
  C46      1.0000 0.58700  0.24290  0.38740  Biso   1.000  C
  C47      1.0000 0.08700  0.25710  0.88740  Biso   1.000  C
  C48      1.0000 0.41300  0.75710  0.61260  Biso   1.000  C
  C49      1.0000 0.81430  0.75960  0.06740  Biso   1.000  C
  C50      1.0000 0.68570  0.25960  0.43260  Biso   1.000  C
  C51      1.0000 0.18570  0.24040  0.93260  Biso   1.000  C
  C52      1.0000 0.31430  0.74040  0.56740  Biso   1.000  C
  H29      1.0000 0.79920  0.81390  0.05290  Biso   1.000  H
  H30      1.0000 0.70080  0.31390  0.44710  Biso   1.000  H
  H31      1.0000 0.20080  0.18610  0.94710  Biso   1.000  H
  H32      1.0000 0.29920  0.68610  0.55290  Biso   1.000  H
  C53      1.0000 0.73800  0.69670  0.04370  Biso   1.000  C
  C54      1.0000 0.76200  0.19670  0.45630  Biso   1.000  C
  C55      1.0000 0.26200  0.30330  0.95630  Biso   1.000  C
  C56      1.0000 0.23800  0.80330  0.54370  Biso   1.000  C
  H33      1.0000 0.67200  0.70890  0.01330  Biso   1.000  H
  H34      1.0000 0.82800  0.20890  0.48670  Biso   1.000  H
  H35      1.0000 0.32800  0.29110  0.98670  Biso   1.000  H
  H36      1.0000 0.17200  0.79110  0.51330  Biso   1.000  H
  C57      1.0000 0.75890  0.61690  0.06450  Biso   1.000  C
  C58      1.0000 0.74110  0.11690  0.43550  Biso   1.000  C
  C59      1.0000 0.24110  0.38310  0.93550  Biso   1.000  C
  C60      1.0000 0.25890  0.88310  0.56450  Biso   1.000  C
  H37      1.0000 0.70770  0.57470  0.04780  Biso   1.000  H
  H38      1.0000 0.79230  0.07470  0.45220  Biso   1.000  H
  H39      1.0000 0.29230  0.42530  0.95220  Biso   1.000  H
  H40      1.0000 0.20770  0.92530  0.54780  Biso   1.000  H
  C61      1.0000 0.85540  0.59830  0.11020  Biso   1.000  C
  C62      1.0000 0.64460  0.09830  0.38980  Biso   1.000  C
  C63      1.0000 0.14460  0.40170  0.88980  Biso   1.000  C
  C64      1.0000 0.35540  0.90170  0.61020  Biso   1.000  C
  H41      1.0000 0.86880  0.54370  0.12470  Biso   1.000  H
  H42      1.0000 0.63120  0.04370  0.37530  Biso   1.000  H
  H43      1.0000 0.13120  0.45630  0.87530  Biso   1.000  H
  H44      1.0000 0.36880  0.95630  0.62470  Biso   1.000  H
  C65      1.0000 0.93350  0.66210  0.13470  Biso   1.000  C
  C66      1.0000 0.56650  0.16210  0.36530  Biso   1.000  C
  C67      1.0000 0.06650  0.33790  0.86530  Biso   1.000  C
  C68      1.0000 0.43350  0.83790  0.63470  Biso   1.000  C
  H45      1.0000 0.99870  0.65000  0.16570  Biso   1.000  H
  H46      1.0000 0.50130  0.15000  0.33430  Biso   1.000  H
  H47      1.0000 0.00130  0.35000  0.83430  Biso   1.000  H
  H48      1.0000 0.49870  0.85000  0.66570  Biso   1.000  H
  C69      1.0000 0.15230  0.86420  0.19470  Biso   1.000  C
  C70      1.0000 0.34770  0.36420  0.30530  Biso   1.000  C
  C71      1.0000 0.84770  0.13580  0.80530  Biso   1.000  C
  C72      1.0000 0.65230  0.63580  0.69470  Biso   1.000  C
  C73      1.0000 0.25880  0.86450  0.24380  Biso   1.000  C
  C74      1.0000 0.24120  0.36450  0.25620  Biso   1.000  C
  C75      1.0000 0.74120  0.13550  0.75620  Biso   1.000  C
  C76      1.0000 0.75880  0.63550  0.74380  Biso   1.000  C
  H49      1.0000 0.30920  0.91320  0.23790  Biso   1.000  H
  H50      1.0000 0.19080  0.41320  0.26210  Biso   1.000  H
  H51      1.0000 0.69080  0.08680  0.76210  Biso   1.000  H
  H52      1.0000 0.80920  0.58680  0.73790  Biso   1.000  H
  C77      1.0000 0.33300  0.78190  0.24660  Biso   1.000  C
  C78      1.0000 0.16700  0.28190  0.25340  Biso   1.000  C
  C79      1.0000 0.66700  0.21810  0.75340  Biso   1.000  C
  C80      1.0000 0.83300  0.71810  0.74660  Biso   1.000  C
  H53      1.0000 0.30110  0.74290  0.21150  Biso   1.000  H
  H54      1.0000 0.19890  0.24290  0.28850  Biso   1.000  H
  H55      1.0000 0.69890  0.25710  0.78850  Biso   1.000  H
  H56      1.0000 0.80110  0.75710  0.71150  Biso   1.000  H
  C81      1.0000 0.46640  0.79240  0.24610  Biso   1.000  C
  C82      1.0000 0.03360  0.29240  0.25390  Biso   1.000  C
  C83      1.0000 0.53360  0.20760  0.75390  Biso   1.000  C
  C84      1.0000 0.96640  0.70760  0.74610  Biso   1.000  C
  C85      1.0000 0.52560  0.86480  0.26570  Biso   1.000  C
  C86      1.0000 0.97440  0.36480  0.23430  Biso   1.000  C
  C87      1.0000 0.47440  0.13520  0.73430  Biso   1.000  C
  C88      1.0000 0.02560  0.63520  0.76570  Biso   1.000  C
  H57      1.0000 0.48250  0.90980  0.27990  Biso   1.000  H
  H58      1.0000 0.01750  0.40980  0.22010  Biso   1.000  H
  H59      1.0000 0.51750  0.09020  0.72010  Biso   1.000  H
  H60      1.0000 0.98250  0.59020  0.77990  Biso   1.000  H
  C89      1.0000 0.65040  0.87180  0.26470  Biso   1.000  C
  C90      1.0000 0.84960  0.37180  0.23530  Biso   1.000  C
  C91      1.0000 0.34960  0.12820  0.73530  Biso   1.000  C
  C92      1.0000 0.15040  0.62820  0.76470  Biso   1.000  C
  H61      1.0000 0.68950  0.92100  0.27770  Biso   1.000  H
  H62      1.0000 0.81050  0.42100  0.22230  Biso   1.000  H
  H63      1.0000 0.31050  0.07900  0.72230  Biso   1.000  H
  H64      1.0000 0.18950  0.57900  0.77770  Biso   1.000  H
  C93      1.0000 0.71260  0.80540  0.24420  Biso   1.000  C
  C94      1.0000 0.78740  0.30540  0.25580  Biso   1.000  C
  C95      1.0000 0.28740  0.19460  0.75580  Biso   1.000  C
  C96      1.0000 0.21260  0.69460  0.74420  Biso   1.000  C
  H65      1.0000 0.79520  0.80910  0.24460  Biso   1.000  H
  H66      1.0000 0.70480  0.30910  0.25540  Biso   1.000  H
  H67      1.0000 0.20480  0.19090  0.75540  Biso   1.000  H
  H68      1.0000 0.29520  0.69090  0.74460  Biso   1.000  H
  C97      1.0000 0.65690  0.73490  0.22360  Biso   1.000  C
  C98      1.0000 0.84310  0.23490  0.27640  Biso   1.000  C
  C99      1.0000 0.34310  0.26510  0.77640  Biso   1.000  C
  C100     1.0000 0.15690  0.76510  0.72360  Biso   1.000  C
  H69      1.0000 0.69990  0.69130  0.20710  Biso   1.000  H
  H70      1.0000 0.80010  0.19130  0.29290  Biso   1.000  H
  H71      1.0000 0.30010  0.30870  0.79290  Biso   1.000  H
  H72      1.0000 0.19990  0.80870  0.70710  Biso   1.000  H
  C101     1.0000 0.53200  0.72700  0.22690  Biso   1.000  C
  C102     1.0000 0.96800  0.22700  0.27310  Biso   1.000  C
  C103     1.0000 0.46800  0.27300  0.77310  Biso   1.000  C
  C104     1.0000 0.03200  0.77300  0.72690  Biso   1.000  C
  H73      1.0000 0.49450  0.67660  0.21570  Biso   1.000  H
  H74      1.0000 0.00550  0.17660  0.28430  Biso   1.000  H
  H75      1.0000 0.50550  0.32340  0.78430  Biso   1.000  H
  H76      1.0000 0.99450  0.82340  0.71570  Biso   1.000  H
  C105     1.0000 0.28460  0.76150  0.31670  Biso   1.000  C
  C106     1.0000 0.21540  0.26150  0.18330  Biso   1.000  C
  C107     1.0000 0.71540  0.23850  0.68330  Biso   1.000  C
  C108     1.0000 0.78460  0.73850  0.81670  Biso   1.000  C
  H77      1.0000 0.21780  0.72220  0.30990  Biso   1.000  H
  H78      1.0000 0.28220  0.22220  0.19010  Biso   1.000  H
  H79      1.0000 0.78220  0.27780  0.69010  Biso   1.000  H
  H80      1.0000 0.71780  0.77780  0.80990  Biso   1.000  H
  C109     1.0000 0.23580  0.85200  0.32060  Biso   1.000  C
  C110     1.0000 0.26420  0.35200  0.17940  Biso   1.000  C
  C111     1.0000 0.76420  0.14800  0.67940  Biso   1.000  C
  C112     1.0000 0.73580  0.64800  0.82060  Biso   1.000  C
  H81      1.0000 0.29430  0.88530  0.34880  Biso   1.000  H
  H82      1.0000 0.20570  0.38530  0.15120  Biso   1.000  H
  H83      1.0000 0.70570  0.11470  0.65120  Biso   1.000  H
  H84      1.0000 0.79430  0.61470  0.84880  Biso   1.000  H
  C113     1.0000 0.11360  0.86690  0.34370  Biso   1.000  C
  C114     1.0000 0.38640  0.36690  0.15630  Biso   1.000  C
  C115     1.0000 0.88640  0.13310  0.65630  Biso   1.000  C
  C116     1.0000 0.61360  0.63310  0.84370  Biso   1.000  C
  C117     1.0000 0.05770  0.94320  0.33280  Biso   1.000  C
  C118     1.0000 0.44230  0.44320  0.16720  Biso   1.000  C
  C119     1.0000 0.94230  0.05680  0.66720  Biso   1.000  C
  C120     1.0000 0.55770  0.55680  0.83280  Biso   1.000  C
  H85      1.0000 0.09480  0.98430  0.30940  Biso   1.000  H
  H86      1.0000 0.40520  0.48430  0.19060  Biso   1.000  H
  H87      1.0000 0.90520  0.01570  0.69060  Biso   1.000  H
  H88      1.0000 0.59480  0.51570  0.80940  Biso   1.000  H
  C121     1.0000 0.94770  0.95980  0.35600  Biso   1.000  C
  C122     1.0000 0.55230  0.45980  0.14400  Biso   1.000  C
  C123     1.0000 0.05230  0.04020  0.64400  Biso   1.000  C
  C124     1.0000 0.44770  0.54020  0.85600  Biso   1.000  C
  H89      1.0000 0.91060  0.01070  0.34630  Biso   1.000  H
  H90      1.0000 0.58940  0.51070  0.15370  Biso   1.000  H
  H91      1.0000 0.08940  0.98930  0.65370  Biso   1.000  H
  H92      1.0000 0.41060  0.48930  0.84630  Biso   1.000  H
  C125     1.0000 0.89460  0.90290  0.39200  Biso   1.000  C
  C126     1.0000 0.60540  0.40290  0.10800  Biso   1.000  C
  C127     1.0000 0.10540  0.09710  0.60800  Biso   1.000  C
  C128     1.0000 0.39460  0.59710  0.89200  Biso   1.000  C
  H93      1.0000 0.82360  0.91580  0.41000  Biso   1.000  H
  H94      1.0000 0.67640  0.41580  0.09000  Biso   1.000  H
  H95      1.0000 0.17640  0.08420  0.59000  Biso   1.000  H
  H96      1.0000 0.32360  0.58420  0.91000  Biso   1.000  H
  C129     1.0000 0.94460  0.82590  0.40250  Biso   1.000  C
  C130     1.0000 0.55540  0.32590  0.09750  Biso   1.000  C
  C131     1.0000 0.05540  0.17410  0.59750  Biso   1.000  C
  C132     1.0000 0.44460  0.67410  0.90250  Biso   1.000  C
  H97      1.0000 0.90520  0.78560  0.42550  Biso   1.000  H
  H98      1.0000 0.59480  0.28560  0.07450  Biso   1.000  H
  H99      1.0000 0.09480  0.21440  0.57450  Biso   1.000  H
  H100     1.0000 0.40520  0.71440  0.92550  Biso   1.000  H
  C133     1.0000 0.05620  0.80720  0.37850  Biso   1.000  C
  C134     1.0000 0.44380  0.30720  0.12150  Biso   1.000  C
  C135     1.0000 0.94380  0.19280  0.62150  Biso   1.000  C
  C136     1.0000 0.55620  0.69280  0.87850  Biso   1.000  C
  H101     1.0000 0.09050  0.75500  0.38610  Biso   1.000  H
  H102     1.0000 0.40950  0.25500  0.11390  Biso   1.000  H
  H103     1.0000 0.90950  0.24500  0.61390  Biso   1.000  H
  H104     1.0000 0.59050  0.74500  0.88610  Biso   1.000  H
  C137     1.0000 0.77680  0.60610  0.35270  Biso   1.000  C
  C138     1.0000 0.72320  0.10610  0.14730  Biso   1.000  C
  C139     1.0000 0.22320  0.39390  0.64730  Biso   1.000  C
  C140     1.0000 0.27680  0.89390  0.85270  Biso   1.000  C
  H105     1.0000 0.80070  0.59050  0.39920  Biso   1.000  H
  H106     1.0000 0.69930  0.09050  0.10080  Biso   1.000  H
  H107     1.0000 0.19930  0.40950  0.60080  Biso   1.000  H
  H108     1.0000 0.30070  0.90950  0.89920  Biso   1.000  H
  H109     1.0000 0.74510  0.66220  0.35320  Biso   1.000  H
  H110     1.0000 0.75490  0.16220  0.14680  Biso   1.000  H
  H111     1.0000 0.25490  0.33780  0.64680  Biso   1.000  H
  H112     1.0000 0.24510  0.83780  0.85320  Biso   1.000  H
  Cl9      1.0000 0.66750  0.54350  0.32320  Biso   1.000  Cl
  Cl10     1.0000 0.83250  0.04350  0.17680  Biso   1.000  Cl
  Cl11     1.0000 0.33250  0.45650  0.67680  Biso   1.000  Cl
  Cl12     1.0000 0.16750  0.95650  0.82320  Biso   1.000  Cl
  Cl13     1.0000 0.90290  0.60820  0.31030  Biso   1.000  Cl
  Cl14     1.0000 0.59710  0.10820  0.18970  Biso   1.000  Cl
  Cl15     1.0000 0.09710  0.39180  0.68970  Biso   1.000  Cl
  Cl16     1.0000 0.40290  0.89180  0.81030  Biso   1.000  Cl
  N9       1.0000 0.50030  0.13690  0.02260  Biso   1.000  N
  N10      1.0000 0.99970  0.63690  0.47740  Biso   1.000  N
  N11      1.0000 0.49970  0.86310  0.97740  Biso   1.000  N
  N12      1.0000 0.00030  0.36310  0.52260  Biso   1.000  N
  C141     1.0000 0.49010  0.10970  0.97100  Biso   1.000  C
  C142     1.0000 0.00990  0.60970  0.52900  Biso   1.000  C
  C143     1.0000 0.50990  0.89030  0.02900  Biso   1.000  C
  C144     1.0000 0.99010  0.39030  0.47100  Biso   1.000  C
  C145     1.0000 0.47300  0.06610  0.91280  Biso   1.000  C
  C146     1.0000 0.02700  0.56610  0.58720  Biso   1.000  C
  C147     1.0000 0.52700  0.93390  0.08720  Biso   1.000  C
  C148     1.0000 0.97300  0.43390  0.41280  Biso   1.000  C
  H113     1.0000 0.49420  0.10020  0.87610  Biso   1.000  H
  H114     1.0000 0.00580  0.60020  0.62390  Biso   1.000  H
  H115     1.0000 0.50580  0.89980  0.12390  Biso   1.000  H
  H116     1.0000 0.99420  0.39980  0.37610  Biso   1.000  H
  H117     1.0000 0.39120  0.04970  0.90490  Biso   1.000  H
  H118     1.0000 0.10880  0.54970  0.59510  Biso   1.000  H
  H119     1.0000 0.60880  0.95030  0.09510  Biso   1.000  H
  H120     1.0000 0.89120  0.45030  0.40490  Biso   1.000  H
  H121     1.0000 0.52320  0.01750  0.91620  Biso   1.000  H
  H122     1.0000 0.97680  0.51750  0.58380  Biso   1.000  H
  H123     1.0000 0.47680  0.98250  0.08380  Biso   1.000  H
  H124     1.0000 0.02320  0.48250  0.41620  Biso   1.000  H
