data_image0
_cell_length_a       8.728
_cell_length_b       15.988
_cell_length_c       9.052
_cell_angle_alpha    81.07
_cell_angle_beta     72.65
_cell_angle_gamma    79.25

_symmetry_space_group_name_H-M    "P 1"
_symmetry_int_tables_number       1

loop_
  _symmetry_equiv_pos_as_xyz
  'x, y, z'

loop_
  _atom_site_label
  _atom_site_occupancy
  _atom_site_fract_x
  _atom_site_fract_y
  _atom_site_fract_z
  _atom_site_thermal_displace_type
  _atom_site_B_iso_or_equiv
  _atom_site_type_symbol
  Cu1      1.0000 0.00000  0.00000  0.00000  Biso   1.000  Cu
  Cu2      1.0000 0.00000  0.50000  0.00000  Biso   1.000  Cu
  O1       1.0000 0.78140  0.04490  0.12950  Biso   1.000  O
  O2       1.0000 0.21860  0.95510  0.87050  Biso   1.000  O
  O3       1.0000 0.06760  0.93510  0.18490  Biso   1.000  O
  O4       1.0000 0.93240  0.06490  0.81510  Biso   1.000  O
  O5       1.0000 0.87490  0.43080  0.18340  Biso   1.000  O
  O6       1.0000 0.12510  0.56920  0.81660  Biso   1.000  O
  O7       1.0000 0.16690  0.47210  0.09540  Biso   1.000  O
  O8       1.0000 0.83310  0.52790  0.90460  Biso   1.000  O
  O9       1.0000 0.08890  0.11850  0.06570  Biso   1.000  O
  O10      1.0000 0.91110  0.88150  0.93430  Biso   1.000  O
  O11      1.0000 0.07040  0.38600  0.81130  Biso   1.000  O
  O12      1.0000 0.92960  0.61400  0.18870  Biso   1.000  O
  C1       1.0000 0.75430  0.04020  0.27090  Biso   1.000  C
  C2       1.0000 0.24570  0.95980  0.72910  Biso   1.000  C
  C3       1.0000 0.59260  0.08610  0.34330  Biso   1.000  C
  C4       1.0000 0.40740  0.91390  0.65670  Biso   1.000  C
  C5       1.0000 0.81110  0.98920  0.36510  Biso   1.000  C
  C6       1.0000 0.18890  0.01080  0.63490  Biso   1.000  C
  C7       1.0000 0.96560  0.93320  0.31150  Biso   1.000  C
  C8       1.0000 0.03440  0.06680  0.68850  Biso   1.000  C
  C9       1.0000 0.03560  0.85880  0.42720  Biso   1.000  C
  C10      1.0000 0.96440  0.14120  0.57280  Biso   1.000  C
  C11      1.0000 0.88340  0.42090  0.29820  Biso   1.000  C
  C12      1.0000 0.11660  0.57910  0.70180  Biso   1.000  C
  C13      1.0000 0.76880  0.37370  0.42760  Biso   1.000  C
  C14      1.0000 0.23120  0.62630  0.57240  Biso   1.000  C
  C15      1.0000 0.03720  0.42350  0.33670  Biso   1.000  C
  C16      1.0000 0.96280  0.57650  0.66330  Biso   1.000  C
  C17      1.0000 0.16350  0.44740  0.23500  Biso   1.000  C
  C18      1.0000 0.83650  0.55260  0.76500  Biso   1.000  C
  C19      1.0000 0.34130  0.44370  0.27250  Biso   1.000  C
  C20      1.0000 0.65870  0.55630  0.72750  Biso   1.000  C
  C21      1.0000 0.03360  0.25310  0.94350  Biso   1.000  C
  C22      1.0000 0.96640  0.74690  0.05650  Biso   1.000  C
  C23      1.0000 0.86010  0.26920  0.97790  Biso   1.000  C
  C24      1.0000 0.13990  0.73080  0.02210  Biso   1.000  C
  C25      1.0000 0.31180  0.27550  0.82730  Biso   1.000  C
  C26      1.0000 0.68820  0.72450  0.17270  Biso   1.000  C
  C27      1.0000 0.41540  0.34840  0.82360  Biso   1.000  C
  C28      1.0000 0.58460  0.65160  0.17640  Biso   1.000  C
  C29      1.0000 0.33630  0.25050  0.65480  Biso   1.000  C
  C30      1.0000 0.66370  0.74950  0.34520  Biso   1.000  C
  C31      1.0000 0.32120  0.20190  0.94690  Biso   1.000  C
  C32      1.0000 0.67880  0.79810  0.05310  Biso   1.000  C
  C33      1.0000 0.31630  0.22980  0.09880  Biso   1.000  C
  C34      1.0000 0.68370  0.77020  0.90120  Biso   1.000  C
  C35      1.0000 0.41840  0.12560  0.90360  Biso   1.000  C
  C36      1.0000 0.58160  0.87440  0.09640  Biso   1.000  C
  N1       1.0000 0.15350  0.18410  0.98520  Biso   1.000  N
  N2       1.0000 0.84650  0.81590  0.01480  Biso   1.000  N
  N3       1.0000 0.13400  0.31460  0.86780  Biso   1.000  N
  N4       1.0000 0.86600  0.68540  0.13220  Biso   1.000  N
  F1       1.0000 0.46170  0.07020  0.29890  Biso   1.000  F
  F2       1.0000 0.53830  0.92980  0.70110  Biso   1.000  F
  F3       1.0000 0.59230  0.17440  0.30370  Biso   1.000  F
  F4       1.0000 0.40770  0.82560  0.69630  Biso   1.000  F
  F5       1.0000 0.54350  0.07920  0.48990  Biso   1.000  F
  F6       1.0000 0.45650  0.92080  0.51010  Biso   1.000  F
  F7       1.0000 0.19650  0.86610  0.40350  Biso   1.000  F
  F8       1.0000 0.80350  0.13390  0.59650  Biso   1.000  F
  F9       1.0000 0.97200  0.87180  0.57450  Biso   1.000  F
  F10      1.0000 0.02800  0.12820  0.42550  Biso   1.000  F
  F11      1.0000 0.02590  0.78250  0.41240  Biso   1.000  F
  F12      1.0000 0.97410  0.21750  0.58760  Biso   1.000  F
  F13      1.0000 0.75560  0.29500  0.38240  Biso   1.000  F
  F14      1.0000 0.24440  0.70500  0.61760  Biso   1.000  F
  F15      1.0000 0.61800  0.42300  0.42620  Biso   1.000  F
  F16      1.0000 0.38200  0.57700  0.57380  Biso   1.000  F
  F17      1.0000 0.78300  0.37140  0.56690  Biso   1.000  F
  F18      1.0000 0.21700  0.62860  0.43310  Biso   1.000  F
  F19      1.0000 0.28950  0.44780  0.42320  Biso   1.000  F
  F20      1.0000 0.71050  0.55220  0.57680  Biso   1.000  F
  F21      1.0000 0.39620  0.51210  0.19620  Biso   1.000  F
  F22      1.0000 0.60380  0.48790  0.80380  Biso   1.000  F
  F23      1.0000 0.43040  0.36370  0.23610  Biso   1.000  F
  F24      1.0000 0.56960  0.63630  0.76390  Biso   1.000  F
  H1       1.0000 0.75560  0.97260  0.48940  Biso   1.000  H
  H2       1.0000 0.24440  0.02740  0.51060  Biso   1.000  H
  H3       1.0000 0.03300  0.40830  0.45700  Biso   1.000  H
  H4       1.0000 0.96700  0.59170  0.54300  Biso   1.000  H
  H5       1.0000 0.83200  0.20690  0.01640  Biso   1.000  H
  H6       1.0000 0.16800  0.79310  0.98360  Biso   1.000  H
  H7       1.0000 0.82800  0.30730  0.87970  Biso   1.000  H
  H8       1.0000 0.17200  0.69270  0.12030  Biso   1.000  H
  H9       1.0000 0.83500  0.30050  0.07590  Biso   1.000  H
  H10      1.0000 0.16500  0.69950  0.92410  Biso   1.000  H
  H11      1.0000 0.54020  0.32490  0.81250  Biso   1.000  H
  H12      1.0000 0.45980  0.67510  0.18750  Biso   1.000  H
  H13      1.0000 0.38400  0.37460  0.93200  Biso   1.000  H
  H14      1.0000 0.61600  0.62540  0.06800  Biso   1.000  H
  H15      1.0000 0.39400  0.39720  0.73260  Biso   1.000  H
  H16      1.0000 0.60600  0.60280  0.26740  Biso   1.000  H
  H17      1.0000 0.45920  0.22470  0.60760  Biso   1.000  H
  H18      1.0000 0.54080  0.77530  0.39240  Biso   1.000  H
  H19      1.0000 0.32400  0.30330  0.57470  Biso   1.000  H
  H20      1.0000 0.67600  0.69670  0.42530  Biso   1.000  H
  H21      1.0000 0.29000  0.19540  0.65330  Biso   1.000  H
  H22      1.0000 0.71000  0.80460  0.34670  Biso   1.000  H
  H23      1.0000 0.44490  0.23600  0.06650  Biso   1.000  H
  H24      1.0000 0.55510  0.76400  0.93350  Biso   1.000  H
  H25      1.0000 0.28500  0.18630  0.20050  Biso   1.000  H
  H26      1.0000 0.71500  0.81370  0.79950  Biso   1.000  H
  H27      1.0000 0.25800  0.29230  0.11520  Biso   1.000  H
  H28      1.0000 0.74200  0.70770  0.88480  Biso   1.000  H
  H29      1.0000 0.52840  0.14060  0.90110  Biso   1.000  H
  H30      1.0000 0.47160  0.85940  0.09890  Biso   1.000  H
  H31      1.0000 0.43900  0.09980  0.80440  Biso   1.000  H
  H32      1.0000 0.56100  0.90020  0.19560  Biso   1.000  H
  H33      1.0000 0.40900  0.07460  0.99070  Biso   1.000  H
  H34      1.0000 0.59100  0.92540  0.00930  Biso   1.000  H
