data_image0
_cell_length_a       17.7
_cell_length_b       19.266
_cell_length_c       7.424
_cell_angle_alpha    90
_cell_angle_beta     91.88
_cell_angle_gamma    90

_symmetry_space_group_name_H-M    "P 1"
_symmetry_int_tables_number       1

loop_
  _symmetry_equiv_pos_as_xyz
  'x, y, z'

loop_
  _atom_site_label
  _atom_site_occupancy
  _atom_site_fract_x
  _atom_site_fract_y
  _atom_site_fract_z
  _atom_site_thermal_displace_type
  _atom_site_B_iso_or_equiv
  _atom_site_type_symbol
  Cu1      1.0000 0.50000  0.53633  0.25000  Biso   1.000  Cu
  Cu2      1.0000 0.00000  0.03633  0.25000  Biso   1.000  Cu
  Cu3      1.0000 0.50000  0.46367  0.75000  Biso   1.000  Cu
  Cu4      1.0000 0.00000  0.96367  0.75000  Biso   1.000  Cu
  O1       1.0000 0.55557  0.46797  0.12050  Biso   1.000  O
  O2       1.0000 0.05557  0.96797  0.12050  Biso   1.000  O
  O3       1.0000 0.44443  0.46797  0.37950  Biso   1.000  O
  O4       1.0000 0.94443  0.96797  0.37950  Biso   1.000  O
  O5       1.0000 0.44443  0.53203  0.87950  Biso   1.000  O
  O6       1.0000 0.94443  0.03203  0.87950  Biso   1.000  O
  O7       1.0000 0.55557  0.53203  0.62050  Biso   1.000  O
  O8       1.0000 0.05557  0.03203  0.62050  Biso   1.000  O
  O9       1.0000 0.64044  0.44408  0.34230  Biso   1.000  O
  O10      1.0000 0.14044  0.94408  0.34230  Biso   1.000  O
  O11      1.0000 0.35956  0.44408  0.15770  Biso   1.000  O
  O12      1.0000 0.85956  0.94408  0.15770  Biso   1.000  O
  O13      1.0000 0.35956  0.55592  0.65770  Biso   1.000  O
  O14      1.0000 0.85956  0.05592  0.65770  Biso   1.000  O
  O15      1.0000 0.64044  0.55592  0.84230  Biso   1.000  O
  O16      1.0000 0.14044  0.05592  0.84230  Biso   1.000  O
  O17      1.0000 0.89850  0.22885  0.24150  Biso   1.000  O
  O18      1.0000 0.39850  0.72885  0.24150  Biso   1.000  O
  O19      1.0000 0.10150  0.22885  0.25850  Biso   1.000  O
  O20      1.0000 0.60150  0.72885  0.25850  Biso   1.000  O
  O21      1.0000 0.10150  0.77115  0.75850  Biso   1.000  O
  O22      1.0000 0.60150  0.27115  0.75850  Biso   1.000  O
  O23      1.0000 0.89850  0.77115  0.74150  Biso   1.000  O
  O24      1.0000 0.39850  0.27115  0.74150  Biso   1.000  O
  O25      1.0000 0.55528  0.60773  0.12370  Biso   1.000  O
  O26      1.0000 0.05528  0.10773  0.12370  Biso   1.000  O
  O27      1.0000 0.44472  0.60773  0.37630  Biso   1.000  O
  O28      1.0000 0.94472  0.10773  0.37630  Biso   1.000  O
  O29      1.0000 0.44472  0.39227  0.87630  Biso   1.000  O
  O30      1.0000 0.94472  0.89227  0.87630  Biso   1.000  O
  O31      1.0000 0.55528  0.39227  0.62370  Biso   1.000  O
  O32      1.0000 0.05528  0.89227  0.62370  Biso   1.000  O
  N1       1.0000 0.71652  0.35396  0.11910  Biso   1.000  N
  N2       1.0000 0.21652  0.85396  0.11910  Biso   1.000  N
  N3       1.0000 0.28348  0.35396  0.38090  Biso   1.000  N
  N4       1.0000 0.78348  0.85396  0.38090  Biso   1.000  N
  N5       1.0000 0.28348  0.64604  0.88090  Biso   1.000  N
  N6       1.0000 0.78348  0.14604  0.88090  Biso   1.000  N
  N7       1.0000 0.71652  0.64604  0.61910  Biso   1.000  N
  N8       1.0000 0.21652  0.14604  0.61910  Biso   1.000  N
  C1       1.0000 0.61425  0.43854  0.18730  Biso   1.000  C
  C2       1.0000 0.11425  0.93854  0.18730  Biso   1.000  C
  C3       1.0000 0.38575  0.43854  0.31270  Biso   1.000  C
  C4       1.0000 0.88575  0.93854  0.31270  Biso   1.000  C
  C5       1.0000 0.38575  0.56146  0.81270  Biso   1.000  C
  C6       1.0000 0.88575  0.06146  0.81270  Biso   1.000  C
  C7       1.0000 0.61425  0.56146  0.68730  Biso   1.000  C
  C8       1.0000 0.11425  0.06146  0.68730  Biso   1.000  C
  C9       1.0000 0.65118  0.39272  0.04950  Biso   1.000  C
  C10      1.0000 0.15118  0.89272  0.04950  Biso   1.000  C
  C11      1.0000 0.34882  0.39272  0.45050  Biso   1.000  C
  C12      1.0000 0.84882  0.89272  0.45050  Biso   1.000  C
  C13      1.0000 0.34882  0.60728  0.95050  Biso   1.000  C
  C14      1.0000 0.84882  0.10728  0.95050  Biso   1.000  C
  C15      1.0000 0.65118  0.60728  0.54950  Biso   1.000  C
  C16      1.0000 0.15118  0.10728  0.54950  Biso   1.000  C
  C17      1.0000 0.80169  0.44424  0.01490  Biso   1.000  C
  C18      1.0000 0.30169  0.94424  0.01490  Biso   1.000  C
  C19      1.0000 0.19831  0.44424  0.48510  Biso   1.000  C
  C20      1.0000 0.69831  0.94424  0.48510  Biso   1.000  C
  C21      1.0000 0.19831  0.55576  0.98510  Biso   1.000  C
  C22      1.0000 0.69831  0.05576  0.98510  Biso   1.000  C
  C23      1.0000 0.80169  0.55576  0.51490  Biso   1.000  C
  C24      1.0000 0.30169  0.05576  0.51490  Biso   1.000  C
  C25      1.0000 0.87334  0.46441  0.97640  Biso   1.000  C
  C26      1.0000 0.37334  0.96441  0.97640  Biso   1.000  C
  C27      1.0000 0.12666  0.46441  0.52360  Biso   1.000  C
  C28      1.0000 0.62666  0.96441  0.52360  Biso   1.000  C
  C29      1.0000 0.12666  0.53559  0.02360  Biso   1.000  C
  C30      1.0000 0.62666  0.03559  0.02360  Biso   1.000  C
  C31      1.0000 0.87334  0.53559  0.47640  Biso   1.000  C
  C32      1.0000 0.37334  0.03559  0.47640  Biso   1.000  C
  C33      1.0000 0.93559  0.42107  0.01110  Biso   1.000  C
  C34      1.0000 0.43559  0.92107  0.01110  Biso   1.000  C
  C35      1.0000 0.06441  0.42107  0.48890  Biso   1.000  C
  C36      1.0000 0.56441  0.92107  0.48890  Biso   1.000  C
  C37      1.0000 0.06441  0.57893  0.98890  Biso   1.000  C
  C38      1.0000 0.56441  0.07893  0.98890  Biso   1.000  C
  C39      1.0000 0.93559  0.57893  0.51110  Biso   1.000  C
  C40      1.0000 0.43559  0.07893  0.51110  Biso   1.000  C
  C41      1.0000 0.92440  0.35719  0.08700  Biso   1.000  C
  C42      1.0000 0.42440  0.85719  0.08700  Biso   1.000  C
  C43      1.0000 0.07560  0.35719  0.41300  Biso   1.000  C
  C44      1.0000 0.57560  0.85719  0.41300  Biso   1.000  C
  C45      1.0000 0.07560  0.64281  0.91300  Biso   1.000  C
  C46      1.0000 0.57560  0.14281  0.91300  Biso   1.000  C
  C47      1.0000 0.92440  0.64281  0.58700  Biso   1.000  C
  C48      1.0000 0.42440  0.14281  0.58700  Biso   1.000  C
  C49      1.0000 0.75175  0.18260  0.33360  Biso   1.000  C
  C50      1.0000 0.25175  0.68260  0.33360  Biso   1.000  C
  C51      1.0000 0.24825  0.18260  0.16640  Biso   1.000  C
  C52      1.0000 0.74825  0.68260  0.16640  Biso   1.000  C
  C53      1.0000 0.24825  0.81740  0.66640  Biso   1.000  C
  C54      1.0000 0.74825  0.31740  0.66640  Biso   1.000  C
  C55      1.0000 0.75175  0.81740  0.83360  Biso   1.000  C
  C56      1.0000 0.25175  0.31740  0.83360  Biso   1.000  C
  C57      1.0000 0.67983  0.16347  0.37440  Biso   1.000  C
  C58      1.0000 0.17983  0.66347  0.37440  Biso   1.000  C
  C59      1.0000 0.32017  0.16347  0.12560  Biso   1.000  C
  C60      1.0000 0.82017  0.66347  0.12560  Biso   1.000  C
  C61      1.0000 0.32017  0.83653  0.62560  Biso   1.000  C
  C62      1.0000 0.82017  0.33653  0.62560  Biso   1.000  C
  C63      1.0000 0.67983  0.83653  0.87440  Biso   1.000  C
  C64      1.0000 0.17983  0.33653  0.87440  Biso   1.000  C
  C65      1.0000 0.61970  0.20820  0.33560  Biso   1.000  C
  C66      1.0000 0.11970  0.70820  0.33560  Biso   1.000  C
  C67      1.0000 0.38030  0.20820  0.16440  Biso   1.000  C
  C68      1.0000 0.88030  0.70820  0.16440  Biso   1.000  C
  C69      1.0000 0.38030  0.79180  0.66440  Biso   1.000  C
  C70      1.0000 0.88030  0.29180  0.66440  Biso   1.000  C
  C71      1.0000 0.61970  0.79180  0.83560  Biso   1.000  C
  C72      1.0000 0.11970  0.29180  0.83560  Biso   1.000  C
  C73      1.0000 0.63109  0.27101  0.25250  Biso   1.000  C
  C74      1.0000 0.13109  0.77101  0.25250  Biso   1.000  C
  C75      1.0000 0.36891  0.27101  0.24750  Biso   1.000  C
  C76      1.0000 0.86891  0.77101  0.24750  Biso   1.000  C
  C77      1.0000 0.36891  0.72899  0.74750  Biso   1.000  C
  C78      1.0000 0.86891  0.22899  0.74750  Biso   1.000  C
  C79      1.0000 0.63109  0.72899  0.75250  Biso   1.000  C
  C80      1.0000 0.13109  0.22899  0.75250  Biso   1.000  C
  C81      1.0000 0.78883  0.37746  0.08940  Biso   1.000  C
  C82      1.0000 0.28883  0.87746  0.08940  Biso   1.000  C
  C83      1.0000 0.21117  0.37746  0.41060  Biso   1.000  C
  C84      1.0000 0.71117  0.87746  0.41060  Biso   1.000  C
  C85      1.0000 0.21117  0.62254  0.91060  Biso   1.000  C
  C86      1.0000 0.71117  0.12254  0.91060  Biso   1.000  C
  C87      1.0000 0.78883  0.62254  0.58940  Biso   1.000  C
  C88      1.0000 0.28883  0.12254  0.58940  Biso   1.000  C
  C89      1.0000 0.85167  0.33477  0.12940  Biso   1.000  C
  C90      1.0000 0.35167  0.83477  0.12940  Biso   1.000  C
  C91      1.0000 0.14833  0.33477  0.37060  Biso   1.000  C
  C92      1.0000 0.64833  0.83477  0.37060  Biso   1.000  C
  C93      1.0000 0.14833  0.66523  0.87060  Biso   1.000  C
  C94      1.0000 0.64833  0.16523  0.87060  Biso   1.000  C
  C95      1.0000 0.85167  0.66523  0.62940  Biso   1.000  C
  C96      1.0000 0.35167  0.16523  0.62940  Biso   1.000  C
  C97      1.0000 0.84231  0.26668  0.20930  Biso   1.000  C
  C98      1.0000 0.34231  0.76668  0.20930  Biso   1.000  C
  C99      1.0000 0.15769  0.26668  0.29070  Biso   1.000  C
  C100     1.0000 0.65769  0.76668  0.29070  Biso   1.000  C
  C101     1.0000 0.15769  0.73332  0.79070  Biso   1.000  C
  C102     1.0000 0.65769  0.23332  0.79070  Biso   1.000  C
  C103     1.0000 0.84231  0.73332  0.70930  Biso   1.000  C
  C104     1.0000 0.34231  0.23332  0.70930  Biso   1.000  C
  C105     1.0000 0.76567  0.24687  0.24920  Biso   1.000  C
  C106     1.0000 0.26567  0.74687  0.24920  Biso   1.000  C
  C107     1.0000 0.23433  0.24687  0.25080  Biso   1.000  C
  C108     1.0000 0.73433  0.74687  0.25080  Biso   1.000  C
  C109     1.0000 0.23433  0.75313  0.75080  Biso   1.000  C
  C110     1.0000 0.73433  0.25313  0.75080  Biso   1.000  C
  C111     1.0000 0.76567  0.75313  0.74920  Biso   1.000  C
  C112     1.0000 0.26567  0.25313  0.74920  Biso   1.000  C
  C113     1.0000 0.70436  0.29097  0.20660  Biso   1.000  C
  C114     1.0000 0.20436  0.79097  0.20660  Biso   1.000  C
  C115     1.0000 0.29564  0.29097  0.29340  Biso   1.000  C
  C116     1.0000 0.79564  0.79097  0.29340  Biso   1.000  C
  C117     1.0000 0.29564  0.70903  0.79340  Biso   1.000  C
  C118     1.0000 0.79564  0.20903  0.79340  Biso   1.000  C
  C119     1.0000 0.70436  0.70903  0.70660  Biso   1.000  C
  C120     1.0000 0.20436  0.20903  0.70660  Biso   1.000  C
  H1       1.0000 0.57700  0.65200  0.16600  Biso   1.000  H
  H2       1.0000 0.07700  0.15200  0.16600  Biso   1.000  H
  H3       1.0000 0.42300  0.65200  0.33400  Biso   1.000  H
  H4       1.0000 0.92300  0.15200  0.33400  Biso   1.000  H
  H5       1.0000 0.42300  0.34800  0.83400  Biso   1.000  H
  H6       1.0000 0.92300  0.84800  0.83400  Biso   1.000  H
  H7       1.0000 0.57700  0.34800  0.66600  Biso   1.000  H
  H8       1.0000 0.07700  0.84800  0.66600  Biso   1.000  H
  H9       1.0000 0.58800  0.59000  0.04200  Biso   1.000  H
  H10      1.0000 0.08800  0.09000  0.04200  Biso   1.000  H
  H11      1.0000 0.41200  0.59000  0.45800  Biso   1.000  H
  H12      1.0000 0.91200  0.09000  0.45800  Biso   1.000  H
  H13      1.0000 0.41200  0.41000  0.95800  Biso   1.000  H
  H14      1.0000 0.91200  0.91000  0.95800  Biso   1.000  H
  H15      1.0000 0.58800  0.41000  0.54200  Biso   1.000  H
  H16      1.0000 0.08800  0.91000  0.54200  Biso   1.000  H
  H17      1.0000 0.61000  0.35600  0.99900  Biso   1.000  H
  H18      1.0000 0.11000  0.85600  0.99900  Biso   1.000  H
  H19      1.0000 0.39000  0.35600  0.50100  Biso   1.000  H
  H20      1.0000 0.89000  0.85600  0.50100  Biso   1.000  H
  H21      1.0000 0.39000  0.64400  0.00100  Biso   1.000  H
  H22      1.0000 0.89000  0.14400  0.00100  Biso   1.000  H
  H23      1.0000 0.61000  0.64400  0.49900  Biso   1.000  H
  H24      1.0000 0.11000  0.14400  0.49900  Biso   1.000  H
  H25      1.0000 0.66900  0.42500  0.94100  Biso   1.000  H
  H26      1.0000 0.16900  0.92500  0.94100  Biso   1.000  H
  H27      1.0000 0.33100  0.42500  0.55900  Biso   1.000  H
  H28      1.0000 0.83100  0.92500  0.55900  Biso   1.000  H
  H29      1.0000 0.33100  0.57500  0.05900  Biso   1.000  H
  H30      1.0000 0.83100  0.07500  0.05900  Biso   1.000  H
  H31      1.0000 0.66900  0.57500  0.44100  Biso   1.000  H
  H32      1.0000 0.16900  0.07500  0.44100  Biso   1.000  H
  H33      1.0000 0.75500  0.47900  0.98900  Biso   1.000  H
  H34      1.0000 0.25500  0.97900  0.98900  Biso   1.000  H
  H35      1.0000 0.24500  0.47900  0.51100  Biso   1.000  H
  H36      1.0000 0.74500  0.97900  0.51100  Biso   1.000  H
  H37      1.0000 0.24500  0.52100  0.01100  Biso   1.000  H
  H38      1.0000 0.74500  0.02100  0.01100  Biso   1.000  H
  H39      1.0000 0.75500  0.52100  0.48900  Biso   1.000  H
  H40      1.0000 0.25500  0.02100  0.48900  Biso   1.000  H
  H41      1.0000 0.88200  0.51500  0.91800  Biso   1.000  H
  H42      1.0000 0.38200  0.01500  0.91800  Biso   1.000  H
  H43      1.0000 0.11800  0.51500  0.58200  Biso   1.000  H
  H44      1.0000 0.61800  0.01500  0.58200  Biso   1.000  H
  H45      1.0000 0.11800  0.48500  0.08200  Biso   1.000  H
  H46      1.0000 0.61800  0.98500  0.08200  Biso   1.000  H
  H47      1.0000 0.88200  0.48500  0.41800  Biso   1.000  H
  H48      1.0000 0.38200  0.98500  0.41800  Biso   1.000  H
  H49      1.0000 0.99200  0.43800  0.97900  Biso   1.000  H
  H50      1.0000 0.49200  0.93800  0.97900  Biso   1.000  H
  H51      1.0000 0.00800  0.43800  0.52100  Biso   1.000  H
  H52      1.0000 0.50800  0.93800  0.52100  Biso   1.000  H
  H53      1.0000 0.00800  0.56200  0.02100  Biso   1.000  H
  H54      1.0000 0.50800  0.06200  0.02100  Biso   1.000  H
  H55      1.0000 0.99200  0.56200  0.47900  Biso   1.000  H
  H56      1.0000 0.49200  0.06200  0.47900  Biso   1.000  H
  H57      1.0000 0.97200  0.32400  0.11500  Biso   1.000  H
  H58      1.0000 0.47200  0.82400  0.11500  Biso   1.000  H
  H59      1.0000 0.02800  0.32400  0.38500  Biso   1.000  H
  H60      1.0000 0.52800  0.82400  0.38500  Biso   1.000  H
  H61      1.0000 0.02800  0.67600  0.88500  Biso   1.000  H
  H62      1.0000 0.52800  0.17600  0.88500  Biso   1.000  H
  H63      1.0000 0.97200  0.67600  0.61500  Biso   1.000  H
  H64      1.0000 0.47200  0.17600  0.61500  Biso   1.000  H
  H65      1.0000 0.79800  0.14800  0.36600  Biso   1.000  H
  H66      1.0000 0.29800  0.64800  0.36600  Biso   1.000  H
  H67      1.0000 0.20200  0.14800  0.13400  Biso   1.000  H
  H68      1.0000 0.70200  0.64800  0.13400  Biso   1.000  H
  H69      1.0000 0.20200  0.85200  0.63400  Biso   1.000  H
  H70      1.0000 0.70200  0.35200  0.63400  Biso   1.000  H
  H71      1.0000 0.79800  0.85200  0.86600  Biso   1.000  H
  H72      1.0000 0.29800  0.35200  0.86600  Biso   1.000  H
  H73      1.0000 0.67000  0.11400  0.43700  Biso   1.000  H
  H74      1.0000 0.17000  0.61400  0.43700  Biso   1.000  H
  H75      1.0000 0.33000  0.11400  0.06300  Biso   1.000  H
  H76      1.0000 0.83000  0.61400  0.06300  Biso   1.000  H
  H77      1.0000 0.33000  0.88600  0.56300  Biso   1.000  H
  H78      1.0000 0.83000  0.38600  0.56300  Biso   1.000  H
  H79      1.0000 0.67000  0.88600  0.93700  Biso   1.000  H
  H80      1.0000 0.17000  0.38600  0.93700  Biso   1.000  H
  H81      1.0000 0.56300  0.19300  0.37100  Biso   1.000  H
  H82      1.0000 0.06300  0.69300  0.37100  Biso   1.000  H
  H83      1.0000 0.43700  0.19300  0.12900  Biso   1.000  H
  H84      1.0000 0.93700  0.69300  0.12900  Biso   1.000  H
  H85      1.0000 0.43700  0.80700  0.62900  Biso   1.000  H
  H86      1.0000 0.93700  0.30700  0.62900  Biso   1.000  H
  H87      1.0000 0.56300  0.80700  0.87100  Biso   1.000  H
  H88      1.0000 0.06300  0.30700  0.87100  Biso   1.000  H
  H89      1.0000 0.58400  0.30500  0.22200  Biso   1.000  H
  H90      1.0000 0.08400  0.80500  0.22200  Biso   1.000  H
  H91      1.0000 0.41600  0.30500  0.27800  Biso   1.000  H
  H92      1.0000 0.91600  0.80500  0.27800  Biso   1.000  H
  H93      1.0000 0.41600  0.69500  0.77800  Biso   1.000  H
  H94      1.0000 0.91600  0.19500  0.77800  Biso   1.000  H
  H95      1.0000 0.58400  0.69500  0.72200  Biso   1.000  H
  H96      1.0000 0.08400  0.19500  0.72200  Biso   1.000  H
