data_image0
_cell_length_a       14.8653
_cell_length_b       15.0643
_cell_length_c       17.8253
_cell_angle_alpha    76.069
_cell_angle_beta     87.081
_cell_angle_gamma    79.311

_symmetry_space_group_name_H-M    "P 1"
_symmetry_int_tables_number       1

loop_
  _symmetry_equiv_pos_as_xyz
  'x, y, z'

loop_
  _atom_site_label
  _atom_site_occupancy
  _atom_site_fract_x
  _atom_site_fract_y
  _atom_site_fract_z
  _atom_site_thermal_displace_type
  _atom_site_B_iso_or_equiv
  _atom_site_type_symbol
  Dy1      1.0000 0.40344  0.44877  0.53426  Biso   1.000  Dy
  Dy2      1.0000 0.47234  0.89259  0.96727  Biso   1.000  Dy
  Cu1      1.0000 0.44856  0.70123  0.47256  Biso   1.000  Cu
  Cu2      1.0000 0.18577  0.61333  0.57393  Biso   1.000  Cu
  Cu3      1.0000 0.22839  0.29550  0.62880  Biso   1.000  Cu
  Cu4      1.0000 0.50889  0.19699  0.52917  Biso   1.000  Cu
  Cu5      1.0000 0.66298  0.43715  0.50427  Biso   1.000  Cu
  Cu6      1.0000 0.21607  0.97246  0.99971  Biso   1.000  Cu
  Cu7      1.0000 0.43946  0.14161  0.00327  Biso   1.000  Cu
  Cu8      1.0000 0.70629  0.97862  0.93301  Biso   1.000  Cu
  Cu9      1.0000 0.63411  0.73136  0.86071  Biso   1.000  Cu
  Cu10     1.0000 0.35257  0.69006  0.95881  Biso   1.000  Cu
  O1       1.0000 0.18560  0.74530  0.53260  Biso   1.000  O
  O2       1.0000 0.30260  0.59460  0.52410  Biso   1.000  O
  O3       1.0000 0.11100  0.36480  0.64820  Biso   1.000  O
  O4       1.0000 0.26410  0.41580  0.59390  Biso   1.000  O
  O5       1.0000 0.42770  0.10800  0.56590  Biso   1.000  O
  O6       1.0000 0.41230  0.28450  0.56410  Biso   1.000  O
  O7       1.0000 0.73170  0.31510  0.50840  Biso   1.000  O
  O8       1.0000 0.55720  0.37970  0.51610  Biso   1.000  O
  O9       1.0000 0.57450  0.71080  0.44120  Biso   1.000  O
  O10      1.0000 0.49090  0.56930  0.49410  Biso   1.000  O
  O11      1.0000 0.31450  0.19750  0.01910  Biso   1.000  O
  O12      1.0000 0.38790  0.04250  0.98080  Biso   1.000  O
  O13      1.0000 0.70770  0.09770  0.95220  Biso   1.000  O
  O14      1.0000 0.58220  0.99480  0.96840  Biso   1.000  O
  O15      1.0000 0.76130  0.74730  0.85480  Biso   1.000  O
  O16      1.0000 0.61490  0.82840  0.91650  Biso   1.000  O
  O17      1.0000 0.41990  0.60140  0.90320  Biso   1.000  O
  O18      1.0000 0.44780  0.76040  0.92110  Biso   1.000  O
  O19      1.0000 0.14490  0.87430  0.01650  Biso   1.000  O
  O20      1.0000 0.31820  0.87890  0.98350  Biso   1.000  O
  O21      1.0000 0.40830  0.61780  0.08140  Biso   1.000  O
  O22      1.0000 0.18900  0.02840  0.86530  Biso   1.000  O
  O23      1.0000 0.37110  0.44870  0.41570  Biso   1.000  O
  O24      1.0000 0.39640  0.39760  0.31020  Biso   1.000  O
  C1       1.0000 0.36520  0.45860  0.34490  Biso   1.000  C
  C2       1.0000 0.33060  0.56130  0.30010  Biso   1.000  C
  H1       1.0000 0.30740  0.56320  0.24860  Biso   1.000  H
  H2       1.0000 0.28050  0.59170  0.32920  Biso   1.000  H
  C3       1.0000 0.41380  0.61110  0.29200  Biso   1.000  C
  H3       1.0000 0.43630  0.60790  0.34410  Biso   1.000  H
  H4       1.0000 0.46370  0.57850  0.26430  Biso   1.000  H
  C4       1.0000 0.39040  0.71130  0.24900  Biso   1.000  C
  H5       1.0000 0.33140  0.73960  0.26900  Biso   1.000  H
  H6       1.0000 0.38210  0.71400  0.19370  Biso   1.000  H
  C5       1.0000 0.46450  0.76990  0.25600  Biso   1.000  C
  H7       1.0000 0.45980  0.80870  0.29140  Biso   1.000  H
  C6       1.0000 0.54390  0.75920  0.20160  Biso   1.000  C
  H8       1.0000 0.57020  0.69280  0.20640  Biso   1.000  H
  H9       1.0000 0.59240  0.79140  0.21250  Biso   1.000  H
  C7       1.0000 0.50430  0.80410  0.11990  Biso   1.000  C
  O25      1.0000 0.47840  0.88820  0.10220  Biso   1.000  O
  O26      1.0000 0.51310  0.75650  0.07260  Biso   1.000  O
  O27      1.0000 0.47190  0.22590  0.40370  Biso   1.000  O
  O28      1.0000 0.58000  0.86610  0.74760  Biso   1.000  O
  O29      1.0000 0.26410  0.27100  0.76900  Biso   1.000  O
  O30      1.0000 0.64550  0.86270  0.35880  Biso   1.000  O
  O31      1.0000 0.83510  0.03760  0.71520  Biso   1.000  O
  O32      1.0000 0.77120  0.44600  0.66720  Biso   1.000  O
  O33      1.0000 0.83590  0.22500  0.89030  Biso   1.000  O
  O34      1.0000 0.81980  0.20180  0.86690  Biso   1.000  O
  O35      1.0000 0.45350  0.05660  0.14540  Biso   1.000  O
  O36      1.0000 0.70500  0.95670  0.65810  Biso   1.000  O
  O37      1.0000 0.47180  0.92640  0.55730  Biso   1.000  O
  O38      1.0000 0.43240  0.43250  0.15570  Biso   1.000  O
  O39      1.0000 0.32810  0.42400  0.77310  Biso   1.000  O
  O40      1.0000 0.39350  0.42370  0.91420  Biso   1.000  O
  O41      1.0000 0.25100  0.61060  0.71300  Biso   1.000  O
  N1       1.0000 0.38690  0.83410  0.44550  Biso   1.000  N
  H10      1.0000 0.42100  0.86940  0.46380  Biso   1.000  H
  H11      1.0000 0.38380  0.85480  0.39260  Biso   1.000  H
  N2       1.0000 0.32630  0.68170  0.49360  Biso   1.000  N
  N3       1.0000 0.06680  0.61470  0.62980  Biso   1.000  N
  H12      1.0000 0.07280  0.62740  0.67710  Biso   1.000  H
  H13      1.0000 0.02370  0.66130  0.60210  Biso   1.000  H
  N4       1.0000 0.18970  0.48270  0.60490  Biso   1.000  N
  N5       1.0000 0.20470  0.16360  0.65640  Biso   1.000  N
  H14      1.0000 0.20490  0.14220  0.70930  Biso   1.000  H
  H15      1.0000 0.14780  0.16270  0.63880  Biso   1.000  H
  N6       1.0000 0.34080  0.23820  0.59320  Biso   1.000  N
  N7       1.0000 0.62930  0.10950  0.52120  Biso   1.000  N
  H16      1.0000 0.63670  0.06130  0.56460  Biso   1.000  H
  H17      1.0000 0.62790  0.08480  0.47890  Biso   1.000  H
  N8       1.0000 0.58710  0.28750  0.51460  Biso   1.000  N
  N9       1.0000 0.76070  0.51510  0.49670  Biso   1.000  N
  H18      1.0000 0.77580  0.51860  0.54520  Biso   1.000  H
  H19      1.0000 0.81250  0.48910  0.47370  Biso   1.000  H
  N10      1.0000 0.58570  0.55440  0.48860  Biso   1.000  N
  N11      1.0000 0.12400  0.06800  0.03750  Biso   1.000  N
  H20      1.0000 0.07360  0.08520  0.00590  Biso   1.000  H
  H21      1.0000 0.10510  0.04240  0.08660  Biso   1.000  H
  N12      1.0000 0.29420  0.05800  0.99870  Biso   1.000  N
  N13      1.0000 0.50390  0.24560  0.00840  Biso   1.000  N
  H22      1.0000 0.47490  0.29970  0.97640  Biso   1.000  H
  H23      1.0000 0.50010  0.25380  0.05810  Biso   1.000  H
  N14      1.0000 0.56070  0.08300  0.98230  Biso   1.000  N
  N15      1.0000 0.82960  0.95880  0.88400  Biso   1.000  N
  H24      1.0000 0.82950  0.99850  0.83590  Biso   1.000  H
  H25      1.0000 0.87270  0.97060  0.91380  Biso   1.000  H
  N16      1.0000 0.69420  0.86530  0.90970  Biso   1.000  N
  N17      1.0000 0.63930  0.63230  0.80380  Biso   1.000  N
  H26      1.0000 0.62870  0.65860  0.75210  Biso   1.000  H
  H27      1.0000 0.69650  0.59550  0.80870  Biso   1.000  H
  N18      1.0000 0.51320  0.70820  0.88470  Biso   1.000  N
  N19      1.0000 0.23380  0.64460  0.98310  Biso   1.000  N
  H28      1.0000 0.20830  0.64140  0.93800  Biso   1.000  H
  H29      1.0000 0.24440  0.58570  0.01470  Biso   1.000  H
  N20      1.0000 0.28610  0.79640  0.98960  Biso   1.000  N
  C8       1.0000 0.26620  0.75230  0.50180  Biso   1.000  C
  C9       1.0000 0.29360  0.84640  0.47860  Biso   1.000  C
  H30      1.0000 0.29770  0.86750  0.52720  Biso   1.000  H
  C10      1.0000 0.22510  0.92060  0.42660  Biso   1.000  C
  H31      1.0000 0.16510  0.92530  0.45360  Biso   1.000  H
  H32      1.0000 0.24530  0.98110  0.41950  Biso   1.000  H
  C11      1.0000 0.21190  0.90460  0.34850  Biso   1.000  C
  C12      1.0000 0.26050  0.94490  0.28530  Biso   1.000  C
  H33      1.0000 0.30190  0.98360  0.29160  Biso   1.000  H
  C13      1.0000 0.24980  0.92980  0.21340  Biso   1.000  C
  H34      1.0000 0.28510  0.95640  0.17090  Biso   1.000  H
  C14      1.0000 0.18730  0.87550  0.20290  Biso   1.000  C
  H35      1.0000 0.17850  0.86600  0.15320  Biso   1.000  H
  C15      1.0000 0.13780  0.83540  0.26700  Biso   1.000  C
  H36      1.0000 0.09520  0.79820  0.26030  Biso   1.000  H
  C16      1.0000 0.14900  0.84830  0.33790  Biso   1.000  C
  H37      1.0000 0.11500  0.81990  0.38060  Biso   1.000  H
  C17      1.0000 0.11800  0.45190  0.63230  Biso   1.000  C
  C18      1.0000 0.03580  0.52620  0.64120  Biso   1.000  C
  H38      1.0000 0.01130  0.50960  0.69510  Biso   1.000  H
  C19      1.0000 0.96000  0.52870  0.58430  Biso   1.000  C
  H39      1.0000 0.94330  0.46620  0.59430  Biso   1.000  H
  H40      1.0000 0.90490  0.57260  0.59440  Biso   1.000  H
  C20      1.0000 0.98690  0.55740  0.49990  Biso   1.000  C
  C21      1.0000 0.03980  0.49400  0.46360  Biso   1.000  C
  H41      1.0000 0.05870  0.43160  0.49160  Biso   1.000  H
  C22      1.0000 0.06530  0.52070  0.38730  Biso   1.000  C
  H42      1.0000 0.10160  0.47660  0.36300  Biso   1.000  H
  C23      1.0000 0.03780  0.61270  0.34540  Biso   1.000  C
  H43      1.0000 0.05560  0.63100  0.29270  Biso   1.000  H
  C24      1.0000 0.98560  0.67550  0.38060  Biso   1.000  C
  H44      1.0000 0.96700  0.73780  0.35220  Biso   1.000  H
  C25      1.0000 0.95930  0.64970  0.45700  Biso   1.000  C
  H45      1.0000 0.92260  0.69410  0.48080  Biso   1.000  H
  C26      1.0000 0.35450  0.15230  0.59090  Biso   1.000  C
  C27      1.0000 0.27420  0.10190  0.62240  Biso   1.000  C
  H46      1.0000 0.29820  0.04650  0.66440  Biso   1.000  H
  C28      1.0000 0.23570  0.06680  0.55800  Biso   1.000  C
  H47      1.0000 0.28730  0.03100  0.53430  Biso   1.000  H
  H48      1.0000 0.19410  0.02360  0.58200  Biso   1.000  H
  C29      1.0000 0.18470  0.14130  0.49470  Biso   1.000  C
  C30      1.0000 0.22530  0.19840  0.44020  Biso   1.000  C
  H49      1.0000 0.29000  0.19170  0.44150  Biso   1.000  H
  C31      1.0000 0.17900  0.26640  0.38210  Biso   1.000  C
  H50      1.0000 0.21010  0.30710  0.34530  Biso   1.000  H
  C32      1.0000 0.08840  0.27270  0.38000  Biso   1.000  C
  H51      1.0000 0.05400  0.31830  0.34050  Biso   1.000  H
  C33      1.0000 0.04750  0.21860  0.43020  Biso   1.000  C
  H52      1.0000 0.98330  0.22320  0.42580  Biso   1.000  H
  C34      1.0000 0.09200  0.15400  0.49010  Biso   1.000  C
  H53      1.0000 0.05830  0.11800  0.52860  Biso   1.000  H
  C35      1.0000 0.67480  0.26110  0.51270  Biso   1.000  C
  C36      1.0000 0.70780  0.15940  0.51360  Biso   1.000  C
  H54      1.0000 0.74720  0.13120  0.56010  Biso   1.000  H
  C37      1.0000 0.76730  0.14890  0.44160  Biso   1.000  C
  H55      1.0000 0.72650  0.15620  0.39750  Biso   1.000  H
  H56      1.0000 0.80340  0.19960  0.42850  Biso   1.000  H
  C38      1.0000 0.83120  0.05800  0.45190  Biso   1.000  C
  C39      1.0000 0.90070  0.03460  0.50530  Biso   1.000  C
  H57      1.0000 0.90580  0.07630  0.53660  Biso   1.000  H
  C40      1.0000 0.96360  0.95180  0.51480  Biso   1.000  C
  H58      1.0000 0.01100  0.93630  0.55200  Biso   1.000  H
  C41      1.0000 0.95420  0.89240  0.46730  Biso   1.000  C
  H59      1.0000 0.99880  0.83760  0.47040  Biso   1.000  H
  C42      1.0000 0.88660  0.90920  0.41880  Biso   1.000  C
  H60      1.0000 0.88130  0.86650  0.38850  Biso   1.000  H
  C43      1.0000 0.82040  0.99350  0.41200  Biso   1.000  C
  H61      1.0000 0.76870  0.00450  0.37970  Biso   1.000  H
  C44      1.0000 0.62160  0.62680  0.46150  Biso   1.000  C
  C45      1.0000 0.72430  0.60860  0.44970  Biso   1.000  C
  H62      1.0000 0.75080  0.65510  0.46910  Biso   1.000  H
  C46      1.0000 0.75050  0.61800  0.36330  Biso   1.000  C
  H63      1.0000 0.71040  0.67300  0.33210  Biso   1.000  H
  H64      1.0000 0.81440  0.62870  0.35570  Biso   1.000  H
  C47      1.0000 0.74210  0.53460  0.33500  Biso   1.000  C
  C48      1.0000 0.81920  0.47120  0.32470  Biso   1.000  C
  H65      1.0000 0.87790  0.48350  0.33270  Biso   1.000  H
  C49      1.0000 0.81260  0.38840  0.30260  Biso   1.000  C
  H66      1.0000 0.86620  0.34560  0.29590  Biso   1.000  H
  C50      1.0000 0.72690  0.37100  0.29090  Biso   1.000  C
  H67      1.0000 0.72140  0.31590  0.27570  Biso   1.000  H
  C51      1.0000 0.64870  0.43370  0.30130  Biso   1.000  C
  H68      1.0000 0.59000  0.42130  0.29330  Biso   1.000  H
  C52      1.0000 0.65630  0.51340  0.32300  Biso   1.000  C
  H69      1.0000 0.60220  0.55550  0.33000  Biso   1.000  H
  C53      1.0000 0.26430  0.13490  0.01710  Biso   1.000  C
  C54      1.0000 0.16360  0.15210  0.03830  Biso   1.000  C
  H70      1.0000 0.13180  0.20550  0.99810  Biso   1.000  H
  C55      1.0000 0.15220  0.17870  0.11580  Biso   1.000  C
  H71      1.0000 0.19660  0.13450  0.15260  Biso   1.000  H
  H72      1.0000 0.16760  0.24130  0.10910  Biso   1.000  H
  C56      1.0000 0.05690  0.17940  0.15130  Biso   1.000  C
  C57      1.0000 0.97990  0.23540  0.11250  Biso   1.000  C
  H73      1.0000 0.98720  0.27520  0.06330  Biso   1.000  H
  C58      1.0000 0.89400  0.23410  0.14390  Biso   1.000  C
  H74      1.0000 0.84260  0.27230  0.11580  Biso   1.000  H
  C59      1.0000 0.88140  0.17930  0.21420  Biso   1.000  C
  H75      1.0000 0.82180  0.18130  0.23650  Biso   1.000  H
  C60      1.0000 0.95420  0.12090  0.25320  Biso   1.000  C
  H76      1.0000 0.94540  0.08060  0.30180  Biso   1.000  H
  C61      1.0000 0.04100  0.12090  0.22160  Biso   1.000  C
  H77      1.0000 0.09130  0.07940  0.24890  Biso   1.000  H
  C62      1.0000 0.62520  0.12890  0.97310  Biso   1.000  C
  C63      1.0000 0.60360  0.22740  0.98490  Biso   1.000  C
  H78      1.0000 0.60970  0.27030  0.93330  Biso   1.000  H
  C64      1.0000 0.66800  0.24500  0.03650  Biso   1.000  C
  H79      1.0000 0.65820  0.31250  0.03380  Biso   1.000  H
  H80      1.0000 0.73120  0.22630  0.01840  Biso   1.000  H
  C65      1.0000 0.65830  0.19360  0.11900  Biso   1.000  C
  C66      1.0000 0.69160  0.10000  0.14450  Biso   1.000  C
  H81      1.0000 0.72660  0.06700  0.11040  Biso   1.000  H
  C67      1.0000 0.67470  0.05480  0.21720  Biso   1.000  C
  H82      1.0000 0.69500  0.98950  0.23340  Biso   1.000  H
  C68      1.0000 0.62690  0.10440  0.26980  Biso   1.000  C
  H83      1.0000 0.61690  0.07260  0.32160  Biso   1.000  H
  C69      1.0000 0.59510  0.19770  0.24630  Biso   1.000  C
  H84      1.0000 0.56240  0.23060  0.28130  Biso   1.000  H
  C70      1.0000 0.61050  0.24290  0.17280  Biso   1.000  C
  H85      1.0000 0.58930  0.30800  0.15670  Biso   1.000  H
  C71      1.0000 0.76440  0.82010  0.87840  Biso   1.000  C
  C72      1.0000 0.85270  0.85950  0.87690  Biso   1.000  C
  H86      1.0000 0.88550  0.85740  0.82680  Biso   1.000  H
  C73      1.0000 0.91360  0.79840  0.94360  Biso   1.000  C
  H87      1.0000 0.92330  0.73310  0.93900  Biso   1.000  H
  H88      1.0000 0.97410  0.81790  0.93860  Biso   1.000  H
  C74      1.0000 0.87470  0.80290  0.02270  Biso   1.000  C
  C75      1.0000 0.81270  0.74470  0.05770  Biso   1.000  C
  H89      1.0000 0.79770  0.70270  0.03020  Biso   1.000  H
  C76      1.0000 0.77400  0.74440  0.12600  Biso   1.000  C
  H90      1.0000 0.73020  0.70590  0.14580  Biso   1.000  H
  C77      1.0000 0.80060  0.80430  0.16930  Biso   1.000  C
  H91      1.0000 0.77370  0.80550  0.21860  Biso   1.000  H
  C78      1.0000 0.86640  0.86210  0.13970  Biso   1.000  C
  H92      1.0000 0.88490  0.90140  0.16820  Biso   1.000  H
  C79      1.0000 0.90290  0.85750  0.06480  Biso   1.000  C
  H93      1.0000 0.94830  0.89340  0.04350  Biso   1.000  H
  C80      1.0000 0.49310  0.63190  0.87580  Biso   1.000  C
  C81      1.0000 0.56970  0.57570  0.83540  Biso   1.000  C
  H94      1.0000 0.54130  0.56210  0.79070  Biso   1.000  H
  C82      1.0000 0.61200  0.48290  0.88670  Biso   1.000  C
  H95      1.0000 0.56360  0.44520  0.90380  Biso   1.000  H
  H96      1.0000 0.65750  0.44920  0.85620  Biso   1.000  H
  C83      1.0000 0.65670  0.49230  0.95460  Biso   1.000  C
  C84      1.0000 0.60570  0.50460  0.02100  Biso   1.000  C
  H97      1.0000 0.54110  0.50930  0.02060  Biso   1.000  H
  C85      1.0000 0.64720  0.50990  0.08660  Biso   1.000  C
  H98      1.0000 0.61180  0.51710  0.13140  Biso   1.000  H
  C86      1.0000 0.74310  0.50450  0.08640  Biso   1.000  C
  H99      1.0000 0.77250  0.50650  0.13190  Biso   1.000  H
  C87      1.0000 0.79400  0.49650  0.02170  Biso   1.000  C
  H100     1.0000 0.85790  0.49630  0.02130  Biso   1.000  H
  C88      1.0000 0.75410  0.48890  0.95960  Biso   1.000  C
  H101     1.0000 0.79130  0.48090  0.91590  Biso   1.000  H
  C89      1.0000 0.20250  0.80050  0.00610  Biso   1.000  C
  C90      1.0000 0.16820  0.70730  0.02190  Biso   1.000  C
  H102     1.0000 0.10560  0.71710  0.99990  Biso   1.000  H
  C91      1.0000 0.16530  0.66880  0.10950  Biso   1.000  C
  H103     1.0000 0.22860  0.65190  0.12940  Biso   1.000  H
  H104     1.0000 0.13210  0.71810  0.13370  Biso   1.000  H
  C92      1.0000 0.11980  0.58510  0.13290  Biso   1.000  C
  C93      1.0000 0.02480  0.59610  0.13800  Biso   1.000  C
  H105     1.0000 0.98830  0.65640  0.12700  Biso   1.000  H
  C94      1.0000 0.98340  0.51630  0.15970  Biso   1.000  C
  H106     1.0000 0.91860  0.52250  0.16140  Biso   1.000  H
  C95      1.0000 0.03710  0.43060  0.17800  Biso   1.000  C
  H107     1.0000 0.00880  0.37730  0.19300  Biso   1.000  H
  C96      1.0000 0.13070  0.41890  0.17540  Biso   1.000  C
  H108     1.0000 0.16640  0.35820  0.18840  Biso   1.000  H
  C97      1.0000 0.17360  0.49640  0.15360  Biso   1.000  C
  H109     1.0000 0.23850  0.48900  0.15280  Biso   1.000  H
  O42      1.0000 0.45070  0.44520  0.65540  Biso   1.000  O
  O43      1.0000 0.59140  0.48380  0.67500  Biso   1.000  O
  C98      1.0000 0.52880  0.42900  0.68870  Biso   1.000  C
  C99      1.0000 0.56640  0.33260  0.74380  Biso   1.000  C
  H110     1.0000 0.62190  0.33710  0.77000  Biso   1.000  H
  H111     1.0000 0.51990  0.31620  0.78400  Biso   1.000  H
  C100     1.0000 0.58890  0.25830  0.70110  Biso   1.000  C
  H112     1.0000 0.62310  0.28330  0.65400  Biso   1.000  H
  H113     1.0000 0.53030  0.24810  0.68360  Biso   1.000  H
  C101     1.0000 0.64160  0.16580  0.73820  Biso   1.000  C
  H114     1.0000 0.68760  0.17260  0.77370  Biso   1.000  H
  H115     1.0000 0.67410  0.13580  0.69840  Biso   1.000  H
  C102     1.0000 0.57250  0.10400  0.78480  Biso   1.000  C
  H116     1.0000 0.60290  0.03800  0.79400  Biso   1.000  H
  H117     1.0000 0.56150  0.11910  0.83590  Biso   1.000  H
  C103     1.0000 0.48230  0.11280  0.74920  Biso   1.000  C
  H118     1.0000 0.49140  0.09660  0.69840  Biso   1.000  H
  H119     1.0000 0.44980  0.17800  0.74070  Biso   1.000  H
  O44      1.0000 0.59470  0.48100  0.67200  Biso   1.000  O
  C104     1.0000 0.53550  0.42370  0.67500  Biso   1.000  C
  C105     1.0000 0.55300  0.33660  0.74600  Biso   1.000  C
  H120     1.0000 0.55600  0.35870  0.79380  Biso   1.000  H
  H121     1.0000 0.50110  0.30330  0.75130  Biso   1.000  H
  C106     1.0000 0.63960  0.27020  0.73900  Biso   1.000  C
  H122     1.0000 0.67520  0.25450  0.78730  Biso   1.000  H
  H123     1.0000 0.67770  0.29910  0.69610  Biso   1.000  H
  C107     1.0000 0.61550  0.18210  0.72330  Biso   1.000  C
  H124     1.0000 0.65680  0.12640  0.75230  Biso   1.000  H
  H125     1.0000 0.62160  0.18350  0.66750  Biso   1.000  H
  C108     1.0000 0.51090  0.17970  0.75200  Biso   1.000  C
  H126     1.0000 0.50490  0.17980  0.80720  Biso   1.000  H
  H127     1.0000 0.46980  0.23500  0.72200  Biso   1.000  H
  C109     1.0000 0.48560  0.09230  0.73830  Biso   1.000  C
  H128     1.0000 0.54220  0.04690  0.73510  Biso   1.000  H
  H129     1.0000 0.45370  0.10730  0.68820  Biso   1.000  H
  C110     1.0000 0.42430  0.04820  0.80180  Biso   1.000  C
  O45      1.0000 0.45210  0.96570  0.83910  Biso   1.000  O
  O46      1.0000 0.34360  0.09020  0.79690  Biso   1.000  O
  O47      1.0000 0.92320  0.76750  0.65320  Biso   1.000  O
  O48      1.0000 0.99450  0.23830  0.64570  Biso   1.000  O
  O49      1.0000 0.32290  0.85880  0.78120  Biso   1.000  O
  O50      1.0000 0.34920  0.73870  0.68450  Biso   1.000  O
  O51      1.0000 0.71120  0.66390  0.60060  Biso   1.000  O
  O52      1.0000 0.64010  0.64500  0.64090  Biso   1.000  O
  O53      1.0000 0.49060  0.68060  0.61000  Biso   1.000  O
  O54      1.0000 0.76290  0.81000  0.57730  Biso   1.000  O
  O55      1.0000 0.90700  0.33310  0.50560  Biso   1.000  O
  O56      1.0000 0.84710  0.50250  0.78870  Biso   1.000  O
  O57      1.0000 0.78150  0.53730  0.73410  Biso   1.000  O
  O58      1.0000 0.47370  0.96540  0.30700  Biso   1.000  O
  O59      1.0000 0.11480  0.20980  0.83300  Biso   1.000  O
  O60      1.0000 0.99580  0.17300  0.90750  Biso   1.000  O
  C111     1.0000 0.03590  0.22660  0.85380  Biso   1.000  C
  C112     1.0000 0.97870  0.32900  0.83110  Biso   1.000  C
  H130     1.0000 0.99700  0.35870  0.77810  Biso   1.000  H
  H131     1.0000 0.91320  0.32480  0.82950  Biso   1.000  H
  C113     1.0000 0.98790  0.38910  0.88090  Biso   1.000  C
  H132     1.0000 0.96470  0.36290  0.93300  Biso   1.000  H
  H133     1.0000 0.94930  0.45060  0.86080  Biso   1.000  H
  C114     1.0000 0.08990  0.40290  0.88810  Biso   1.000  C
  H134     1.0000 0.11130  0.43920  0.83870  Biso   1.000  H
  H135     1.0000 0.13150  0.34210  0.90260  Biso   1.000  H
  C115     1.0000 0.08610  0.45940  0.95580  Biso   1.000  C
  H136     1.0000 0.04690  0.43360  0.99910  Biso   1.000  H
  H137     1.0000 0.14840  0.45340  0.97590  Biso   1.000  H
  C116     1.0000 0.04640  0.56280  0.92070  Biso   1.000  C
  H138     1.0000 0.98060  0.56630  0.91160  Biso   1.000  H
  H139     1.0000 0.04980  0.59650  0.96160  Biso   1.000  H
  C117     1.0000 0.08390  0.61810  0.84820  Biso   1.000  C
  O61      1.0000 0.15960  0.65180  0.84480  Biso   1.000  O
  O62      1.0000 0.03800  0.64220  0.78550  Biso   1.000  O
  O63      1.0000 0.97540  0.06120  0.92930  Biso   1.000  O
  O64      1.0000 0.99660  0.99280  0.91660  Biso   1.000  O
  O65      1.0000 0.64170  0.93130  0.48020  Biso   1.000  O
  O66      1.0000 0.32640  0.36950  0.05780  Biso   1.000  O
  O67      1.0000 0.36740  0.30880  0.11560  Biso   1.000  O
  O68      1.0000 0.35870  0.25600  0.15420  Biso   1.000  O
  O69      1.0000 0.90490  0.65490  0.79580  Biso   1.000  O
  O70      1.0000 0.45510  0.02890  0.40730  Biso   1.000  O
  O71      1.0000 0.40150  0.08530  0.37770  Biso   1.000  O
  O72      1.0000 0.86880  0.66120  0.75330  Biso   1.000  O
  O73      1.0000 0.83100  0.54700  0.75890  Biso   1.000  O
