data_image0
_cell_length_a       10.3624
_cell_length_b       6.5989
_cell_length_c       13.4372
_cell_angle_alpha    90
_cell_angle_beta     108.446
_cell_angle_gamma    90

_symmetry_space_group_name_H-M    "P 1"
_symmetry_int_tables_number       1

loop_
  _symmetry_equiv_pos_as_xyz
  'x, y, z'

loop_
  _atom_site_label
  _atom_site_occupancy
  _atom_site_fract_x
  _atom_site_fract_y
  _atom_site_fract_z
  _atom_site_thermal_displace_type
  _atom_site_B_iso_or_equiv
  _atom_site_type_symbol
  N1       1.0000 0.74620  0.23960  0.41020  Biso   1.000  N
  N2       1.0000 0.25380  0.73960  0.08980  Biso   1.000  N
  N3       1.0000 0.25380  0.76040  0.58980  Biso   1.000  N
  N4       1.0000 0.74620  0.26040  0.91020  Biso   1.000  N
  C1       1.0000 0.70070  0.38810  0.45910  Biso   1.000  C
  C2       1.0000 0.29930  0.88810  0.04090  Biso   1.000  C
  C3       1.0000 0.29930  0.61190  0.54090  Biso   1.000  C
  C4       1.0000 0.70070  0.11190  0.95910  Biso   1.000  C
  H1       1.0000 0.66810  0.50790  0.42360  Biso   1.000  H
  H2       1.0000 0.33190  0.00790  0.07640  Biso   1.000  H
  H3       1.0000 0.33190  0.49210  0.57640  Biso   1.000  H
  H4       1.0000 0.66810  0.99210  0.92360  Biso   1.000  H
  Br1      1.0000 0.97343  0.05789  0.83406  Biso   1.000  Br
  Br2      1.0000 0.02657  0.55789  0.66594  Biso   1.000  Br
  Br3      1.0000 0.02657  0.94211  0.16594  Biso   1.000  Br
  Br4      1.0000 0.97343  0.44211  0.33406  Biso   1.000  Br
  Cu1      1.0000 0.75491  0.20959  0.76452  Biso   1.000  Cu
  Cu2      1.0000 0.24509  0.70959  0.73548  Biso   1.000  Cu
  Cu3      1.0000 0.24509  0.79041  0.23548  Biso   1.000  Cu
  Cu4      1.0000 0.75491  0.29041  0.26452  Biso   1.000  Cu
  O1       1.0000 0.59310  0.97780  0.72700  Biso   1.000  O
  O2       1.0000 0.40690  0.47780  0.77300  Biso   1.000  O
  O3       1.0000 0.40690  0.02220  0.27300  Biso   1.000  O
  O4       1.0000 0.59310  0.52220  0.22700  Biso   1.000  O
  O5       1.0000 0.63870  0.45420  0.70780  Biso   1.000  O
  O6       1.0000 0.36130  0.95420  0.79220  Biso   1.000  O
  O7       1.0000 0.36130  0.54580  0.29220  Biso   1.000  O
  O8       1.0000 0.63870  0.04580  0.20780  Biso   1.000  O
  O9       1.0000 0.60480  0.68140  0.57950  Biso   1.000  O
  O10      1.0000 0.39520  0.18140  0.92050  Biso   1.000  O
  O11      1.0000 0.39520  0.31860  0.42050  Biso   1.000  O
  O12      1.0000 0.60480  0.81860  0.07950  Biso   1.000  O
  N5       1.0000 0.75370  0.19680  0.61600  Biso   1.000  N
  N6       1.0000 0.24630  0.69680  0.88400  Biso   1.000  N
  N7       1.0000 0.24630  0.80320  0.38400  Biso   1.000  N
  N8       1.0000 0.75370  0.30320  0.11600  Biso   1.000  N
  C5       1.0000 0.79540  0.06950  0.46310  Biso   1.000  C
  C6       1.0000 0.20460  0.56950  0.03690  Biso   1.000  C
  C7       1.0000 0.20460  0.93050  0.53690  Biso   1.000  C
  C8       1.0000 0.79540  0.43050  0.96310  Biso   1.000  C
  C9       1.0000 0.64360  0.51670  0.61910  Biso   1.000  C
  C10      1.0000 0.35640  0.01670  0.88090  Biso   1.000  C
  C11      1.0000 0.35640  0.48330  0.38090  Biso   1.000  C
  C12      1.0000 0.64360  0.98330  0.11910  Biso   1.000  C
  C13      1.0000 0.70180  0.36440  0.56150  Biso   1.000  C
  C14      1.0000 0.29820  0.86440  0.93850  Biso   1.000  C
  C15      1.0000 0.29820  0.63560  0.43850  Biso   1.000  C
  C16      1.0000 0.70180  0.13560  0.06150  Biso   1.000  C
  C17      1.0000 0.80040  0.05190  0.56820  Biso   1.000  C
  C18      1.0000 0.19960  0.55190  0.93180  Biso   1.000  C
  C19      1.0000 0.19960  0.94810  0.43180  Biso   1.000  C
  C20      1.0000 0.80040  0.44810  0.06820  Biso   1.000  C
  H5       1.0000 0.83730  0.93550  0.60540  Biso   1.000  H
  H6       1.0000 0.16270  0.43550  0.89460  Biso   1.000  H
  H7       1.0000 0.16270  0.06450  0.39460  Biso   1.000  H
  H8       1.0000 0.83730  0.56450  0.10540  Biso   1.000  H
  C21      1.0000 0.84440  0.90070  0.41080  Biso   1.000  C
  C22      1.0000 0.15560  0.40070  0.08920  Biso   1.000  C
  C23      1.0000 0.15560  0.09930  0.58920  Biso   1.000  C
  C24      1.0000 0.84440  0.59930  0.91080  Biso   1.000  C
  H9       1.0000 0.76790  0.82780  0.36600  Biso   1.000  H
  H10      1.0000 0.23210  0.32780  0.13400  Biso   1.000  H
  H11      1.0000 0.23210  0.17220  0.63400  Biso   1.000  H
  H12      1.0000 0.76790  0.67220  0.86600  Biso   1.000  H
  H13      1.0000 0.89990  0.81060  0.46310  Biso   1.000  H
  H14      1.0000 0.10010  0.31060  0.03690  Biso   1.000  H
  H15      1.0000 0.10010  0.18940  0.53690  Biso   1.000  H
  H16      1.0000 0.89990  0.68940  0.96310  Biso   1.000  H
  H17      1.0000 0.89710  0.95500  0.36980  Biso   1.000  H
  H18      1.0000 0.10290  0.45500  0.13020  Biso   1.000  H
  H19      1.0000 0.10290  0.04500  0.63020  Biso   1.000  H
  H20      1.0000 0.89710  0.54500  0.86980  Biso   1.000  H
  H21      1.0000 0.52180  0.98510  0.73960  Biso   1.000  H
  H22      1.0000 0.47820  0.48510  0.76040  Biso   1.000  H
  H23      1.0000 0.47820  0.01490  0.26040  Biso   1.000  H
  H24      1.0000 0.52180  0.51490  0.23960  Biso   1.000  H
  H25      1.0000 0.58710  0.88890  0.68040  Biso   1.000  H
  H26      1.0000 0.41290  0.38890  0.81960  Biso   1.000  H
  H27      1.0000 0.41290  0.11110  0.31960  Biso   1.000  H
  H28      1.0000 0.58710  0.61110  0.18040  Biso   1.000  H
