data_image0
_cell_length_a       16.108
_cell_length_b       9.363
_cell_length_c       18.88
_cell_angle_alpha    90
_cell_angle_beta     90
_cell_angle_gamma    90

_symmetry_space_group_name_H-M    "P 1"
_symmetry_int_tables_number       1

loop_
  _symmetry_equiv_pos_as_xyz
  'x, y, z'

loop_
  _atom_site_label
  _atom_site_occupancy
  _atom_site_fract_x
  _atom_site_fract_y
  _atom_site_fract_z
  _atom_site_thermal_displace_type
  _atom_site_B_iso_or_equiv
  _atom_site_type_symbol
  Cu1      1.0000 0.12419  0.56390  0.06454  Biso   1.000  Cu
  Cu2      1.0000 0.37581  0.43610  0.56454  Biso   1.000  Cu
  Cu3      1.0000 0.87581  0.06390  0.43546  Biso   1.000  Cu
  Cu4      1.0000 0.62419  0.93610  0.93546  Biso   1.000  Cu
  Cu5      1.0000 0.87581  0.43610  0.93546  Biso   1.000  Cu
  Cu6      1.0000 0.62419  0.56390  0.43546  Biso   1.000  Cu
  Cu7      1.0000 0.12419  0.93610  0.56454  Biso   1.000  Cu
  Cu8      1.0000 0.37581  0.06390  0.06454  Biso   1.000  Cu
  O1       1.0000 0.42180  0.01180  0.16020  Biso   1.000  O
  O2       1.0000 0.07820  0.98820  0.66020  Biso   1.000  O
  O3       1.0000 0.57820  0.51180  0.33980  Biso   1.000  O
  O4       1.0000 0.92180  0.48820  0.83980  Biso   1.000  O
  O5       1.0000 0.57820  0.98820  0.83980  Biso   1.000  O
  O6       1.0000 0.92180  0.01180  0.33980  Biso   1.000  O
  O7       1.0000 0.42180  0.48820  0.66020  Biso   1.000  O
  O8       1.0000 0.07820  0.51180  0.16020  Biso   1.000  O
  O9       1.0000 0.41000  0.84930  0.24680  Biso   1.000  O
  O10      1.0000 0.09000  0.15070  0.74680  Biso   1.000  O
  O11      1.0000 0.59000  0.34930  0.25320  Biso   1.000  O
  O12      1.0000 0.91000  0.65070  0.75320  Biso   1.000  O
  O13      1.0000 0.59000  0.15070  0.75320  Biso   1.000  O
  O14      1.0000 0.91000  0.84930  0.25320  Biso   1.000  O
  O15      1.0000 0.41000  0.65070  0.74680  Biso   1.000  O
  O16      1.0000 0.09000  0.34930  0.24680  Biso   1.000  O
  O17      1.0000 0.44850  0.96170  0.70760  Biso   1.000  O
  O18      1.0000 0.05150  0.03830  0.20760  Biso   1.000  O
  O19      1.0000 0.55150  0.46170  0.79240  Biso   1.000  O
  O20      1.0000 0.94850  0.53830  0.29240  Biso   1.000  O
  O21      1.0000 0.55150  0.03830  0.29240  Biso   1.000  O
  O22      1.0000 0.94850  0.96170  0.79240  Biso   1.000  O
  O23      1.0000 0.44850  0.53830  0.20760  Biso   1.000  O
  O24      1.0000 0.05150  0.46170  0.70760  Biso   1.000  O
  H1       1.0000 0.44770  0.87760  0.72460  Biso   1.000  H
  H2       1.0000 0.05230  0.12240  0.22460  Biso   1.000  H
  H3       1.0000 0.55230  0.37760  0.77540  Biso   1.000  H
  H4       1.0000 0.94770  0.62240  0.27540  Biso   1.000  H
  H5       1.0000 0.55230  0.12240  0.27540  Biso   1.000  H
  H6       1.0000 0.94770  0.87760  0.77540  Biso   1.000  H
  H7       1.0000 0.44770  0.62240  0.22460  Biso   1.000  H
  H8       1.0000 0.05230  0.37760  0.72460  Biso   1.000  H
  H9       1.0000 0.48760  0.00390  0.72940  Biso   1.000  H
  H10      1.0000 0.01240  0.99610  0.22940  Biso   1.000  H
  H11      1.0000 0.51240  0.50390  0.77060  Biso   1.000  H
  H12      1.0000 0.98760  0.49610  0.27060  Biso   1.000  H
  H13      1.0000 0.51240  0.99610  0.27060  Biso   1.000  H
  H14      1.0000 0.98760  0.00390  0.77060  Biso   1.000  H
  H15      1.0000 0.48760  0.49610  0.22940  Biso   1.000  H
  H16      1.0000 0.01240  0.50390  0.72940  Biso   1.000  H
  N1       1.0000 0.21860  0.71850  0.09450  Biso   1.000  N
  N2       1.0000 0.28140  0.28150  0.59450  Biso   1.000  N
  N3       1.0000 0.78140  0.21850  0.40550  Biso   1.000  N
  N4       1.0000 0.71860  0.78150  0.90550  Biso   1.000  N
  N5       1.0000 0.78140  0.28150  0.90550  Biso   1.000  N
  N6       1.0000 0.71860  0.71850  0.40550  Biso   1.000  N
  N7       1.0000 0.21860  0.78150  0.59450  Biso   1.000  N
  N8       1.0000 0.28140  0.21850  0.09450  Biso   1.000  N
  N9       1.0000 0.24180  0.82670  0.05270  Biso   1.000  N
  N10      1.0000 0.25820  0.17330  0.55270  Biso   1.000  N
  N11      1.0000 0.75820  0.32670  0.44730  Biso   1.000  N
  N12      1.0000 0.74180  0.67330  0.94730  Biso   1.000  N
  N13      1.0000 0.75820  0.17330  0.94730  Biso   1.000  N
  N14      1.0000 0.74180  0.82670  0.44730  Biso   1.000  N
  N15      1.0000 0.24180  0.67330  0.55270  Biso   1.000  N
  N16      1.0000 0.25820  0.32670  0.05270  Biso   1.000  N
  N17      1.0000 0.30400  0.89580  0.08280  Biso   1.000  N
  N18      1.0000 0.19600  0.10420  0.58280  Biso   1.000  N
  N19      1.0000 0.69600  0.39580  0.41720  Biso   1.000  N
  N20      1.0000 0.80400  0.60420  0.91720  Biso   1.000  N
  N21      1.0000 0.69600  0.10420  0.91720  Biso   1.000  N
  N22      1.0000 0.80400  0.89580  0.41720  Biso   1.000  N
  N23      1.0000 0.30400  0.60420  0.58280  Biso   1.000  N
  N24      1.0000 0.19600  0.39580  0.08280  Biso   1.000  N
  N25      1.0000 0.03010  0.69940  0.04560  Biso   1.000  N
  N26      1.0000 0.46990  0.30060  0.54560  Biso   1.000  N
  N27      1.0000 0.96990  0.19940  0.45440  Biso   1.000  N
  N28      1.0000 0.53010  0.80060  0.95440  Biso   1.000  N
  N29      1.0000 0.96990  0.30060  0.95440  Biso   1.000  N
  N30      1.0000 0.53010  0.69940  0.45440  Biso   1.000  N
  N31      1.0000 0.03010  0.80060  0.54560  Biso   1.000  N
  N32      1.0000 0.46990  0.19940  0.04560  Biso   1.000  N
  N33      1.0000 0.13570  0.58050  0.95840  Biso   1.000  N
  N34      1.0000 0.36430  0.41950  0.45840  Biso   1.000  N
  N35      1.0000 0.86430  0.08050  0.54160  Biso   1.000  N
  N36      1.0000 0.63570  0.91950  0.04160  Biso   1.000  N
  N37      1.0000 0.86430  0.41950  0.04160  Biso   1.000  N
  N38      1.0000 0.63570  0.58050  0.54160  Biso   1.000  N
  N39      1.0000 0.13570  0.91950  0.45840  Biso   1.000  N
  N40      1.0000 0.36430  0.08050  0.95840  Biso   1.000  N
  C1       1.0000 0.26690  0.72150  0.15250  Biso   1.000  C
  C2       1.0000 0.23310  0.27850  0.65250  Biso   1.000  C
  C3       1.0000 0.73310  0.22150  0.34750  Biso   1.000  C
  C4       1.0000 0.76690  0.77850  0.84750  Biso   1.000  C
  C5       1.0000 0.73310  0.27850  0.84750  Biso   1.000  C
  C6       1.0000 0.76690  0.72150  0.34750  Biso   1.000  C
  C7       1.0000 0.26690  0.77850  0.65250  Biso   1.000  C
  C8       1.0000 0.23310  0.22150  0.15250  Biso   1.000  C
  H17      1.0000 0.26440  0.65800  0.19030  Biso   1.000  H
  H18      1.0000 0.23560  0.34200  0.69030  Biso   1.000  H
  H19      1.0000 0.73560  0.15800  0.30970  Biso   1.000  H
  H20      1.0000 0.76440  0.84200  0.80970  Biso   1.000  H
  H21      1.0000 0.73560  0.34200  0.80970  Biso   1.000  H
  H22      1.0000 0.76440  0.65800  0.30970  Biso   1.000  H
  H23      1.0000 0.26440  0.84200  0.69030  Biso   1.000  H
  H24      1.0000 0.23560  0.15800  0.19030  Biso   1.000  H
  C9       1.0000 0.32050  0.83400  0.14650  Biso   1.000  C
  C10      1.0000 0.17950  0.16600  0.64650  Biso   1.000  C
  C11      1.0000 0.67950  0.33400  0.35350  Biso   1.000  C
  C12      1.0000 0.82050  0.66600  0.85350  Biso   1.000  C
  C13      1.0000 0.67950  0.16600  0.85350  Biso   1.000  C
  C14      1.0000 0.82050  0.83400  0.35350  Biso   1.000  C
  C15      1.0000 0.32050  0.66600  0.64650  Biso   1.000  C
  C16      1.0000 0.17950  0.33400  0.14650  Biso   1.000  C
  C17      1.0000 0.38940  0.90010  0.18860  Biso   1.000  C
  C18      1.0000 0.11060  0.09990  0.68860  Biso   1.000  C
  C19      1.0000 0.61060  0.40010  0.31140  Biso   1.000  C
  C20      1.0000 0.88940  0.59990  0.81140  Biso   1.000  C
  C21      1.0000 0.61060  0.09990  0.81140  Biso   1.000  C
  C22      1.0000 0.88940  0.90010  0.31140  Biso   1.000  C
  C23      1.0000 0.38940  0.59990  0.68860  Biso   1.000  C
  C24      1.0000 0.11060  0.40010  0.18860  Biso   1.000  C
  C25      1.0000 0.97690  0.74930  0.09370  Biso   1.000  C
  C26      1.0000 0.52310  0.25070  0.59370  Biso   1.000  C
  C27      1.0000 0.02310  0.24930  0.40630  Biso   1.000  C
  C28      1.0000 0.47690  0.75070  0.90630  Biso   1.000  C
  C29      1.0000 0.02310  0.25070  0.90630  Biso   1.000  C
  C30      1.0000 0.47690  0.74930  0.40630  Biso   1.000  C
  C31      1.0000 0.97690  0.75070  0.59370  Biso   1.000  C
  C32      1.0000 0.52310  0.24930  0.09370  Biso   1.000  C
  H25      1.0000 0.98250  0.71950  0.14040  Biso   1.000  H
  H26      1.0000 0.51750  0.28050  0.64040  Biso   1.000  H
  H27      1.0000 0.01750  0.21950  0.35960  Biso   1.000  H
  H28      1.0000 0.48250  0.78050  0.85960  Biso   1.000  H
  H29      1.0000 0.01750  0.28050  0.85960  Biso   1.000  H
  H30      1.0000 0.48250  0.71950  0.35960  Biso   1.000  H
  H31      1.0000 0.98250  0.78050  0.64040  Biso   1.000  H
  H32      1.0000 0.51750  0.21950  0.14040  Biso   1.000  H
  C33      1.0000 0.91350  0.84390  0.07690  Biso   1.000  C
  C34      1.0000 0.58650  0.15610  0.57690  Biso   1.000  C
  C35      1.0000 0.08650  0.34390  0.42310  Biso   1.000  C
  C36      1.0000 0.41350  0.65610  0.92310  Biso   1.000  C
  C37      1.0000 0.08650  0.15610  0.92310  Biso   1.000  C
  C38      1.0000 0.41350  0.84390  0.42310  Biso   1.000  C
  C39      1.0000 0.91350  0.65610  0.57690  Biso   1.000  C
  C40      1.0000 0.58650  0.34390  0.07690  Biso   1.000  C
  H33      1.0000 0.87770  0.87730  0.11180  Biso   1.000  H
  H34      1.0000 0.62230  0.12270  0.61180  Biso   1.000  H
  H35      1.0000 0.12230  0.37730  0.38820  Biso   1.000  H
  H36      1.0000 0.37770  0.62270  0.88820  Biso   1.000  H
  H37      1.0000 0.12230  0.12270  0.88820  Biso   1.000  H
  H38      1.0000 0.37770  0.87730  0.38820  Biso   1.000  H
  H39      1.0000 0.87770  0.62270  0.61180  Biso   1.000  H
  H40      1.0000 0.62230  0.37730  0.11180  Biso   1.000  H
  C41      1.0000 0.90500  0.88630  0.00930  Biso   1.000  C
  C42      1.0000 0.59500  0.11370  0.50930  Biso   1.000  C
  C43      1.0000 0.09500  0.38630  0.49070  Biso   1.000  C
  C44      1.0000 0.40500  0.61370  0.99070  Biso   1.000  C
  C45      1.0000 0.09500  0.11370  0.99070  Biso   1.000  C
  C46      1.0000 0.40500  0.88630  0.49070  Biso   1.000  C
  C47      1.0000 0.90500  0.61370  0.50930  Biso   1.000  C
  C48      1.0000 0.59500  0.38630  0.00930  Biso   1.000  C
  H41      1.0000 0.86190  0.94740  0.99680  Biso   1.000  H
  H42      1.0000 0.63810  0.05260  0.49680  Biso   1.000  H
  H43      1.0000 0.13810  0.44740  0.50320  Biso   1.000  H
  H44      1.0000 0.36190  0.55260  0.00320  Biso   1.000  H
  H45      1.0000 0.13810  0.05260  0.00320  Biso   1.000  H
  H46      1.0000 0.36190  0.94740  0.50320  Biso   1.000  H
  H47      1.0000 0.86190  0.55260  0.49680  Biso   1.000  H
  H48      1.0000 0.63810  0.44740  0.99680  Biso   1.000  H
  C49      1.0000 0.96080  0.83870  0.95740  Biso   1.000  C
  C50      1.0000 0.53920  0.16130  0.45740  Biso   1.000  C
  C51      1.0000 0.03920  0.33870  0.54260  Biso   1.000  C
  C52      1.0000 0.46080  0.66130  0.04260  Biso   1.000  C
  C53      1.0000 0.03920  0.16130  0.04260  Biso   1.000  C
  C54      1.0000 0.46080  0.83870  0.54260  Biso   1.000  C
  C55      1.0000 0.96080  0.66130  0.45740  Biso   1.000  C
  C56      1.0000 0.53920  0.33870  0.95740  Biso   1.000  C
  H49      1.0000 0.95620  0.87010  0.91080  Biso   1.000  H
  H50      1.0000 0.54380  0.12990  0.41080  Biso   1.000  H
  H51      1.0000 0.04380  0.37010  0.58920  Biso   1.000  H
  H52      1.0000 0.45620  0.62990  0.08920  Biso   1.000  H
  H53      1.0000 0.04380  0.12990  0.08920  Biso   1.000  H
  H54      1.0000 0.45620  0.87010  0.58920  Biso   1.000  H
  H55      1.0000 0.95620  0.62990  0.41080  Biso   1.000  H
  H56      1.0000 0.54380  0.37010  0.91080  Biso   1.000  H
  C57      1.0000 0.02340  0.74290  0.97690  Biso   1.000  C
  C58      1.0000 0.47660  0.25710  0.47690  Biso   1.000  C
  C59      1.0000 0.97660  0.24290  0.52310  Biso   1.000  C
  C60      1.0000 0.52340  0.75710  0.02310  Biso   1.000  C
  C61      1.0000 0.97660  0.25710  0.02310  Biso   1.000  C
  C62      1.0000 0.52340  0.74290  0.52310  Biso   1.000  C
  C63      1.0000 0.02340  0.75710  0.47690  Biso   1.000  C
  C64      1.0000 0.47660  0.24290  0.97690  Biso   1.000  C
  C65      1.0000 0.08660  0.68090  0.92820  Biso   1.000  C
  C66      1.0000 0.41340  0.31910  0.42820  Biso   1.000  C
  C67      1.0000 0.91340  0.18090  0.57180  Biso   1.000  C
  C68      1.0000 0.58660  0.81910  0.07180  Biso   1.000  C
  C69      1.0000 0.91340  0.31910  0.07180  Biso   1.000  C
  C70      1.0000 0.58660  0.68090  0.57180  Biso   1.000  C
  C71      1.0000 0.08660  0.81910  0.42820  Biso   1.000  C
  C72      1.0000 0.41340  0.18090  0.92820  Biso   1.000  C
  C73      1.0000 0.09510  0.72090  0.85790  Biso   1.000  C
  C74      1.0000 0.40490  0.27910  0.35790  Biso   1.000  C
  C75      1.0000 0.90490  0.22090  0.64210  Biso   1.000  C
  C76      1.0000 0.59510  0.77910  0.14210  Biso   1.000  C
  C77      1.0000 0.90490  0.27910  0.14210  Biso   1.000  C
  C78      1.0000 0.59510  0.72090  0.64210  Biso   1.000  C
  C79      1.0000 0.09510  0.77910  0.35790  Biso   1.000  C
  C80      1.0000 0.40490  0.22090  0.85790  Biso   1.000  C
  H57      1.0000 0.06220  0.79290  0.83900  Biso   1.000  H
  H58      1.0000 0.43780  0.20710  0.33900  Biso   1.000  H
  H59      1.0000 0.93780  0.29290  0.66100  Biso   1.000  H
  H60      1.0000 0.56220  0.70710  0.16100  Biso   1.000  H
  H61      1.0000 0.93780  0.20710  0.16100  Biso   1.000  H
  H62      1.0000 0.56220  0.79290  0.66100  Biso   1.000  H
  H63      1.0000 0.06220  0.70710  0.33900  Biso   1.000  H
  H64      1.0000 0.43780  0.29290  0.83900  Biso   1.000  H
  C81      1.0000 0.15370  0.65150  0.81610  Biso   1.000  C
  C82      1.0000 0.34630  0.34850  0.31610  Biso   1.000  C
  C83      1.0000 0.84630  0.15150  0.68390  Biso   1.000  C
  C84      1.0000 0.65370  0.84850  0.18390  Biso   1.000  C
  C85      1.0000 0.84630  0.34850  0.18390  Biso   1.000  C
  C86      1.0000 0.65370  0.65150  0.68390  Biso   1.000  C
  C87      1.0000 0.15370  0.84850  0.31610  Biso   1.000  C
  C88      1.0000 0.34630  0.15150  0.81610  Biso   1.000  C
  H65      1.0000 0.15920  0.67420  0.76840  Biso   1.000  H
  H66      1.0000 0.34080  0.32580  0.26840  Biso   1.000  H
  H67      1.0000 0.84080  0.17420  0.73160  Biso   1.000  H
  H68      1.0000 0.65920  0.82580  0.23160  Biso   1.000  H
  H69      1.0000 0.84080  0.32580  0.23160  Biso   1.000  H
  H70      1.0000 0.65920  0.67420  0.73160  Biso   1.000  H
  H71      1.0000 0.15920  0.82580  0.26840  Biso   1.000  H
  H72      1.0000 0.34080  0.17420  0.76840  Biso   1.000  H
  C89      1.0000 0.20310  0.54950  0.84620  Biso   1.000  C
  C90      1.0000 0.29690  0.45050  0.34620  Biso   1.000  C
  C91      1.0000 0.79690  0.04950  0.65380  Biso   1.000  C
  C92      1.0000 0.70310  0.95050  0.15380  Biso   1.000  C
  C93      1.0000 0.79690  0.45050  0.15380  Biso   1.000  C
  C94      1.0000 0.70310  0.54950  0.65380  Biso   1.000  C
  C95      1.0000 0.20310  0.95050  0.34620  Biso   1.000  C
  C96      1.0000 0.29690  0.04950  0.84620  Biso   1.000  C
  H73      1.0000 0.24290  0.50280  0.81900  Biso   1.000  H
  H74      1.0000 0.25710  0.49720  0.31900  Biso   1.000  H
  H75      1.0000 0.75710  0.00280  0.68100  Biso   1.000  H
  H76      1.0000 0.74290  0.99720  0.18100  Biso   1.000  H
  H77      1.0000 0.75710  0.49720  0.18100  Biso   1.000  H
  H78      1.0000 0.74290  0.50280  0.68100  Biso   1.000  H
  H79      1.0000 0.24290  0.99720  0.31900  Biso   1.000  H
  H80      1.0000 0.25710  0.00280  0.81900  Biso   1.000  H
  C97      1.0000 0.19400  0.51570  0.91700  Biso   1.000  C
  C98      1.0000 0.30600  0.48430  0.41700  Biso   1.000  C
  C99      1.0000 0.80600  0.01570  0.58300  Biso   1.000  C
  C100     1.0000 0.69400  0.98430  0.08300  Biso   1.000  C
  C101     1.0000 0.80600  0.48430  0.08300  Biso   1.000  C
  C102     1.0000 0.69400  0.51570  0.58300  Biso   1.000  C
  C103     1.0000 0.19400  0.98430  0.41700  Biso   1.000  C
  C104     1.0000 0.30600  0.01570  0.91700  Biso   1.000  C
  H81      1.0000 0.22850  0.44690  0.93690  Biso   1.000  H
  H82      1.0000 0.27150  0.55310  0.43690  Biso   1.000  H
  H83      1.0000 0.77150  0.94690  0.56310  Biso   1.000  H
  H84      1.0000 0.72850  0.05310  0.06310  Biso   1.000  H
  H85      1.0000 0.77150  0.55310  0.06310  Biso   1.000  H
  H86      1.0000 0.72850  0.44690  0.56310  Biso   1.000  H
  H87      1.0000 0.22850  0.05310  0.43690  Biso   1.000  H
  H88      1.0000 0.27150  0.94690  0.93690  Biso   1.000  H
