data_image0
_cell_length_a       13.754
_cell_length_b       6.825
_cell_length_c       9.731
_cell_angle_alpha    90
_cell_angle_beta     104.598
_cell_angle_gamma    90

_symmetry_space_group_name_H-M    "P 1"
_symmetry_int_tables_number       1

loop_
  _symmetry_equiv_pos_as_xyz
  'x, y, z'

loop_
  _atom_site_label
  _atom_site_occupancy
  _atom_site_fract_x
  _atom_site_fract_y
  _atom_site_fract_z
  _atom_site_thermal_displace_type
  _atom_site_B_iso_or_equiv
  _atom_site_type_symbol
  Cu1      1.0000 0.54208  0.00000  0.32988  Biso   1.000  Cu
  Cu2      1.0000 0.45792  0.00000  0.67012  Biso   1.000  Cu
  Cu3      1.0000 0.04208  0.50000  0.32988  Biso   1.000  Cu
  Cu4      1.0000 0.95792  0.50000  0.67012  Biso   1.000  Cu
  Br1      1.0000 0.37413  0.00000  0.36580  Biso   1.000  Br
  Br2      1.0000 0.62587  0.00000  0.63420  Biso   1.000  Br
  Br3      1.0000 0.87413  0.50000  0.36580  Biso   1.000  Br
  Br4      1.0000 0.12587  0.50000  0.63420  Biso   1.000  Br
  Br5      1.0000 0.69106  0.00000  0.24587  Biso   1.000  Br
  Br6      1.0000 0.30894  0.00000  0.75413  Biso   1.000  Br
  Br7      1.0000 0.19106  0.50000  0.24587  Biso   1.000  Br
  Br8      1.0000 0.80894  0.50000  0.75413  Biso   1.000  Br
  N1       1.0000 0.54020  0.70320  0.32110  Biso   1.000  N
  N2       1.0000 0.45980  0.70320  0.67890  Biso   1.000  N
  N3       1.0000 0.04020  0.20320  0.32110  Biso   1.000  N
  N4       1.0000 0.95980  0.20320  0.67890  Biso   1.000  N
  N5       1.0000 0.45980  0.29680  0.67890  Biso   1.000  N
  N6       1.0000 0.54020  0.29680  0.32110  Biso   1.000  N
  N7       1.0000 0.95980  0.79680  0.67890  Biso   1.000  N
  N8       1.0000 0.04020  0.79680  0.32110  Biso   1.000  N
  C1       1.0000 0.47560  0.60220  0.21870  Biso   1.000  C
  C2       1.0000 0.52440  0.60220  0.78130  Biso   1.000  C
  C3       1.0000 0.97560  0.10220  0.21870  Biso   1.000  C
  C4       1.0000 0.02440  0.10220  0.78130  Biso   1.000  C
  C5       1.0000 0.52440  0.39780  0.78130  Biso   1.000  C
  C6       1.0000 0.47560  0.39780  0.21870  Biso   1.000  C
  C7       1.0000 0.02440  0.89780  0.78130  Biso   1.000  C
  C8       1.0000 0.97560  0.89780  0.21870  Biso   1.000  C
  C9       1.0000 0.60770  0.60040  0.41880  Biso   1.000  C
  C10      1.0000 0.39230  0.60040  0.58120  Biso   1.000  C
  C11      1.0000 0.10770  0.10040  0.41880  Biso   1.000  C
  C12      1.0000 0.89230  0.10040  0.58120  Biso   1.000  C
  C13      1.0000 0.39230  0.39960  0.58120  Biso   1.000  C
  C14      1.0000 0.60770  0.39960  0.41880  Biso   1.000  C
  C15      1.0000 0.89230  0.89960  0.58120  Biso   1.000  C
  C16      1.0000 0.10770  0.89960  0.41880  Biso   1.000  C
  H1       1.0000 0.65540  0.66710  0.48770  Biso   1.000  H
  H2       1.0000 0.34460  0.66710  0.51230  Biso   1.000  H
  H3       1.0000 0.15540  0.16710  0.48770  Biso   1.000  H
  H4       1.0000 0.84460  0.16710  0.51230  Biso   1.000  H
  H5       1.0000 0.34460  0.33290  0.51230  Biso   1.000  H
  H6       1.0000 0.65540  0.33290  0.48770  Biso   1.000  H
  H7       1.0000 0.84460  0.83290  0.51230  Biso   1.000  H
  H8       1.0000 0.15540  0.83290  0.48770  Biso   1.000  H
  C17      1.0000 0.33120  0.53400  0.96000  Biso   1.000  C
  C18      1.0000 0.66880  0.53400  0.04000  Biso   1.000  C
  C19      1.0000 0.83120  0.03400  0.96000  Biso   1.000  C
  C20      1.0000 0.16880  0.03400  0.04000  Biso   1.000  C
  C21      1.0000 0.66880  0.46600  0.04000  Biso   1.000  C
  C22      1.0000 0.33120  0.46600  0.96000  Biso   1.000  C
  C23      1.0000 0.16880  0.96600  0.04000  Biso   1.000  C
  C24      1.0000 0.83120  0.96600  0.96000  Biso   1.000  C
  H9       1.0000 0.29170  0.59410  0.87360  Biso   1.000  H
  H10      1.0000 0.70830  0.59410  0.12640  Biso   1.000  H
  H11      1.0000 0.79170  0.09410  0.87360  Biso   1.000  H
  H12      1.0000 0.20830  0.09410  0.12640  Biso   1.000  H
  H13      1.0000 0.70830  0.40590  0.12640  Biso   1.000  H
  H14      1.0000 0.29170  0.40590  0.87360  Biso   1.000  H
  H15      1.0000 0.20830  0.90590  0.12640  Biso   1.000  H
  H16      1.0000 0.79170  0.90590  0.87360  Biso   1.000  H
  H17      1.0000 0.37420  0.43680  0.93510  Biso   1.000  H
  H18      1.0000 0.62580  0.43680  0.06490  Biso   1.000  H
  H19      1.0000 0.87420  0.93680  0.93510  Biso   1.000  H
  H20      1.0000 0.12580  0.93680  0.06490  Biso   1.000  H
  H21      1.0000 0.62580  0.56320  0.06490  Biso   1.000  H
  H22      1.0000 0.37420  0.56320  0.93510  Biso   1.000  H
  H23      1.0000 0.12580  0.06320  0.06490  Biso   1.000  H
  H24      1.0000 0.87420  0.06320  0.93510  Biso   1.000  H
  H25      1.0000 0.28770  0.47590  0.01020  Biso   1.000  H
  H26      1.0000 0.71230  0.47590  0.98980  Biso   1.000  H
  H27      1.0000 0.78770  0.97590  0.01020  Biso   1.000  H
  H28      1.0000 0.21230  0.97590  0.98980  Biso   1.000  H
  H29      1.0000 0.71230  0.52410  0.98980  Biso   1.000  H
  H30      1.0000 0.28770  0.52410  0.01020  Biso   1.000  H
  H31      1.0000 0.21230  0.02410  0.98980  Biso   1.000  H
  H32      1.0000 0.78770  0.02410  0.01020  Biso   1.000  H
  S1       1.0000 0.40620  0.71820  0.06690  Biso   1.000  S
  S2       1.0000 0.59380  0.71820  0.93310  Biso   1.000  S
  S3       1.0000 0.90620  0.21820  0.06690  Biso   1.000  S
  S4       1.0000 0.09380  0.21820  0.93310  Biso   1.000  S
  S5       1.0000 0.59380  0.28180  0.93310  Biso   1.000  S
  S6       1.0000 0.40620  0.28180  0.06690  Biso   1.000  S
  S7       1.0000 0.09380  0.78180  0.93310  Biso   1.000  S
  S8       1.0000 0.90620  0.78180  0.06690  Biso   1.000  S
