data_image0
_cell_length_a       7.2018
_cell_length_b       11.8433
_cell_length_c       15.2307
_cell_angle_alpha    79.997
_cell_angle_beta     85.665
_cell_angle_gamma    70.493

_symmetry_space_group_name_H-M    "P 1"
_symmetry_int_tables_number       1

loop_
  _symmetry_equiv_pos_as_xyz
  'x, y, z'

loop_
  _atom_site_label
  _atom_site_occupancy
  _atom_site_fract_x
  _atom_site_fract_y
  _atom_site_fract_z
  _atom_site_thermal_displace_type
  _atom_site_B_iso_or_equiv
  _atom_site_type_symbol
  W1       1.0000 0.55434  0.87910  0.26638  Biso   1.000  W
  W2       1.0000 0.44566  0.12090  0.73362  Biso   1.000  W
  Cu1      1.0000 0.00000  0.50000  0.50000  Biso   1.000  Cu
  Cu2      1.0000 0.00000  0.00000  0.50000  Biso   1.000  Cu
  Cu3      1.0000 0.00000  0.00000  0.00000  Biso   1.000  Cu
  O1       1.0000 0.08050  0.39200  0.26860  Biso   1.000  O
  O2       1.0000 0.91950  0.60800  0.73140  Biso   1.000  O
  O3       1.0000 0.14300  0.51250  0.38670  Biso   1.000  O
  O4       1.0000 0.85700  0.48750  0.61330  Biso   1.000  O
  N1       1.0000 0.80860  0.62780  0.18650  Biso   1.000  N
  N2       1.0000 0.19140  0.37220  0.81350  Biso   1.000  N
  N3       1.0000 0.26080  0.71090  0.31370  Biso   1.000  N
  N4       1.0000 0.73920  0.28910  0.68630  Biso   1.000  N
  N5       1.0000 0.12700  0.61550  0.54460  Biso   1.000  N
  N6       1.0000 0.87300  0.38450  0.45540  Biso   1.000  N
  N7       1.0000 0.12390  0.81550  0.54790  Biso   1.000  N
  N8       1.0000 0.87610  0.18450  0.45210  Biso   1.000  N
  N9       1.0000 0.84980  0.95990  0.38090  Biso   1.000  N
  N10      1.0000 0.15020  0.04010  0.61910  Biso   1.000  N
  N11      1.0000 0.39300  0.18120  0.21800  Biso   1.000  N
  N12      1.0000 0.60700  0.81880  0.78200  Biso   1.000  N
  N13      1.0000 0.85100  0.95330  0.10760  Biso   1.000  N
  N14      1.0000 0.14900  0.04670  0.89240  Biso   1.000  N
  N15      1.0000 0.06280  0.83130  0.96810  Biso   1.000  N
  N16      1.0000 0.93720  0.16870  0.03190  Biso   1.000  N
  N17      1.0000 0.29330  0.93370  0.08490  Biso   1.000  N
  N18      1.0000 0.70670  0.06630  0.91510  Biso   1.000  N
  N19      1.0000 0.63820  0.52750  0.88100  Biso   1.000  N
  N20      1.0000 0.36180  0.47250  0.11900  Biso   1.000  N
  N21      1.0000 0.23680  0.98640  0.42400  Biso   1.000  N
  N22      1.0000 0.76320  0.01360  0.57600  Biso   1.000  N
  N23      1.0000 0.73650  0.67060  0.44150  Biso   1.000  N
  N24      1.0000 0.26350  0.32940  0.55850  Biso   1.000  N
  C1       1.0000 0.72020  0.71540  0.21350  Biso   1.000  C
  C2       1.0000 0.27980  0.28460  0.78650  Biso   1.000  C
  C3       1.0000 0.75170  0.92540  0.16360  Biso   1.000  C
  C4       1.0000 0.24830  0.07460  0.83640  Biso   1.000  C
  C5       1.0000 0.44950  0.07500  0.23410  Biso   1.000  C
  C6       1.0000 0.55050  0.92500  0.76590  Biso   1.000  C
  C7       1.0000 0.36030  0.77020  0.29420  Biso   1.000  C
  C8       1.0000 0.63970  0.22980  0.70580  Biso   1.000  C
  C9       1.0000 0.37420  0.64890  0.62200  Biso   1.000  C
  C10      1.0000 0.62580  0.35110  0.37800  Biso   1.000  C
  C11      1.0000 0.29110  0.57170  0.59510  Biso   1.000  C
  C12      1.0000 0.70890  0.42830  0.40490  Biso   1.000  C
  C13      1.0000 0.38370  0.91500  0.14780  Biso   1.000  C
  C14      1.0000 0.61630  0.08500  0.85220  Biso   1.000  C
  C15      1.0000 0.75040  0.93370  0.33760  Biso   1.000  C
  C16      1.0000 0.24960  0.06630  0.66240  Biso   1.000  C
  C17      1.0000 0.66870  0.74440  0.38100  Biso   1.000  C
  C18      1.0000 0.33130  0.25560  0.61900  Biso   1.000  C
  C19      1.0000 0.91340  0.78500  0.96820  Biso   1.000  C
  C20      1.0000 0.08660  0.21500  0.03180  Biso   1.000  C
  C21      1.0000 0.94390  0.67030  0.94690  Biso   1.000  C
  C22      1.0000 0.05610  0.32970  0.05310  Biso   1.000  C
  C23      1.0000 0.13220  0.60390  0.92370  Biso   1.000  C
  C24      1.0000 0.86780  0.39610  0.07630  Biso   1.000  C
  C25      1.0000 0.27930  0.65280  0.92080  Biso   1.000  C
  C26      1.0000 0.72070  0.34720  0.07920  Biso   1.000  C
  C27      1.0000 0.23910  0.76840  0.94380  Biso   1.000  C
  C28      1.0000 0.76090  0.23160  0.05620  Biso   1.000  C
  C29      1.0000 0.48000  0.58530  0.89900  Biso   1.000  C
  C30      1.0000 0.52000  0.41470  0.10100  Biso   1.000  C
  C31      1.0000 0.28800  0.77180  0.59620  Biso   1.000  C
  C32      1.0000 0.71200  0.22820  0.40380  Biso   1.000  C
  C33      1.0000 0.05180  0.73530  0.52490  Biso   1.000  C
  C34      1.0000 0.94820  0.26470  0.47510  Biso   1.000  C
  C35      1.0000 0.35140  0.95130  0.37010  Biso   1.000  C
  C36      1.0000 0.64860  0.04870  0.62990  Biso   1.000  C
  H1       1.0000 0.48610  0.61870  0.65680  Biso   1.000  H
  H2       1.0000 0.51390  0.38130  0.34320  Biso   1.000  H
  H3       1.0000 0.34800  0.48830  0.61180  Biso   1.000  H
  H4       1.0000 0.65200  0.51170  0.38820  Biso   1.000  H
  H5       1.0000 0.78650  0.83150  0.98300  Biso   1.000  H
  H6       1.0000 0.21350  0.16850  0.01700  Biso   1.000  H
  H7       1.0000 0.84040  0.63950  0.94840  Biso   1.000  H
  H8       1.0000 0.15960  0.36050  0.05160  Biso   1.000  H
  H9       1.0000 0.15870  0.52640  0.91010  Biso   1.000  H
  H10      1.0000 0.84130  0.47360  0.08990  Biso   1.000  H
  H11      1.0000 0.34070  0.80090  0.94170  Biso   1.000  H
  H12      1.0000 0.65930  0.19910  0.05830  Biso   1.000  H
  H13      1.0000 0.34420  0.82510  0.61250  Biso   1.000  H
  H14      1.0000 0.65580  0.17490  0.38750  Biso   1.000  H
  H15      1.0000 0.93740  0.76630  0.49180  Biso   1.000  H
  H16      1.0000 0.06260  0.23370  0.50820  Biso   1.000  H
