data_image0
_cell_length_a       8.6896
_cell_length_b       18.229
_cell_length_c       24.344
_cell_angle_alpha    90
_cell_angle_beta     90
_cell_angle_gamma    90

_symmetry_space_group_name_H-M    "P 1"
_symmetry_int_tables_number       1

loop_
  _symmetry_equiv_pos_as_xyz
  'x, y, z'

loop_
  _atom_site_label
  _atom_site_occupancy
  _atom_site_fract_x
  _atom_site_fract_y
  _atom_site_fract_z
  _atom_site_thermal_displace_type
  _atom_site_B_iso_or_equiv
  _atom_site_type_symbol
  Cu1      1.0000 0.70797  0.52161  0.38860  Biso   1.000  Cu
  Cu2      1.0000 0.79203  0.47839  0.88860  Biso   1.000  Cu
  Cu3      1.0000 0.20797  0.97839  0.61140  Biso   1.000  Cu
  Cu4      1.0000 0.29203  0.02161  0.11140  Biso   1.000  Cu
  O1       1.0000 0.77570  0.46501  0.45315  Biso   1.000  O
  O2       1.0000 0.72430  0.53499  0.95315  Biso   1.000  O
  O3       1.0000 0.27570  0.03499  0.54685  Biso   1.000  O
  O4       1.0000 0.22430  0.96501  0.04685  Biso   1.000  O
  O5       1.0000 0.81090  0.37377  0.39410  Biso   1.000  O
  O6       1.0000 0.68910  0.62623  0.89410  Biso   1.000  O
  O7       1.0000 0.31090  0.12623  0.60590  Biso   1.000  O
  O8       1.0000 0.18910  0.87377  0.10590  Biso   1.000  O
  O9       1.0000 0.79130  0.49286  0.76080  Biso   1.000  O
  O10      1.0000 0.70870  0.50714  0.26080  Biso   1.000  O
  O11      1.0000 0.29130  0.00714  0.23920  Biso   1.000  O
  O12      1.0000 0.20870  0.99286  0.73920  Biso   1.000  O
  O13      1.0000 0.86450  0.41711  0.82796  Biso   1.000  O
  O14      1.0000 0.63550  0.58289  0.32796  Biso   1.000  O
  O15      1.0000 0.36450  0.08289  0.17204  Biso   1.000  O
  O16      1.0000 0.13550  0.91711  0.67204  Biso   1.000  O
  N1       1.0000 0.50720  0.46323  0.38802  Biso   1.000  N
  N2       1.0000 0.99280  0.53677  0.88802  Biso   1.000  N
  N3       1.0000 0.00720  0.03677  0.61198  Biso   1.000  N
  N4       1.0000 0.49280  0.96323  0.11198  Biso   1.000  N
  N5       1.0000 0.93220  0.55483  0.37841  Biso   1.000  N
  N6       1.0000 0.56780  0.44517  0.87841  Biso   1.000  N
  N7       1.0000 0.43220  0.94517  0.62159  Biso   1.000  N
  N8       1.0000 0.06780  0.05483  0.12159  Biso   1.000  N
  N9       1.0000 0.63620  0.61610  0.44923  Biso   1.000  N
  N10      1.0000 0.86380  0.38390  0.94923  Biso   1.000  N
  N11      1.0000 0.13620  0.88390  0.55077  Biso   1.000  N
  N12      1.0000 0.36380  0.11610  0.05077  Biso   1.000  N
  N13      1.0000 0.07850  0.24010  0.61640  Biso   1.000  N
  N14      1.0000 0.42150  0.75990  0.11640  Biso   1.000  N
  N15      1.0000 0.57850  0.25990  0.38360  Biso   1.000  N
  N16      1.0000 0.92150  0.74010  0.88360  Biso   1.000  N
  H1       1.0000 0.13470  0.20070  0.61800  Biso   1.000  H
  H2       1.0000 0.36530  0.79930  0.11800  Biso   1.000  H
  H3       1.0000 0.63470  0.29930  0.38200  Biso   1.000  H
  H4       1.0000 0.86530  0.70070  0.88200  Biso   1.000  H
  C1       1.0000 0.82090  0.40020  0.44105  Biso   1.000  C
  C2       1.0000 0.67910  0.59980  0.94105  Biso   1.000  C
  C3       1.0000 0.32090  0.09980  0.55895  Biso   1.000  C
  C4       1.0000 0.17910  0.90020  0.05895  Biso   1.000  C
  C5       1.0000 0.88720  0.35589  0.48698  Biso   1.000  C
  C6       1.0000 0.61280  0.64411  0.98698  Biso   1.000  C
  C7       1.0000 0.38720  0.14411  0.51302  Biso   1.000  C
  C8       1.0000 0.11280  0.85589  0.01302  Biso   1.000  C
  C9       1.0000 0.96770  0.28990  0.47468  Biso   1.000  C
  C10      1.0000 0.53230  0.71010  0.97468  Biso   1.000  C
  C11      1.0000 0.46770  0.21010  0.52532  Biso   1.000  C
  C12      1.0000 0.03230  0.78990  0.02532  Biso   1.000  C
  H5       1.0000 0.97310  0.27420  0.43790  Biso   1.000  H
  H6       1.0000 0.52690  0.72580  0.93790  Biso   1.000  H
  H7       1.0000 0.47310  0.22580  0.56210  Biso   1.000  H
  H8       1.0000 0.02690  0.77420  0.06210  Biso   1.000  H
  C13      1.0000 0.03830  0.24800  0.51464  Biso   1.000  C
  C14      1.0000 0.46170  0.75200  0.01464  Biso   1.000  C
  C15      1.0000 0.53830  0.25200  0.48536  Biso   1.000  C
  C16      1.0000 0.96170  0.74800  0.98536  Biso   1.000  C
  H9       1.0000 0.09470  0.20570  0.50570  Biso   1.000  H
  H10      1.0000 0.40530  0.79430  0.00570  Biso   1.000  H
  H11      1.0000 0.59470  0.29430  0.49430  Biso   1.000  H
  H12      1.0000 0.90530  0.70570  0.99430  Biso   1.000  H
  C17      1.0000 0.02190  0.27140  0.56913  Biso   1.000  C
  C18      1.0000 0.47810  0.72860  0.06913  Biso   1.000  C
  C19      1.0000 0.52190  0.22860  0.43087  Biso   1.000  C
  C20      1.0000 0.97810  0.77140  0.93087  Biso   1.000  C
  C21      1.0000 0.93800  0.33500  0.58332  Biso   1.000  C
  C22      1.0000 0.56200  0.66500  0.08332  Biso   1.000  C
  C23      1.0000 0.43800  0.16500  0.41668  Biso   1.000  C
  C24      1.0000 0.06200  0.83500  0.91668  Biso   1.000  C
  C25      1.0000 0.87160  0.37750  0.54152  Biso   1.000  C
  C26      1.0000 0.62840  0.62250  0.04152  Biso   1.000  C
  C27      1.0000 0.37160  0.12250  0.45848  Biso   1.000  C
  C28      1.0000 0.12840  0.87750  0.95848  Biso   1.000  C
  H13      1.0000 0.81680  0.42030  0.55030  Biso   1.000  H
  H14      1.0000 0.68320  0.57970  0.05030  Biso   1.000  H
  H15      1.0000 0.31680  0.07970  0.44970  Biso   1.000  H
  H16      1.0000 0.18320  0.92030  0.94970  Biso   1.000  H
  C29      1.0000 0.88470  0.39120  0.68021  Biso   1.000  C
  C30      1.0000 0.61530  0.60880  0.18021  Biso   1.000  C
  C31      1.0000 0.38470  0.10880  0.31979  Biso   1.000  C
  C32      1.0000 0.11530  0.89120  0.81979  Biso   1.000  C
  H17      1.0000 0.82600  0.43140  0.66820  Biso   1.000  H
  H18      1.0000 0.67400  0.56860  0.16820  Biso   1.000  H
  H19      1.0000 0.32600  0.06860  0.33180  Biso   1.000  H
  H20      1.0000 0.17400  0.93140  0.83180  Biso   1.000  H
  C33      1.0000 0.94230  0.34110  0.64269  Biso   1.000  C
  C34      1.0000 0.55770  0.65890  0.14269  Biso   1.000  C
  C35      1.0000 0.44230  0.15890  0.35731  Biso   1.000  C
  C36      1.0000 0.05770  0.84110  0.85731  Biso   1.000  C
  C37      1.0000 0.03160  0.28140  0.66099  Biso   1.000  C
  C38      1.0000 0.46840  0.71860  0.16099  Biso   1.000  C
  C39      1.0000 0.53160  0.21860  0.33901  Biso   1.000  C
  C40      1.0000 0.96840  0.78140  0.83901  Biso   1.000  C
  C41      1.0000 0.06190  0.27020  0.71695  Biso   1.000  C
  C42      1.0000 0.43810  0.72980  0.21695  Biso   1.000  C
  C43      1.0000 0.56190  0.22980  0.28305  Biso   1.000  C
  C44      1.0000 0.93810  0.77020  0.78305  Biso   1.000  C
  H21      1.0000 0.12150  0.23030  0.72910  Biso   1.000  H
  H22      1.0000 0.37850  0.76970  0.22910  Biso   1.000  H
  H23      1.0000 0.62150  0.26970  0.27090  Biso   1.000  H
  H24      1.0000 0.87850  0.73030  0.77090  Biso   1.000  H
  C45      1.0000 0.00060  0.32030  0.75349  Biso   1.000  C
  C46      1.0000 0.49940  0.67970  0.25349  Biso   1.000  C
  C47      1.0000 0.50060  0.17970  0.24651  Biso   1.000  C
  C48      1.0000 0.99940  0.82030  0.74651  Biso   1.000  C
  H25      1.0000 0.01690  0.31310  0.79130  Biso   1.000  H
  H26      1.0000 0.48310  0.68690  0.29130  Biso   1.000  H
  H27      1.0000 0.51690  0.18690  0.20870  Biso   1.000  H
  H28      1.0000 0.98310  0.81310  0.70870  Biso   1.000  H
  C49      1.0000 0.91510  0.38110  0.73641  Biso   1.000  C
  C50      1.0000 0.58490  0.61890  0.23641  Biso   1.000  C
  C51      1.0000 0.41510  0.11890  0.26359  Biso   1.000  C
  C52      1.0000 0.08490  0.88110  0.76359  Biso   1.000  C
  C53      1.0000 0.85140  0.43580  0.77698  Biso   1.000  C
  C54      1.0000 0.64860  0.56420  0.27698  Biso   1.000  C
  C55      1.0000 0.35140  0.06420  0.22302  Biso   1.000  C
  C56      1.0000 0.14860  0.93580  0.72302  Biso   1.000  C
  C57      1.0000 0.45680  0.43330  0.34175  Biso   1.000  C
  C58      1.0000 0.04320  0.56670  0.84175  Biso   1.000  C
  C59      1.0000 0.95680  0.06670  0.65825  Biso   1.000  C
  C60      1.0000 0.54320  0.93330  0.15825  Biso   1.000  C
  H29      1.0000 0.51350  0.44000  0.30930  Biso   1.000  H
  H30      1.0000 0.98650  0.56000  0.80930  Biso   1.000  H
  H31      1.0000 0.01350  0.06000  0.69070  Biso   1.000  H
  H32      1.0000 0.48650  0.94000  0.19070  Biso   1.000  H
  C61      1.0000 0.32300  0.39240  0.34010  Biso   1.000  C
  C62      1.0000 0.17700  0.60760  0.84010  Biso   1.000  C
  C63      1.0000 0.82300  0.10760  0.65990  Biso   1.000  C
  C64      1.0000 0.67700  0.89240  0.15990  Biso   1.000  C
  H33      1.0000 0.29020  0.37080  0.30710  Biso   1.000  H
  H34      1.0000 0.20980  0.62920  0.80710  Biso   1.000  H
  H35      1.0000 0.79020  0.12920  0.69290  Biso   1.000  H
  H36      1.0000 0.70980  0.87080  0.19290  Biso   1.000  H
  C65      1.0000 0.23840  0.38380  0.38720  Biso   1.000  C
  C66      1.0000 0.26160  0.61620  0.88720  Biso   1.000  C
  C67      1.0000 0.73840  0.11620  0.61280  Biso   1.000  C
  C68      1.0000 0.76160  0.88380  0.11280  Biso   1.000  C
  H37      1.0000 0.14550  0.35740  0.38660  Biso   1.000  H
  H38      1.0000 0.35450  0.64260  0.88660  Biso   1.000  H
  H39      1.0000 0.64550  0.14260  0.61340  Biso   1.000  H
  H40      1.0000 0.85450  0.85740  0.11340  Biso   1.000  H
  C69      1.0000 0.29060  0.41390  0.43500  Biso   1.000  C
  C70      1.0000 0.20940  0.58610  0.93500  Biso   1.000  C
  C71      1.0000 0.79060  0.08610  0.56500  Biso   1.000  C
  C72      1.0000 0.70940  0.91390  0.06500  Biso   1.000  C
  H41      1.0000 0.23570  0.40780  0.46790  Biso   1.000  H
  H42      1.0000 0.26430  0.59220  0.96790  Biso   1.000  H
  H43      1.0000 0.73570  0.09220  0.53210  Biso   1.000  H
  H44      1.0000 0.76430  0.90780  0.03210  Biso   1.000  H
  C73      1.0000 0.42570  0.45340  0.43371  Biso   1.000  C
  C74      1.0000 0.07430  0.54660  0.93371  Biso   1.000  C
  C75      1.0000 0.92570  0.04660  0.56629  Biso   1.000  C
  C76      1.0000 0.57430  0.95340  0.06629  Biso   1.000  C
  H45      1.0000 0.46180  0.47440  0.46650  Biso   1.000  H
  H46      1.0000 0.03820  0.52560  0.96650  Biso   1.000  H
  H47      1.0000 0.96180  0.02560  0.53350  Biso   1.000  H
  H48      1.0000 0.53820  0.97440  0.03350  Biso   1.000  H
  C77      1.0000 0.00820  0.54620  0.33130  Biso   1.000  C
  C78      1.0000 0.49180  0.45380  0.83130  Biso   1.000  C
  C79      1.0000 0.50820  0.95380  0.66870  Biso   1.000  C
  C80      1.0000 0.99180  0.04620  0.16870  Biso   1.000  C
  H49      1.0000 0.95720  0.52490  0.30120  Biso   1.000  H
  H50      1.0000 0.54280  0.47510  0.80120  Biso   1.000  H
  H51      1.0000 0.45720  0.97510  0.69880  Biso   1.000  H
  H52      1.0000 0.04280  0.02490  0.19880  Biso   1.000  H
  C81      1.0000 0.15970  0.56760  0.32540  Biso   1.000  C
  C82      1.0000 0.34030  0.43240  0.82540  Biso   1.000  C
  C83      1.0000 0.65970  0.93240  0.67460  Biso   1.000  C
  C84      1.0000 0.84030  0.06760  0.17460  Biso   1.000  C
  H53      1.0000 0.21060  0.56190  0.29160  Biso   1.000  H
  H54      1.0000 0.28940  0.43810  0.79160  Biso   1.000  H
  H55      1.0000 0.71060  0.93810  0.70840  Biso   1.000  H
  H56      1.0000 0.78940  0.06190  0.20840  Biso   1.000  H
  C85      1.0000 0.23490  0.59730  0.36970  Biso   1.000  C
  C86      1.0000 0.26510  0.40270  0.86970  Biso   1.000  C
  C87      1.0000 0.73490  0.90270  0.63030  Biso   1.000  C
  C88      1.0000 0.76510  0.09730  0.13030  Biso   1.000  C
  H57      1.0000 0.33860  0.61130  0.36680  Biso   1.000  H
  H58      1.0000 0.16140  0.38870  0.86680  Biso   1.000  H
  H59      1.0000 0.83860  0.88870  0.63320  Biso   1.000  H
  H60      1.0000 0.66140  0.11130  0.13320  Biso   1.000  H
  C89      1.0000 0.15750  0.60620  0.41780  Biso   1.000  C
  C90      1.0000 0.34250  0.39380  0.91780  Biso   1.000  C
  C91      1.0000 0.65750  0.89380  0.58220  Biso   1.000  C
  C92      1.0000 0.84250  0.10620  0.08220  Biso   1.000  C
  H61      1.0000 0.20630  0.62750  0.44840  Biso   1.000  H
  H62      1.0000 0.29370  0.37250  0.94840  Biso   1.000  H
  H63      1.0000 0.70630  0.87250  0.55160  Biso   1.000  H
  H64      1.0000 0.79370  0.12750  0.05160  Biso   1.000  H
  C93      1.0000 0.00760  0.58360  0.42115  Biso   1.000  C
  C94      1.0000 0.49240  0.41640  0.92115  Biso   1.000  C
  C95      1.0000 0.50760  0.91640  0.57885  Biso   1.000  C
  C96      1.0000 0.99240  0.08360  0.07885  Biso   1.000  C
  H65      1.0000 0.95560  0.58860  0.45480  Biso   1.000  H
  H66      1.0000 0.54440  0.41140  0.95480  Biso   1.000  H
  H67      1.0000 0.45560  0.91140  0.54520  Biso   1.000  H
  H68      1.0000 0.04440  0.08860  0.04520  Biso   1.000  H
  C97      1.0000 0.58150  0.67890  0.43102  Biso   1.000  C
  C98      1.0000 0.91850  0.32110  0.93102  Biso   1.000  C
  C99      1.0000 0.08150  0.82110  0.56898  Biso   1.000  C
  C100     1.0000 0.41850  0.17890  0.06898  Biso   1.000  C
  H69      1.0000 0.58910  0.68870  0.39320  Biso   1.000  H
  H70      1.0000 0.91090  0.31130  0.89320  Biso   1.000  H
  H71      1.0000 0.08910  0.81130  0.60680  Biso   1.000  H
  H72      1.0000 0.41090  0.18870  0.10680  Biso   1.000  H
  C101     1.0000 0.51370  0.73120  0.46420  Biso   1.000  C
  C102     1.0000 0.98630  0.26880  0.96420  Biso   1.000  C
  C103     1.0000 0.01370  0.76880  0.53580  Biso   1.000  C
  C104     1.0000 0.48630  0.23120  0.03580  Biso   1.000  C
  H73      1.0000 0.47450  0.77480  0.44900  Biso   1.000  H
  H74      1.0000 0.02550  0.22520  0.94900  Biso   1.000  H
  H75      1.0000 0.97450  0.72520  0.55100  Biso   1.000  H
  H76      1.0000 0.52550  0.27480  0.05100  Biso   1.000  H
  C105     1.0000 0.50460  0.71890  0.51810  Biso   1.000  C
  C106     1.0000 0.99540  0.28110  0.01810  Biso   1.000  C
  C107     1.0000 0.00460  0.78110  0.48190  Biso   1.000  C
  C108     1.0000 0.49540  0.21890  0.98190  Biso   1.000  C
  H77      1.0000 0.45810  0.75360  0.54140  Biso   1.000  H
  H78      1.0000 0.04190  0.24640  0.04140  Biso   1.000  H
  H79      1.0000 0.95810  0.74640  0.45860  Biso   1.000  H
  H80      1.0000 0.54190  0.25360  0.95860  Biso   1.000  H
  C109     1.0000 0.56380  0.65520  0.53920  Biso   1.000  C
  C110     1.0000 0.93620  0.34480  0.03920  Biso   1.000  C
  C111     1.0000 0.06380  0.84480  0.46080  Biso   1.000  C
  C112     1.0000 0.43620  0.15520  0.96080  Biso   1.000  C
  H81      1.0000 0.55980  0.64560  0.57710  Biso   1.000  H
  H82      1.0000 0.94020  0.35440  0.07710  Biso   1.000  H
  H83      1.0000 0.05980  0.85440  0.42290  Biso   1.000  H
  H84      1.0000 0.44020  0.14560  0.92290  Biso   1.000  H
  C113     1.0000 0.62840  0.60610  0.50384  Biso   1.000  C
  C114     1.0000 0.87160  0.39390  0.00384  Biso   1.000  C
  C115     1.0000 0.12840  0.89390  0.49616  Biso   1.000  C
  C116     1.0000 0.37160  0.10610  0.99616  Biso   1.000  C
  H85      1.0000 0.67000  0.56270  0.51850  Biso   1.000  H
  H86      1.0000 0.83000  0.43730  0.01850  Biso   1.000  H
  H87      1.0000 0.17000  0.93730  0.48150  Biso   1.000  H
  H88      1.0000 0.33000  0.06270  0.98150  Biso   1.000  H
  N17      1.0000 0.93280  0.53080  0.10410  Biso   1.000  N
  N18      1.0000 0.56720  0.46920  0.60410  Biso   1.000  N
  N19      1.0000 0.43280  0.96920  0.89590  Biso   1.000  N
  N20      1.0000 0.06720  0.03080  0.39590  Biso   1.000  N
  C117     1.0000 0.97240  0.49770  0.14980  Biso   1.000  C
  C118     1.0000 0.52760  0.50230  0.64980  Biso   1.000  C
  C119     1.0000 0.47240  0.00230  0.85020  Biso   1.000  C
  C120     1.0000 0.02760  0.99770  0.35020  Biso   1.000  C
  H89      1.0000 0.90750  0.46030  0.16300  Biso   1.000  H
  H90      1.0000 0.59250  0.53970  0.66300  Biso   1.000  H
  H91      1.0000 0.40750  0.03970  0.83700  Biso   1.000  H
  H92      1.0000 0.09250  0.96030  0.33700  Biso   1.000  H
  C121     1.0000 0.10180  0.51380  0.17950  Biso   1.000  C
  C122     1.0000 0.39820  0.48620  0.67950  Biso   1.000  C
  C123     1.0000 0.60180  0.98620  0.82050  Biso   1.000  C
  C124     1.0000 0.89820  0.01380  0.32050  Biso   1.000  C
  H93      1.0000 0.12380  0.48850  0.21230  Biso   1.000  H
  H94      1.0000 0.37620  0.51150  0.71230  Biso   1.000  H
  H95      1.0000 0.62380  0.01150  0.78770  Biso   1.000  H
  H96      1.0000 0.87620  0.98850  0.28770  Biso   1.000  H
  C125     1.0000 0.19720  0.56660  0.16100  Biso   1.000  C
  C126     1.0000 0.30280  0.43340  0.66100  Biso   1.000  C
  C127     1.0000 0.69720  0.93340  0.83900  Biso   1.000  C
  C128     1.0000 0.80280  0.06660  0.33900  Biso   1.000  C
  H97      1.0000 0.29050  0.57640  0.17910  Biso   1.000  H
  H98      1.0000 0.20950  0.42360  0.67910  Biso   1.000  H
  H99      1.0000 0.79050  0.92360  0.82090  Biso   1.000  H
  H100     1.0000 0.70950  0.07640  0.32090  Biso   1.000  H
  C129     1.0000 0.15650  0.60540  0.11570  Biso   1.000  C
  C130     1.0000 0.34350  0.39460  0.61570  Biso   1.000  C
  C131     1.0000 0.65650  0.89460  0.88430  Biso   1.000  C
  C132     1.0000 0.84350  0.10540  0.38430  Biso   1.000  C
  H101     1.0000 0.21670  0.64530  0.10400  Biso   1.000  H
  H102     1.0000 0.28330  0.35470  0.60400  Biso   1.000  H
  H103     1.0000 0.71670  0.85470  0.89600  Biso   1.000  H
  H104     1.0000 0.78330  0.14530  0.39600  Biso   1.000  H
  C133     1.0000 0.02580  0.58590  0.08700  Biso   1.000  C
  C134     1.0000 0.47420  0.41410  0.58700  Biso   1.000  C
  C135     1.0000 0.52580  0.91410  0.91300  Biso   1.000  C
  C136     1.0000 0.97420  0.08590  0.41300  Biso   1.000  C
  H105     1.0000 0.00060  0.61150  0.05480  Biso   1.000  H
  H106     1.0000 0.49940  0.38850  0.55480  Biso   1.000  H
  H107     1.0000 0.50060  0.88850  0.94520  Biso   1.000  H
  H108     1.0000 0.99940  0.11150  0.44520  Biso   1.000  H
  N21      1.0000 0.71550  0.86450  0.38380  Biso   1.000  N
  N22      1.0000 0.78450  0.13550  0.88380  Biso   1.000  N
  N23      1.0000 0.21550  0.63550  0.61620  Biso   1.000  N
  N24      1.0000 0.28450  0.36450  0.11620  Biso   1.000  N
  C137     1.0000 0.61310  0.85580  0.34300  Biso   1.000  C
  C138     1.0000 0.88690  0.14420  0.84300  Biso   1.000  C
  C139     1.0000 0.11310  0.64420  0.65700  Biso   1.000  C
  C140     1.0000 0.38690  0.35580  0.15700  Biso   1.000  C
  H109     1.0000 0.63550  0.82510  0.31310  Biso   1.000  H
  H110     1.0000 0.86450  0.17490  0.81310  Biso   1.000  H
  H111     1.0000 0.13550  0.67490  0.68690  Biso   1.000  H
  H112     1.0000 0.36450  0.32510  0.18690  Biso   1.000  H
  C141     1.0000 0.47270  0.89290  0.34580  Biso   1.000  C
  C142     1.0000 0.02730  0.10710  0.84580  Biso   1.000  C
  C143     1.0000 0.97270  0.60710  0.65420  Biso   1.000  C
  C144     1.0000 0.52730  0.39290  0.15420  Biso   1.000  C
  H113     1.0000 0.40280  0.88900  0.31650  Biso   1.000  H
  H114     1.0000 0.09720  0.11100  0.81650  Biso   1.000  H
  H115     1.0000 0.90280  0.61100  0.68350  Biso   1.000  H
  H116     1.0000 0.59720  0.38900  0.18350  Biso   1.000  H
  C145     1.0000 0.43450  0.93540  0.39080  Biso   1.000  C
  C146     1.0000 0.06550  0.06460  0.89080  Biso   1.000  C
  C147     1.0000 0.93450  0.56460  0.60920  Biso   1.000  C
  C148     1.0000 0.56550  0.43540  0.10920  Biso   1.000  C
  H117     1.0000 0.33690  0.95710  0.39440  Biso   1.000  H
  H118     1.0000 0.16310  0.04290  0.89440  Biso   1.000  H
  H119     1.0000 0.83690  0.54290  0.60560  Biso   1.000  H
  H120     1.0000 0.66310  0.45710  0.10560  Biso   1.000  H
  C149     1.0000 0.54520  0.94410  0.42940  Biso   1.000  C
  C150     1.0000 0.95480  0.05590  0.92940  Biso   1.000  C
  C151     1.0000 0.04520  0.55590  0.57060  Biso   1.000  C
  C152     1.0000 0.45480  0.44410  0.07060  Biso   1.000  C
  H121     1.0000 0.52430  0.97530  0.45920  Biso   1.000  H
  H122     1.0000 0.97570  0.02470  0.95920  Biso   1.000  H
  H123     1.0000 0.02430  0.52470  0.54080  Biso   1.000  H
  H124     1.0000 0.47570  0.47530  0.04080  Biso   1.000  H
  C153     1.0000 0.67780  0.91220  0.42770  Biso   1.000  C
  C154     1.0000 0.82220  0.08780  0.92770  Biso   1.000  C
  C155     1.0000 0.17780  0.58780  0.57230  Biso   1.000  C
  C156     1.0000 0.32220  0.41220  0.07230  Biso   1.000  C
  H125     1.0000 0.74980  0.92060  0.45590  Biso   1.000  H
  H126     1.0000 0.75020  0.07940  0.95590  Biso   1.000  H
  H127     1.0000 0.24980  0.57940  0.54410  Biso   1.000  H
  H128     1.0000 0.25020  0.42060  0.04410  Biso   1.000  H
  N25      1.0000 0.50350  0.23520  0.81680  Biso   1.000  N
  N26      1.0000 0.99650  0.76480  0.31680  Biso   1.000  N
  N27      1.0000 0.00350  0.26480  0.18320  Biso   1.000  N
  N28      1.0000 0.49650  0.73520  0.68320  Biso   1.000  N
  C157     1.0000 0.57540  0.27490  0.77780  Biso   1.000  C
  C158     1.0000 0.92460  0.72510  0.27780  Biso   1.000  C
  C159     1.0000 0.07540  0.22510  0.22220  Biso   1.000  C
  C160     1.0000 0.42460  0.77490  0.72220  Biso   1.000  C
  H129     1.0000 0.63610  0.31520  0.78840  Biso   1.000  H
  H130     1.0000 0.86390  0.68480  0.28840  Biso   1.000  H
  H131     1.0000 0.13610  0.18480  0.21160  Biso   1.000  H
  H132     1.0000 0.36390  0.81520  0.71160  Biso   1.000  H
  C161     1.0000 0.56320  0.25890  0.72610  Biso   1.000  C
  C162     1.0000 0.93680  0.74110  0.22610  Biso   1.000  C
  C163     1.0000 0.06320  0.24110  0.27390  Biso   1.000  C
  C164     1.0000 0.43680  0.75890  0.77390  Biso   1.000  C
  H133     1.0000 0.61130  0.28660  0.69840  Biso   1.000  H
  H134     1.0000 0.88870  0.71340  0.19840  Biso   1.000  H
  H135     1.0000 0.11130  0.21340  0.30160  Biso   1.000  H
  H136     1.0000 0.38870  0.78660  0.80160  Biso   1.000  H
  C165     1.0000 0.46890  0.19470  0.71430  Biso   1.000  C
  C166     1.0000 0.03110  0.80530  0.21430  Biso   1.000  C
  C167     1.0000 0.96890  0.30530  0.28570  Biso   1.000  C
  C168     1.0000 0.53110  0.69470  0.78570  Biso   1.000  C
  H137     1.0000 0.45520  0.17860  0.67800  Biso   1.000  H
  H138     1.0000 0.04480  0.82140  0.17800  Biso   1.000  H
  H139     1.0000 0.95520  0.32140  0.32200  Biso   1.000  H
  H140     1.0000 0.54480  0.67860  0.82200  Biso   1.000  H
  C169     1.0000 0.40480  0.16050  0.75440  Biso   1.000  C
  C170     1.0000 0.09520  0.83950  0.25440  Biso   1.000  C
  C171     1.0000 0.90480  0.33950  0.24560  Biso   1.000  C
  C172     1.0000 0.59520  0.66050  0.74560  Biso   1.000  C
  H141     1.0000 0.34710  0.11820  0.74630  Biso   1.000  H
  H142     1.0000 0.15290  0.88180  0.24630  Biso   1.000  H
  H143     1.0000 0.84710  0.38180  0.25370  Biso   1.000  H
  H144     1.0000 0.65290  0.61820  0.75370  Biso   1.000  H
  C173     1.0000 0.41540  0.18150  0.80650  Biso   1.000  C
  C174     1.0000 0.08460  0.81850  0.30650  Biso   1.000  C
  C175     1.0000 0.91540  0.31850  0.19350  Biso   1.000  C
  C176     1.0000 0.58460  0.68150  0.69350  Biso   1.000  C
  H145     1.0000 0.36010  0.15760  0.83450  Biso   1.000  H
  H146     1.0000 0.13990  0.84240  0.33450  Biso   1.000  H
  H147     1.0000 0.86010  0.34240  0.16550  Biso   1.000  H
  H148     1.0000 0.63990  0.65760  0.66550  Biso   1.000  H
