data_image0
_cell_length_a       9.7044
_cell_length_b       9.7044
_cell_length_c       6.8538
_cell_angle_alpha    90
_cell_angle_beta     90
_cell_angle_gamma    90

_symmetry_space_group_name_H-M    "P 1"
_symmetry_int_tables_number       1

loop_
  _symmetry_equiv_pos_as_xyz
  'x, y, z'

loop_
  _atom_site_label
  _atom_site_occupancy
  _atom_site_fract_x
  _atom_site_fract_y
  _atom_site_fract_z
  _atom_site_thermal_displace_type
  _atom_site_B_iso_or_equiv
  _atom_site_type_symbol
  Cu1      1.0000 0.75000  0.25000  0.00000  Biso   1.000  Cu
  Cu2      1.0000 0.25000  0.75000  0.00000  Biso   1.000  Cu
  F1       1.0000 0.75000  0.25000  0.66670  Biso   1.000  F
  F2       1.0000 0.25000  0.75000  0.66670  Biso   1.000  F
  F3       1.0000 0.25000  0.75000  0.33330  Biso   1.000  F
  F4       1.0000 0.75000  0.25000  0.33330  Biso   1.000  F
  H1       1.0000 0.75000  0.25000  0.50000  Biso   1.000  H
  H2       1.0000 0.25000  0.75000  0.50000  Biso   1.000  H
  N1       1.0000 0.60128  0.10128  0.00000  Biso   1.000  N
  N2       1.0000 0.89872  0.39872  0.00000  Biso   1.000  N
  N3       1.0000 0.39872  0.60128  0.00000  Biso   1.000  N
  N4       1.0000 0.10128  0.89872  0.00000  Biso   1.000  N
  N5       1.0000 0.39872  0.89872  0.00000  Biso   1.000  N
  N6       1.0000 0.10128  0.60128  0.00000  Biso   1.000  N
  N7       1.0000 0.60128  0.39872  0.00000  Biso   1.000  N
  N8       1.0000 0.89872  0.10128  0.00000  Biso   1.000  N
  C1       1.0000 0.53450  0.06600  0.16390  Biso   1.000  C
  C2       1.0000 0.96550  0.43400  0.16390  Biso   1.000  C
  C3       1.0000 0.43400  0.53450  0.16390  Biso   1.000  C
  C4       1.0000 0.06600  0.96550  0.16390  Biso   1.000  C
  C5       1.0000 0.46550  0.56600  0.83610  Biso   1.000  C
  C6       1.0000 0.03450  0.93400  0.83610  Biso   1.000  C
  C7       1.0000 0.56600  0.03450  0.83610  Biso   1.000  C
  C8       1.0000 0.93400  0.46550  0.83610  Biso   1.000  C
  C9       1.0000 0.46550  0.93400  0.83610  Biso   1.000  C
  C10      1.0000 0.03450  0.56600  0.83610  Biso   1.000  C
  C11      1.0000 0.56600  0.46550  0.83610  Biso   1.000  C
  C12      1.0000 0.93400  0.03450  0.83610  Biso   1.000  C
  C13      1.0000 0.53450  0.43400  0.16390  Biso   1.000  C
  C14      1.0000 0.96550  0.06600  0.16390  Biso   1.000  C
  C15      1.0000 0.43400  0.96550  0.16390  Biso   1.000  C
  C16      1.0000 0.06600  0.53450  0.16390  Biso   1.000  C
  H3       1.0000 0.55700  0.11130  0.28260  Biso   1.000  H
  H4       1.0000 0.94300  0.38870  0.28260  Biso   1.000  H
  H5       1.0000 0.38870  0.55700  0.28260  Biso   1.000  H
  H6       1.0000 0.11130  0.94300  0.28260  Biso   1.000  H
  H7       1.0000 0.44300  0.61130  0.71740  Biso   1.000  H
  H8       1.0000 0.05700  0.88870  0.71740  Biso   1.000  H
  H9       1.0000 0.61130  0.05700  0.71740  Biso   1.000  H
  H10      1.0000 0.88870  0.44300  0.71740  Biso   1.000  H
  H11      1.0000 0.44300  0.88870  0.71740  Biso   1.000  H
  H12      1.0000 0.05700  0.61130  0.71740  Biso   1.000  H
  H13      1.0000 0.61130  0.44300  0.71740  Biso   1.000  H
  H14      1.0000 0.88870  0.05700  0.71740  Biso   1.000  H
  H15      1.0000 0.55700  0.38870  0.28260  Biso   1.000  H
  H16      1.0000 0.94300  0.11130  0.28260  Biso   1.000  H
  H17      1.0000 0.38870  0.94300  0.28260  Biso   1.000  H
  H18      1.0000 0.11130  0.55700  0.28260  Biso   1.000  H
  Sb1      1.0000 0.25000  0.25000  0.55385  Biso   1.000  Sb
  Sb2      1.0000 0.75000  0.75000  0.44615  Biso   1.000  Sb
  F5       1.0000 0.25000  0.25000  0.28030  Biso   1.000  F
  F6       1.0000 0.75000  0.75000  0.71970  Biso   1.000  F
  F7       1.0000 0.25000  0.25000  0.82690  Biso   1.000  F
  F8       1.0000 0.75000  0.75000  0.17310  Biso   1.000  F
  F9       1.0000 0.44391  0.25000  0.55140  Biso   1.000  F
  F10      1.0000 0.05609  0.25000  0.55140  Biso   1.000  F
  F11      1.0000 0.25000  0.44391  0.55140  Biso   1.000  F
  F12      1.0000 0.25000  0.05609  0.55140  Biso   1.000  F
  F13      1.0000 0.55609  0.75000  0.44860  Biso   1.000  F
  F14      1.0000 0.94391  0.75000  0.44860  Biso   1.000  F
  F15      1.0000 0.75000  0.94391  0.44860  Biso   1.000  F
  F16      1.0000 0.75000  0.55609  0.44860  Biso   1.000  F
