data_image0
_cell_length_a       9.72
_cell_length_b       9.72
_cell_length_c       6.9414
_cell_angle_alpha    90
_cell_angle_beta     90
_cell_angle_gamma    90

_symmetry_space_group_name_H-M    "P 1"
_symmetry_int_tables_number       1

loop_
  _symmetry_equiv_pos_as_xyz
  'x, y, z'

loop_
  _atom_site_label
  _atom_site_occupancy
  _atom_site_fract_x
  _atom_site_fract_y
  _atom_site_fract_z
  _atom_site_thermal_displace_type
  _atom_site_B_iso_or_equiv
  _atom_site_type_symbol
  Cu1      1.0000 0.75000  0.25000  0.00000  Biso   1.000  Cu
  Cu2      1.0000 0.25000  0.75000  0.00000  Biso   1.000  Cu
  F1       1.0000 0.75000  0.25000  0.66320  Biso   1.000  F
  F2       1.0000 0.25000  0.75000  0.66320  Biso   1.000  F
  F3       1.0000 0.25000  0.75000  0.33680  Biso   1.000  F
  F4       1.0000 0.75000  0.25000  0.33680  Biso   1.000  F
  H1       1.0000 0.75000  0.25000  0.50000  Biso   1.000  H
  H2       1.0000 0.25000  0.75000  0.50000  Biso   1.000  H
  N1       1.0000 0.60100  0.10100  0.00000  Biso   1.000  N
  N2       1.0000 0.89900  0.39900  0.00000  Biso   1.000  N
  N3       1.0000 0.39900  0.60100  0.00000  Biso   1.000  N
  N4       1.0000 0.10100  0.89900  0.00000  Biso   1.000  N
  N5       1.0000 0.39900  0.89900  0.00000  Biso   1.000  N
  N6       1.0000 0.10100  0.60100  0.00000  Biso   1.000  N
  N7       1.0000 0.60100  0.39900  0.00000  Biso   1.000  N
  N8       1.0000 0.89900  0.10100  0.00000  Biso   1.000  N
  C1       1.0000 0.53790  0.06260  0.16150  Biso   1.000  C
  C2       1.0000 0.96210  0.43740  0.16150  Biso   1.000  C
  C3       1.0000 0.43740  0.53790  0.16150  Biso   1.000  C
  C4       1.0000 0.06260  0.96210  0.16150  Biso   1.000  C
  C5       1.0000 0.46210  0.56260  0.83850  Biso   1.000  C
  C6       1.0000 0.03790  0.93740  0.83850  Biso   1.000  C
  C7       1.0000 0.56260  0.03790  0.83850  Biso   1.000  C
  C8       1.0000 0.93740  0.46210  0.83850  Biso   1.000  C
  C9       1.0000 0.46210  0.93740  0.83850  Biso   1.000  C
  C10      1.0000 0.03790  0.56260  0.83850  Biso   1.000  C
  C11      1.0000 0.56260  0.46210  0.83850  Biso   1.000  C
  C12      1.0000 0.93740  0.03790  0.83850  Biso   1.000  C
  C13      1.0000 0.53790  0.43740  0.16150  Biso   1.000  C
  C14      1.0000 0.96210  0.06260  0.16150  Biso   1.000  C
  C15      1.0000 0.43740  0.96210  0.16150  Biso   1.000  C
  C16      1.0000 0.06260  0.53790  0.16150  Biso   1.000  C
  H3       1.0000 0.56210  0.10440  0.27710  Biso   1.000  H
  H4       1.0000 0.93790  0.39560  0.27710  Biso   1.000  H
  H5       1.0000 0.39560  0.56210  0.27710  Biso   1.000  H
  H6       1.0000 0.10440  0.93790  0.27710  Biso   1.000  H
  H7       1.0000 0.43790  0.60440  0.72290  Biso   1.000  H
  H8       1.0000 0.06210  0.89560  0.72290  Biso   1.000  H
  H9       1.0000 0.60440  0.06210  0.72290  Biso   1.000  H
  H10      1.0000 0.89560  0.43790  0.72290  Biso   1.000  H
  H11      1.0000 0.43790  0.89560  0.72290  Biso   1.000  H
  H12      1.0000 0.06210  0.60440  0.72290  Biso   1.000  H
  H13      1.0000 0.60440  0.43790  0.72290  Biso   1.000  H
  H14      1.0000 0.89560  0.06210  0.72290  Biso   1.000  H
  H15      1.0000 0.56210  0.39560  0.27710  Biso   1.000  H
  H16      1.0000 0.93790  0.10440  0.27710  Biso   1.000  H
  H17      1.0000 0.39560  0.93790  0.27710  Biso   1.000  H
  H18      1.0000 0.10440  0.56210  0.27710  Biso   1.000  H
  Sb1      1.0000 0.25000  0.25000  0.54228  Biso   1.000  Sb
  Sb2      1.0000 0.75000  0.75000  0.45772  Biso   1.000  Sb
  F5       1.0000 0.25000  0.25000  0.27240  Biso   1.000  F
  F6       1.0000 0.75000  0.75000  0.72760  Biso   1.000  F
  F7       1.0000 0.25000  0.25000  0.80780  Biso   1.000  F
  F8       1.0000 0.75000  0.75000  0.19220  Biso   1.000  F
  F9       1.0000 0.44230  0.25000  0.53760  Biso   1.000  F
  F10      1.0000 0.05770  0.25000  0.53760  Biso   1.000  F
  F11      1.0000 0.25000  0.44230  0.53760  Biso   1.000  F
  F12      1.0000 0.25000  0.05770  0.53760  Biso   1.000  F
  F13      1.0000 0.55770  0.75000  0.46240  Biso   1.000  F
  F14      1.0000 0.94230  0.75000  0.46240  Biso   1.000  F
  F15      1.0000 0.75000  0.94230  0.46240  Biso   1.000  F
  F16      1.0000 0.75000  0.55770  0.46240  Biso   1.000  F
