data_image0
_cell_length_a       15.0944
_cell_length_b       15.5893
_cell_length_c       14.7562
_cell_angle_alpha    90
_cell_angle_beta     90
_cell_angle_gamma    90

_symmetry_space_group_name_H-M    "P 1"
_symmetry_int_tables_number       1

loop_
  _symmetry_equiv_pos_as_xyz
  'x, y, z'

loop_
  _atom_site_label
  _atom_site_occupancy
  _atom_site_fract_x
  _atom_site_fract_y
  _atom_site_fract_z
  _atom_site_thermal_displace_type
  _atom_site_B_iso_or_equiv
  _atom_site_type_symbol
  Sb1      1.0000 0.00000  0.75000  0.25814  Biso   1.000  Sb
  Sb2      1.0000 0.00000  0.25000  0.74186  Biso   1.000  Sb
  Sb3      1.0000 0.50000  0.25000  0.25814  Biso   1.000  Sb
  Sb4      1.0000 0.50000  0.75000  0.74186  Biso   1.000  Sb
  F1       1.0000 0.87470  0.75000  0.25610  Biso   1.000  F
  F2       1.0000 0.12530  0.75000  0.25610  Biso   1.000  F
  F3       1.0000 0.12530  0.25000  0.74390  Biso   1.000  F
  F4       1.0000 0.87470  0.25000  0.74390  Biso   1.000  F
  F5       1.0000 0.37470  0.25000  0.25610  Biso   1.000  F
  F6       1.0000 0.62530  0.25000  0.25610  Biso   1.000  F
  F7       1.0000 0.62530  0.75000  0.74390  Biso   1.000  F
  F8       1.0000 0.37470  0.75000  0.74390  Biso   1.000  F
  F9       1.0000 0.00000  0.85540  0.32250  Biso   1.000  F
  F10      1.0000 0.00000  0.64460  0.32250  Biso   1.000  F
  F11      1.0000 0.00000  0.35540  0.67750  Biso   1.000  F
  F12      1.0000 0.00000  0.14460  0.67750  Biso   1.000  F
  F13      1.0000 0.50000  0.35540  0.32250  Biso   1.000  F
  F14      1.0000 0.50000  0.14460  0.32250  Biso   1.000  F
  F15      1.0000 0.50000  0.85540  0.67750  Biso   1.000  F
  F16      1.0000 0.50000  0.64460  0.67750  Biso   1.000  F
  F17      1.0000 0.00000  0.81410  0.14910  Biso   1.000  F
  F18      1.0000 0.00000  0.68590  0.14910  Biso   1.000  F
  F19      1.0000 0.00000  0.31410  0.85090  Biso   1.000  F
  F20      1.0000 0.00000  0.18590  0.85090  Biso   1.000  F
  F21      1.0000 0.50000  0.31410  0.14910  Biso   1.000  F
  F22      1.0000 0.50000  0.18590  0.14910  Biso   1.000  F
  F23      1.0000 0.50000  0.81410  0.85090  Biso   1.000  F
  F24      1.0000 0.50000  0.68590  0.85090  Biso   1.000  F
  Ag1      1.0000 0.25000  0.00000  0.00000  Biso   1.000  Ag
  Ag2      1.0000 0.75000  0.50000  0.00000  Biso   1.000  Ag
  Ag3      1.0000 0.75000  0.00000  0.00000  Biso   1.000  Ag
  Ag4      1.0000 0.25000  0.50000  0.00000  Biso   1.000  Ag
  Cu1      1.0000 0.25000  0.00000  0.50000  Biso   1.000  Cu
  Cu2      1.0000 0.75000  0.50000  0.50000  Biso   1.000  Cu
  Cu3      1.0000 0.75000  0.00000  0.50000  Biso   1.000  Cu
  Cu4      1.0000 0.25000  0.50000  0.50000  Biso   1.000  Cu
  N1       1.0000 0.25000  0.00000  0.36210  Biso   1.000  N
  N2       1.0000 0.75000  0.50000  0.36210  Biso   1.000  N
  N3       1.0000 0.75000  0.50000  0.63790  Biso   1.000  N
  N4       1.0000 0.25000  0.00000  0.63790  Biso   1.000  N
  N5       1.0000 0.75000  0.00000  0.63790  Biso   1.000  N
  N6       1.0000 0.25000  0.50000  0.63790  Biso   1.000  N
  N7       1.0000 0.25000  0.50000  0.36210  Biso   1.000  N
  N8       1.0000 0.75000  0.00000  0.36210  Biso   1.000  N
  N9       1.0000 0.25000  0.00000  0.17320  Biso   1.000  N
  N10      1.0000 0.75000  0.50000  0.17320  Biso   1.000  N
  N11      1.0000 0.75000  0.50000  0.82680  Biso   1.000  N
  N12      1.0000 0.25000  0.00000  0.82680  Biso   1.000  N
  N13      1.0000 0.75000  0.00000  0.82680  Biso   1.000  N
  N14      1.0000 0.25000  0.50000  0.82680  Biso   1.000  N
  N15      1.0000 0.25000  0.50000  0.17320  Biso   1.000  N
  N16      1.0000 0.75000  0.00000  0.17320  Biso   1.000  N
  C1       1.0000 0.28590  0.06390  0.31460  Biso   1.000  C
  C2       1.0000 0.71410  0.43610  0.31460  Biso   1.000  C
  C3       1.0000 0.71410  0.56390  0.68540  Biso   1.000  C
  C4       1.0000 0.28590  0.93610  0.68540  Biso   1.000  C
  C5       1.0000 0.78590  0.56390  0.31460  Biso   1.000  C
  C6       1.0000 0.21410  0.93610  0.31460  Biso   1.000  C
  C7       1.0000 0.21410  0.06390  0.68540  Biso   1.000  C
  C8       1.0000 0.78590  0.43610  0.68540  Biso   1.000  C
  C9       1.0000 0.71410  0.93610  0.68540  Biso   1.000  C
  C10      1.0000 0.28590  0.56390  0.68540  Biso   1.000  C
  C11      1.0000 0.28590  0.43610  0.31460  Biso   1.000  C
  C12      1.0000 0.71410  0.06390  0.31460  Biso   1.000  C
  C13      1.0000 0.21410  0.43610  0.68540  Biso   1.000  C
  C14      1.0000 0.78590  0.06390  0.68540  Biso   1.000  C
  C15      1.0000 0.78590  0.93610  0.31460  Biso   1.000  C
  C16      1.0000 0.21410  0.56390  0.31460  Biso   1.000  C
  H1       1.0000 0.31230  0.11070  0.34570  Biso   1.000  H
  H2       1.0000 0.68770  0.38930  0.34570  Biso   1.000  H
  H3       1.0000 0.68770  0.61070  0.65430  Biso   1.000  H
  H4       1.0000 0.31230  0.88930  0.65430  Biso   1.000  H
  H5       1.0000 0.81230  0.61070  0.34570  Biso   1.000  H
  H6       1.0000 0.18770  0.88930  0.34570  Biso   1.000  H
  H7       1.0000 0.18770  0.11070  0.65430  Biso   1.000  H
  H8       1.0000 0.81230  0.38930  0.65430  Biso   1.000  H
  H9       1.0000 0.68770  0.88930  0.65430  Biso   1.000  H
  H10      1.0000 0.31230  0.61070  0.65430  Biso   1.000  H
  H11      1.0000 0.31230  0.38930  0.34570  Biso   1.000  H
  H12      1.0000 0.68770  0.11070  0.34570  Biso   1.000  H
  H13      1.0000 0.18770  0.38930  0.65430  Biso   1.000  H
  H14      1.0000 0.81230  0.11070  0.65430  Biso   1.000  H
  H15      1.0000 0.81230  0.88930  0.34570  Biso   1.000  H
  H16      1.0000 0.18770  0.61070  0.34570  Biso   1.000  H
  C17      1.0000 0.28560  0.06340  0.22140  Biso   1.000  C
  C18      1.0000 0.71440  0.43660  0.22140  Biso   1.000  C
  C19      1.0000 0.71440  0.56340  0.77860  Biso   1.000  C
  C20      1.0000 0.28560  0.93660  0.77860  Biso   1.000  C
  C21      1.0000 0.78560  0.56340  0.22140  Biso   1.000  C
  C22      1.0000 0.21440  0.93660  0.22140  Biso   1.000  C
  C23      1.0000 0.21440  0.06340  0.77860  Biso   1.000  C
  C24      1.0000 0.78560  0.43660  0.77860  Biso   1.000  C
  C25      1.0000 0.71440  0.93660  0.77860  Biso   1.000  C
  C26      1.0000 0.28560  0.56340  0.77860  Biso   1.000  C
  C27      1.0000 0.28560  0.43660  0.22140  Biso   1.000  C
  C28      1.0000 0.71440  0.06340  0.22140  Biso   1.000  C
  C29      1.0000 0.21440  0.43660  0.77860  Biso   1.000  C
  C30      1.0000 0.78560  0.06340  0.77860  Biso   1.000  C
  C31      1.0000 0.78560  0.93660  0.22140  Biso   1.000  C
  C32      1.0000 0.21440  0.56340  0.22140  Biso   1.000  C
  H17      1.0000 0.31190  0.11020  0.19010  Biso   1.000  H
  H18      1.0000 0.68810  0.38980  0.19010  Biso   1.000  H
  H19      1.0000 0.68810  0.61020  0.80990  Biso   1.000  H
  H20      1.0000 0.31190  0.88980  0.80990  Biso   1.000  H
  H21      1.0000 0.81190  0.61020  0.19010  Biso   1.000  H
  H22      1.0000 0.18810  0.88980  0.19010  Biso   1.000  H
  H23      1.0000 0.18810  0.11020  0.80990  Biso   1.000  H
  H24      1.0000 0.81190  0.38980  0.80990  Biso   1.000  H
  H25      1.0000 0.68810  0.88980  0.80990  Biso   1.000  H
  H26      1.0000 0.31190  0.61020  0.80990  Biso   1.000  H
  H27      1.0000 0.31190  0.38980  0.19010  Biso   1.000  H
  H28      1.0000 0.68810  0.11020  0.19010  Biso   1.000  H
  H29      1.0000 0.18810  0.38980  0.80990  Biso   1.000  H
  H30      1.0000 0.81190  0.11020  0.80990  Biso   1.000  H
  H31      1.0000 0.81190  0.88980  0.19010  Biso   1.000  H
  H32      1.0000 0.18810  0.61020  0.19010  Biso   1.000  H
  N17      1.0000 0.09270  0.00000  0.50000  Biso   1.000  N
  N18      1.0000 0.90730  0.50000  0.50000  Biso   1.000  N
  N19      1.0000 0.59270  0.50000  0.50000  Biso   1.000  N
  N20      1.0000 0.40730  0.00000  0.50000  Biso   1.000  N
  N21      1.0000 0.90730  0.00000  0.50000  Biso   1.000  N
  N22      1.0000 0.09270  0.50000  0.50000  Biso   1.000  N
  N23      1.0000 0.40730  0.50000  0.50000  Biso   1.000  N
  N24      1.0000 0.59270  0.00000  0.50000  Biso   1.000  N
  C33      1.0000 0.04550  0.04240  0.43790  Biso   1.000  C
  C34      1.0000 0.95450  0.45760  0.43790  Biso   1.000  C
  C35      1.0000 0.95450  0.54240  0.56210  Biso   1.000  C
  C36      1.0000 0.04550  0.95760  0.56210  Biso   1.000  C
  C37      1.0000 0.54550  0.54240  0.43790  Biso   1.000  C
  C38      1.0000 0.45450  0.95760  0.43790  Biso   1.000  C
  C39      1.0000 0.45450  0.04240  0.56210  Biso   1.000  C
  C40      1.0000 0.54550  0.45760  0.56210  Biso   1.000  C
  C41      1.0000 0.95450  0.95760  0.56210  Biso   1.000  C
  C42      1.0000 0.04550  0.54240  0.56210  Biso   1.000  C
  C43      1.0000 0.04550  0.45760  0.43790  Biso   1.000  C
  C44      1.0000 0.95450  0.04240  0.43790  Biso   1.000  C
  C45      1.0000 0.45450  0.45760  0.56210  Biso   1.000  C
  C46      1.0000 0.54550  0.04240  0.56210  Biso   1.000  C
  C47      1.0000 0.54550  0.95760  0.43790  Biso   1.000  C
  C48      1.0000 0.45450  0.54240  0.43790  Biso   1.000  C
  H33      1.0000 0.07590  0.07370  0.39220  Biso   1.000  H
  H34      1.0000 0.92410  0.42630  0.39220  Biso   1.000  H
  H35      1.0000 0.92410  0.57370  0.60780  Biso   1.000  H
  H36      1.0000 0.07590  0.92630  0.60780  Biso   1.000  H
  H37      1.0000 0.57590  0.57370  0.39220  Biso   1.000  H
  H38      1.0000 0.42410  0.92630  0.39220  Biso   1.000  H
  H39      1.0000 0.42410  0.07370  0.60780  Biso   1.000  H
  H40      1.0000 0.57590  0.42630  0.60780  Biso   1.000  H
  H41      1.0000 0.92410  0.92630  0.60780  Biso   1.000  H
  H42      1.0000 0.07590  0.57370  0.60780  Biso   1.000  H
  H43      1.0000 0.07590  0.42630  0.39220  Biso   1.000  H
  H44      1.0000 0.92410  0.07370  0.39220  Biso   1.000  H
  H45      1.0000 0.42410  0.42630  0.60780  Biso   1.000  H
  H46      1.0000 0.57590  0.07370  0.60780  Biso   1.000  H
  H47      1.0000 0.57590  0.92630  0.39220  Biso   1.000  H
  H48      1.0000 0.42410  0.57370  0.39220  Biso   1.000  H
  N25      1.0000 0.09170  0.00000  0.00000  Biso   1.000  N
  N26      1.0000 0.90830  0.50000  0.00000  Biso   1.000  N
  N27      1.0000 0.59170  0.50000  0.00000  Biso   1.000  N
  N28      1.0000 0.40830  0.00000  0.00000  Biso   1.000  N
  N29      1.0000 0.90830  0.00000  0.00000  Biso   1.000  N
  N30      1.0000 0.09170  0.50000  0.00000  Biso   1.000  N
  N31      1.0000 0.40830  0.50000  0.00000  Biso   1.000  N
  N32      1.0000 0.59170  0.00000  0.00000  Biso   1.000  N
  C49      1.0000 0.04540  0.03360  0.06770  Biso   1.000  C
  C50      1.0000 0.95460  0.46640  0.06770  Biso   1.000  C
  C51      1.0000 0.95460  0.53360  0.93230  Biso   1.000  C
  C52      1.0000 0.04540  0.96640  0.93230  Biso   1.000  C
  C53      1.0000 0.54540  0.53360  0.06770  Biso   1.000  C
  C54      1.0000 0.45460  0.96640  0.06770  Biso   1.000  C
  C55      1.0000 0.45460  0.03360  0.93230  Biso   1.000  C
  C56      1.0000 0.54540  0.46640  0.93230  Biso   1.000  C
  C57      1.0000 0.95460  0.96640  0.93230  Biso   1.000  C
  C58      1.0000 0.04540  0.53360  0.93230  Biso   1.000  C
  C59      1.0000 0.04540  0.46640  0.06770  Biso   1.000  C
  C60      1.0000 0.95460  0.03360  0.06770  Biso   1.000  C
  C61      1.0000 0.45460  0.46640  0.93230  Biso   1.000  C
  C62      1.0000 0.54540  0.03360  0.93230  Biso   1.000  C
  C63      1.0000 0.54540  0.96640  0.06770  Biso   1.000  C
  C64      1.0000 0.45460  0.53360  0.06770  Biso   1.000  C
  H49      1.0000 0.07600  0.05840  0.11750  Biso   1.000  H
  H50      1.0000 0.92400  0.44160  0.11750  Biso   1.000  H
  H51      1.0000 0.92400  0.55840  0.88250  Biso   1.000  H
  H52      1.0000 0.07600  0.94160  0.88250  Biso   1.000  H
  H53      1.0000 0.57600  0.55840  0.11750  Biso   1.000  H
  H54      1.0000 0.42400  0.94160  0.11750  Biso   1.000  H
  H55      1.0000 0.42400  0.05840  0.88250  Biso   1.000  H
  H56      1.0000 0.57600  0.44160  0.88250  Biso   1.000  H
  H57      1.0000 0.92400  0.94160  0.88250  Biso   1.000  H
  H58      1.0000 0.07600  0.55840  0.88250  Biso   1.000  H
  H59      1.0000 0.07600  0.44160  0.11750  Biso   1.000  H
  H60      1.0000 0.92400  0.05840  0.11750  Biso   1.000  H
  H61      1.0000 0.42400  0.44160  0.88250  Biso   1.000  H
  H62      1.0000 0.57600  0.05840  0.88250  Biso   1.000  H
  H63      1.0000 0.57600  0.94160  0.11750  Biso   1.000  H
  H64      1.0000 0.42400  0.55840  0.11750  Biso   1.000  H
  N33      1.0000 0.25000  0.16040  0.00000  Biso   1.000  N
  N34      1.0000 0.75000  0.33960  0.00000  Biso   1.000  N
  N35      1.0000 0.75000  0.66040  0.00000  Biso   1.000  N
  N36      1.0000 0.25000  0.83960  0.00000  Biso   1.000  N
  N37      1.0000 0.75000  0.83960  0.00000  Biso   1.000  N
  N38      1.0000 0.25000  0.66040  0.00000  Biso   1.000  N
  N39      1.0000 0.25000  0.33960  0.00000  Biso   1.000  N
  N40      1.0000 0.75000  0.16040  0.00000  Biso   1.000  N
  C65      1.0000 0.17690  0.20650  0.98410  Biso   1.000  C
  C66      1.0000 0.82310  0.29350  0.98410  Biso   1.000  C
  C67      1.0000 0.82310  0.70650  0.01590  Biso   1.000  C
  C68      1.0000 0.17690  0.79350  0.01590  Biso   1.000  C
  C69      1.0000 0.67690  0.70650  0.98410  Biso   1.000  C
  C70      1.0000 0.32310  0.79350  0.98410  Biso   1.000  C
  C71      1.0000 0.32310  0.20650  0.01590  Biso   1.000  C
  C72      1.0000 0.67690  0.29350  0.01590  Biso   1.000  C
  C73      1.0000 0.82310  0.79350  0.01590  Biso   1.000  C
  C74      1.0000 0.17690  0.70650  0.01590  Biso   1.000  C
  C75      1.0000 0.17690  0.29350  0.98410  Biso   1.000  C
  C76      1.0000 0.82310  0.20650  0.98410  Biso   1.000  C
  C77      1.0000 0.32310  0.29350  0.01590  Biso   1.000  C
  C78      1.0000 0.67690  0.20650  0.01590  Biso   1.000  C
  C79      1.0000 0.67690  0.79350  0.98410  Biso   1.000  C
  C80      1.0000 0.32310  0.70650  0.98410  Biso   1.000  C
  H65      1.0000 0.12290  0.17720  0.97240  Biso   1.000  H
  H66      1.0000 0.87710  0.32280  0.97240  Biso   1.000  H
  H67      1.0000 0.87710  0.67720  0.02760  Biso   1.000  H
  H68      1.0000 0.12290  0.82280  0.02760  Biso   1.000  H
  H69      1.0000 0.62290  0.67720  0.97240  Biso   1.000  H
  H70      1.0000 0.37710  0.82280  0.97240  Biso   1.000  H
  H71      1.0000 0.37710  0.17720  0.02760  Biso   1.000  H
  H72      1.0000 0.62290  0.32280  0.02760  Biso   1.000  H
  H73      1.0000 0.87710  0.82280  0.02760  Biso   1.000  H
  H74      1.0000 0.12290  0.67720  0.02760  Biso   1.000  H
  H75      1.0000 0.12290  0.32280  0.97240  Biso   1.000  H
  H76      1.0000 0.87710  0.17720  0.97240  Biso   1.000  H
  H77      1.0000 0.37710  0.32280  0.02760  Biso   1.000  H
  H78      1.0000 0.62290  0.17720  0.02760  Biso   1.000  H
  H79      1.0000 0.62290  0.82280  0.97240  Biso   1.000  H
  H80      1.0000 0.37710  0.67720  0.97240  Biso   1.000  H
  F25      1.0000 0.25000  0.12920  0.50000  Biso   1.000  F
  F26      1.0000 0.75000  0.37080  0.50000  Biso   1.000  F
  F27      1.0000 0.75000  0.62920  0.50000  Biso   1.000  F
  F28      1.0000 0.25000  0.87080  0.50000  Biso   1.000  F
  F29      1.0000 0.75000  0.87080  0.50000  Biso   1.000  F
  F30      1.0000 0.25000  0.62920  0.50000  Biso   1.000  F
  F31      1.0000 0.25000  0.37080  0.50000  Biso   1.000  F
  F32      1.0000 0.75000  0.12920  0.50000  Biso   1.000  F
  H81      1.0000 0.19500  0.19600  0.49700  Biso   1.000  H
  H82      1.0000 0.80500  0.30400  0.49700  Biso   1.000  H
  H83      1.0000 0.80500  0.69600  0.50300  Biso   1.000  H
  H84      1.0000 0.19500  0.80400  0.50300  Biso   1.000  H
  H85      1.0000 0.69500  0.69600  0.49700  Biso   1.000  H
  H86      1.0000 0.30500  0.80400  0.49700  Biso   1.000  H
  H87      1.0000 0.30500  0.19600  0.50300  Biso   1.000  H
  H88      1.0000 0.69500  0.30400  0.50300  Biso   1.000  H
  H89      1.0000 0.80500  0.80400  0.50300  Biso   1.000  H
  H90      1.0000 0.19500  0.69600  0.50300  Biso   1.000  H
  H91      1.0000 0.19500  0.30400  0.49700  Biso   1.000  H
  H92      1.0000 0.80500  0.19600  0.49700  Biso   1.000  H
  H93      1.0000 0.30500  0.30400  0.50300  Biso   1.000  H
  H94      1.0000 0.69500  0.19600  0.50300  Biso   1.000  H
  H95      1.0000 0.69500  0.80400  0.49700  Biso   1.000  H
  H96      1.0000 0.30500  0.69600  0.49700  Biso   1.000  H
  F33      1.0000 0.12590  0.25000  0.50150  Biso   1.000  F
  F34      1.0000 0.87410  0.25000  0.50150  Biso   1.000  F
  F35      1.0000 0.87410  0.75000  0.49850  Biso   1.000  F
  F36      1.0000 0.12590  0.75000  0.49850  Biso   1.000  F
  F37      1.0000 0.62590  0.75000  0.50150  Biso   1.000  F
  F38      1.0000 0.37410  0.75000  0.50150  Biso   1.000  F
  F39      1.0000 0.37410  0.25000  0.49850  Biso   1.000  F
  F40      1.0000 0.62590  0.25000  0.49850  Biso   1.000  F
  Sb5      1.0000 0.00000  0.25000  0.24561  Biso   1.000  Sb
  Sb6      1.0000 0.00000  0.75000  0.75439  Biso   1.000  Sb
  Sb7      1.0000 0.50000  0.75000  0.24561  Biso   1.000  Sb
  Sb8      1.0000 0.50000  0.25000  0.75439  Biso   1.000  Sb
  F41      1.0000 0.00000  0.25000  0.11790  Biso   1.000  F
  F42      1.0000 0.00000  0.75000  0.88210  Biso   1.000  F
  F43      1.0000 0.50000  0.75000  0.11790  Biso   1.000  F
  F44      1.0000 0.50000  0.25000  0.88210  Biso   1.000  F
  F45      1.0000 0.00000  0.25000  0.37490  Biso   1.000  F
  F46      1.0000 0.00000  0.75000  0.62510  Biso   1.000  F
  F47      1.0000 0.50000  0.75000  0.37490  Biso   1.000  F
  F48      1.0000 0.50000  0.25000  0.62510  Biso   1.000  F
  F49      1.0000 0.91200  0.33595  0.24335  Biso   1.000  F
  F50      1.0000 0.08800  0.16405  0.24335  Biso   1.000  F
  F51      1.0000 0.08800  0.83595  0.75665  Biso   1.000  F
  F52      1.0000 0.91200  0.66405  0.75665  Biso   1.000  F
  F53      1.0000 0.41200  0.83595  0.24335  Biso   1.000  F
  F54      1.0000 0.58800  0.66405  0.24335  Biso   1.000  F
  F55      1.0000 0.58800  0.33595  0.75665  Biso   1.000  F
  F56      1.0000 0.41200  0.16405  0.75665  Biso   1.000  F
  F57      1.0000 0.08800  0.66405  0.75665  Biso   1.000  F
  F58      1.0000 0.91200  0.83595  0.75665  Biso   1.000  F
  F59      1.0000 0.91200  0.16405  0.24335  Biso   1.000  F
  F60      1.0000 0.08800  0.33595  0.24335  Biso   1.000  F
  F61      1.0000 0.58800  0.16405  0.75665  Biso   1.000  F
  F62      1.0000 0.41200  0.33595  0.75665  Biso   1.000  F
  F63      1.0000 0.41200  0.66405  0.24335  Biso   1.000  F
  F64      1.0000 0.58800  0.83595  0.24335  Biso   1.000  F
  F65      1.0000 0.00000  0.85260  0.19120  Biso   1.000  F
  F66      1.0000 0.00000  0.64740  0.19120  Biso   1.000  F
  F67      1.0000 0.00000  0.35260  0.80880  Biso   1.000  F
  F68      1.0000 0.00000  0.14740  0.80880  Biso   1.000  F
  F69      1.0000 0.50000  0.35260  0.19120  Biso   1.000  F
  F70      1.0000 0.50000  0.14740  0.19120  Biso   1.000  F
  F71      1.0000 0.50000  0.85260  0.80880  Biso   1.000  F
  F72      1.0000 0.50000  0.64740  0.80880  Biso   1.000  F
  F73      1.0000 0.00000  0.81040  0.36870  Biso   1.000  F
  F74      1.0000 0.00000  0.68960  0.36870  Biso   1.000  F
  F75      1.0000 0.00000  0.31040  0.63130  Biso   1.000  F
  F76      1.0000 0.00000  0.18960  0.63130  Biso   1.000  F
  F77      1.0000 0.50000  0.31040  0.36870  Biso   1.000  F
  F78      1.0000 0.50000  0.18960  0.36870  Biso   1.000  F
  F79      1.0000 0.50000  0.81040  0.63130  Biso   1.000  F
  F80      1.0000 0.50000  0.68960  0.63130  Biso   1.000  F
