data_image0
_cell_length_a       9.719
_cell_length_b       9.719
_cell_length_c       6.865
_cell_angle_alpha    90
_cell_angle_beta     90
_cell_angle_gamma    90

_symmetry_space_group_name_H-M    "P 1"
_symmetry_int_tables_number       1

loop_
  _symmetry_equiv_pos_as_xyz
  'x, y, z'

loop_
  _atom_site_label
  _atom_site_occupancy
  _atom_site_fract_x
  _atom_site_fract_y
  _atom_site_fract_z
  _atom_site_thermal_displace_type
  _atom_site_B_iso_or_equiv
  _atom_site_type_symbol
  Cu1      1.0000 0.75000  0.25000  0.00000  Biso   1.000  Cu
  Cu2      1.0000 0.25000  0.75000  0.00000  Biso   1.000  Cu
  F1       1.0000 0.75000  0.25000  0.66650  Biso   1.000  F
  F2       1.0000 0.25000  0.75000  0.66650  Biso   1.000  F
  F3       1.0000 0.25000  0.75000  0.33350  Biso   1.000  F
  F4       1.0000 0.75000  0.25000  0.33350  Biso   1.000  F
  H1       1.0000 0.75000  0.25000  0.50000  Biso   1.000  H
  H2       1.0000 0.25000  0.75000  0.50000  Biso   1.000  H
  N1       1.0000 0.60129  0.10129  0.00000  Biso   1.000  N
  N2       1.0000 0.89871  0.39871  0.00000  Biso   1.000  N
  N3       1.0000 0.39871  0.60129  0.00000  Biso   1.000  N
  N4       1.0000 0.10129  0.89871  0.00000  Biso   1.000  N
  N5       1.0000 0.39871  0.89871  0.00000  Biso   1.000  N
  N6       1.0000 0.10129  0.60129  0.00000  Biso   1.000  N
  N7       1.0000 0.60129  0.39871  0.00000  Biso   1.000  N
  N8       1.0000 0.89871  0.10129  0.00000  Biso   1.000  N
  C1       1.0000 0.53467  0.06587  0.16380  Biso   1.000  C
  C2       1.0000 0.96533  0.43413  0.16380  Biso   1.000  C
  C3       1.0000 0.43413  0.53467  0.16380  Biso   1.000  C
  C4       1.0000 0.06587  0.96533  0.16380  Biso   1.000  C
  C5       1.0000 0.46533  0.56587  0.83620  Biso   1.000  C
  C6       1.0000 0.03467  0.93413  0.83620  Biso   1.000  C
  C7       1.0000 0.56587  0.03467  0.83620  Biso   1.000  C
  C8       1.0000 0.93413  0.46533  0.83620  Biso   1.000  C
  C9       1.0000 0.46533  0.93413  0.83620  Biso   1.000  C
  C10      1.0000 0.03467  0.56587  0.83620  Biso   1.000  C
  C11      1.0000 0.56587  0.46533  0.83620  Biso   1.000  C
  C12      1.0000 0.93413  0.03467  0.83620  Biso   1.000  C
  C13      1.0000 0.53467  0.43413  0.16380  Biso   1.000  C
  C14      1.0000 0.96533  0.06587  0.16380  Biso   1.000  C
  C15      1.0000 0.43413  0.96533  0.16380  Biso   1.000  C
  C16      1.0000 0.06587  0.53467  0.16380  Biso   1.000  C
  H3       1.0000 0.55710  0.11090  0.28240  Biso   1.000  H
  H4       1.0000 0.94290  0.38910  0.28240  Biso   1.000  H
  H5       1.0000 0.38910  0.55710  0.28240  Biso   1.000  H
  H6       1.0000 0.11090  0.94290  0.28240  Biso   1.000  H
  H7       1.0000 0.44290  0.61090  0.71760  Biso   1.000  H
  H8       1.0000 0.05710  0.88910  0.71760  Biso   1.000  H
  H9       1.0000 0.61090  0.05710  0.71760  Biso   1.000  H
  H10      1.0000 0.88910  0.44290  0.71760  Biso   1.000  H
  H11      1.0000 0.44290  0.88910  0.71760  Biso   1.000  H
  H12      1.0000 0.05710  0.61090  0.71760  Biso   1.000  H
  H13      1.0000 0.61090  0.44290  0.71760  Biso   1.000  H
  H14      1.0000 0.88910  0.05710  0.71760  Biso   1.000  H
  H15      1.0000 0.55710  0.38910  0.28240  Biso   1.000  H
  H16      1.0000 0.94290  0.11090  0.28240  Biso   1.000  H
  H17      1.0000 0.38910  0.94290  0.28240  Biso   1.000  H
  H18      1.0000 0.11090  0.55710  0.28240  Biso   1.000  H
  Sb1      1.0000 0.25000  0.25000  0.55438  Biso   1.000  Sb
  Sb2      1.0000 0.75000  0.75000  0.44562  Biso   1.000  Sb
  F5       1.0000 0.25000  0.25000  0.28180  Biso   1.000  F
  F6       1.0000 0.75000  0.75000  0.71820  Biso   1.000  F
  F7       1.0000 0.25000  0.25000  0.82580  Biso   1.000  F
  F8       1.0000 0.75000  0.75000  0.17420  Biso   1.000  F
  F9       1.0000 0.44365  0.25000  0.55000  Biso   1.000  F
  F10      1.0000 0.05635  0.25000  0.55000  Biso   1.000  F
  F11      1.0000 0.25000  0.44365  0.55000  Biso   1.000  F
  F12      1.0000 0.25000  0.05635  0.55000  Biso   1.000  F
  F13      1.0000 0.55635  0.75000  0.45000  Biso   1.000  F
  F14      1.0000 0.94365  0.75000  0.45000  Biso   1.000  F
  F15      1.0000 0.75000  0.94365  0.45000  Biso   1.000  F
  F16      1.0000 0.75000  0.55635  0.45000  Biso   1.000  F
