data_image0
_cell_length_a       10.3644
_cell_length_b       20.6293
_cell_length_c       13.0267
_cell_angle_alpha    90
_cell_angle_beta     111.392
_cell_angle_gamma    90

_symmetry_space_group_name_H-M    "P 1"
_symmetry_int_tables_number       1

loop_
  _symmetry_equiv_pos_as_xyz
  'x, y, z'

loop_
  _atom_site_label
  _atom_site_occupancy
  _atom_site_fract_x
  _atom_site_fract_y
  _atom_site_fract_z
  _atom_site_thermal_displace_type
  _atom_site_B_iso_or_equiv
  _atom_site_type_symbol
  Cu1      1.0000 0.43473  0.12581  0.15988  Biso   1.000  Cu
  Cu2      1.0000 0.56527  0.62581  0.34012  Biso   1.000  Cu
  Cu3      1.0000 0.56527  0.87419  0.84012  Biso   1.000  Cu
  Cu4      1.0000 0.43473  0.37419  0.65988  Biso   1.000  Cu
  O1       1.0000 0.31190  0.14773  0.24097  Biso   1.000  O
  O2       1.0000 0.68810  0.64773  0.25903  Biso   1.000  O
  O3       1.0000 0.68810  0.85227  0.75903  Biso   1.000  O
  O4       1.0000 0.31190  0.35227  0.74097  Biso   1.000  O
  O5       1.0000 0.51438  0.14303  0.37856  Biso   1.000  O
  O6       1.0000 0.48562  0.64303  0.12144  Biso   1.000  O
  O7       1.0000 0.48562  0.85697  0.62144  Biso   1.000  O
  O8       1.0000 0.51438  0.35697  0.87856  Biso   1.000  O
  N1       1.0000 0.45550  0.02689  0.17150  Biso   1.000  N
  N2       1.0000 0.54450  0.52689  0.32850  Biso   1.000  N
  N3       1.0000 0.54450  0.97311  0.82850  Biso   1.000  N
  N4       1.0000 0.45550  0.47311  0.67150  Biso   1.000  N
  C1       1.0000 0.06640  0.25422  0.60103  Biso   1.000  C
  C2       1.0000 0.93360  0.75422  0.89897  Biso   1.000  C
  C3       1.0000 0.93360  0.74578  0.39897  Biso   1.000  C
  C4       1.0000 0.06640  0.24578  0.10103  Biso   1.000  C
  H1       1.0000 0.10450  0.28080  0.66240  Biso   1.000  H
  H2       1.0000 0.89550  0.78080  0.83760  Biso   1.000  H
  H3       1.0000 0.89550  0.71920  0.33760  Biso   1.000  H
  H4       1.0000 0.10450  0.21920  0.16240  Biso   1.000  H
  C5       1.0000 0.39030  0.99304  0.07910  Biso   1.000  C
  C6       1.0000 0.60970  0.49304  0.42090  Biso   1.000  C
  C7       1.0000 0.60970  0.00696  0.92090  Biso   1.000  C
  C8       1.0000 0.39030  0.50696  0.57910  Biso   1.000  C
  N5       1.0000 0.31430  0.09717  0.99811  Biso   1.000  N
  N6       1.0000 0.68570  0.59717  0.50189  Biso   1.000  N
  N7       1.0000 0.68570  0.90283  0.00189  Biso   1.000  N
  N8       1.0000 0.31430  0.40283  0.49811  Biso   1.000  N
  C9       1.0000 0.39400  0.92566  0.07880  Biso   1.000  C
  C10      1.0000 0.60600  0.42566  0.42120  Biso   1.000  C
  C11      1.0000 0.60600  0.07434  0.92120  Biso   1.000  C
  C12      1.0000 0.39400  0.57434  0.57880  Biso   1.000  C
  H5       1.0000 0.34840  0.90300  0.01390  Biso   1.000  H
  H6       1.0000 0.65160  0.40300  0.48610  Biso   1.000  H
  H7       1.0000 0.65160  0.09700  0.98610  Biso   1.000  H
  H8       1.0000 0.34840  0.59700  0.51390  Biso   1.000  H
  C13      1.0000 0.38700  0.15287  0.34317  Biso   1.000  C
  C14      1.0000 0.61300  0.65287  0.15683  Biso   1.000  C
  C15      1.0000 0.61300  0.84713  0.65683  Biso   1.000  C
  C16      1.0000 0.38700  0.34713  0.84317  Biso   1.000  C
  C17      1.0000 0.31680  0.17285  0.41988  Biso   1.000  C
  C18      1.0000 0.68320  0.67285  0.08012  Biso   1.000  C
  C19      1.0000 0.68320  0.82715  0.58012  Biso   1.000  C
  C20      1.0000 0.31680  0.32715  0.91988  Biso   1.000  C
  H9       1.0000 0.37020  0.18990  0.48830  Biso   1.000  H
  H10      1.0000 0.62980  0.68990  0.01170  Biso   1.000  H
  H11      1.0000 0.62980  0.81010  0.51170  Biso   1.000  H
  H12      1.0000 0.37020  0.31010  0.98830  Biso   1.000  H
  C21      1.0000 0.31350  0.03276  0.97920  Biso   1.000  C
  C22      1.0000 0.68650  0.53276  0.52080  Biso   1.000  C
  C23      1.0000 0.68650  0.96724  0.02080  Biso   1.000  C
  C24      1.0000 0.31350  0.46724  0.47920  Biso   1.000  C
  C25      1.0000 0.09740  0.18896  0.45756  Biso   1.000  C
  C26      1.0000 0.90260  0.68896  0.04244  Biso   1.000  C
  C27      1.0000 0.90260  0.81104  0.54244  Biso   1.000  C
  C28      1.0000 0.09740  0.31104  0.95756  Biso   1.000  C
  C29      1.0000 0.24900  0.00649  0.87530  Biso   1.000  C
  C30      1.0000 0.75100  0.50649  0.62470  Biso   1.000  C
  C31      1.0000 0.75100  0.99351  0.12470  Biso   1.000  C
  C32      1.0000 0.24900  0.49351  0.37530  Biso   1.000  C
  H13      1.0000 0.25150  0.96190  0.86510  Biso   1.000  H
  H14      1.0000 0.74850  0.46190  0.63490  Biso   1.000  H
  H15      1.0000 0.74850  0.03810  0.13490  Biso   1.000  H
  H16      1.0000 0.25150  0.53810  0.36510  Biso   1.000  H
  C33      1.0000 0.18010  0.04658  0.78540  Biso   1.000  C
  C34      1.0000 0.81990  0.54658  0.71460  Biso   1.000  C
  C35      1.0000 0.81990  0.95342  0.21460  Biso   1.000  C
  C36      1.0000 0.18010  0.45342  0.28540  Biso   1.000  C
  C37      1.0000 0.15190  0.22791  0.55167  Biso   1.000  C
  C38      1.0000 0.84810  0.72791  0.94833  Biso   1.000  C
  C39      1.0000 0.84810  0.77209  0.44833  Biso   1.000  C
  C40      1.0000 0.15190  0.27209  0.05167  Biso   1.000  C
  H17      1.0000 0.24660  0.23610  0.58120  Biso   1.000  H
  H18      1.0000 0.75340  0.73610  0.91880  Biso   1.000  H
  H19      1.0000 0.75340  0.76390  0.41880  Biso   1.000  H
  H20      1.0000 0.24660  0.26390  0.08120  Biso   1.000  H
  C41      1.0000 0.92390  0.24180  0.56090  Biso   1.000  C
  C42      1.0000 0.07610  0.74180  0.93910  Biso   1.000  C
  C43      1.0000 0.07610  0.75820  0.43910  Biso   1.000  C
  C44      1.0000 0.92390  0.25820  0.06090  Biso   1.000  C
  C45      1.0000 0.52430  0.99497  0.26470  Biso   1.000  C
  C46      1.0000 0.47570  0.49497  0.23530  Biso   1.000  C
  C47      1.0000 0.47570  0.00503  0.73530  Biso   1.000  C
  C48      1.0000 0.52430  0.50503  0.76470  Biso   1.000  C
  H21      1.0000 0.56920  0.01860  0.32870  Biso   1.000  H
  H22      1.0000 0.43080  0.51860  0.17130  Biso   1.000  H
  H23      1.0000 0.43080  0.98140  0.67130  Biso   1.000  H
  H24      1.0000 0.56920  0.48140  0.82870  Biso   1.000  H
  C49      1.0000 0.70450  0.26129  0.59480  Biso   1.000  C
  C50      1.0000 0.29550  0.76129  0.90520  Biso   1.000  C
  C51      1.0000 0.29550  0.73871  0.40520  Biso   1.000  C
  C52      1.0000 0.70450  0.23871  0.09480  Biso   1.000  C
  H25      1.0000 0.66670  0.22290  0.55880  Biso   1.000  H
  H26      1.0000 0.33330  0.72290  0.94120  Biso   1.000  H
  H27      1.0000 0.33330  0.77710  0.44120  Biso   1.000  H
  H28      1.0000 0.66670  0.27710  0.05880  Biso   1.000  H
  C53      1.0000 0.95560  0.17556  0.41890  Biso   1.000  C
  C54      1.0000 0.04440  0.67556  0.08110  Biso   1.000  C
  C55      1.0000 0.04440  0.82444  0.58110  Biso   1.000  C
  C56      1.0000 0.95560  0.32444  0.91890  Biso   1.000  C
  H29      1.0000 0.91760  0.14910  0.35740  Biso   1.000  H
  H30      1.0000 0.08240  0.64910  0.14260  Biso   1.000  H
  H31      1.0000 0.08240  0.85090  0.64260  Biso   1.000  H
  H32      1.0000 0.91760  0.35090  0.85740  Biso   1.000  H
  C57      1.0000 0.53100  0.92802  0.26920  Biso   1.000  C
  C58      1.0000 0.46900  0.42802  0.23080  Biso   1.000  C
  C59      1.0000 0.46900  0.07198  0.73080  Biso   1.000  C
  C60      1.0000 0.53100  0.57198  0.76920  Biso   1.000  C
  H33      1.0000 0.57940  0.90730  0.33560  Biso   1.000  H
  H34      1.0000 0.42060  0.40730  0.16440  Biso   1.000  H
  H35      1.0000 0.42060  0.09270  0.66440  Biso   1.000  H
  H36      1.0000 0.57940  0.59270  0.83560  Biso   1.000  H
  C61      1.0000 0.46590  0.89200  0.17550  Biso   1.000  C
  C62      1.0000 0.53410  0.39200  0.32450  Biso   1.000  C
  C63      1.0000 0.53410  0.10800  0.82450  Biso   1.000  C
  C64      1.0000 0.46590  0.60800  0.67550  Biso   1.000  C
  C65      1.0000 0.18020  0.16710  0.39382  Biso   1.000  C
  C66      1.0000 0.81980  0.66710  0.10618  Biso   1.000  C
  C67      1.0000 0.81980  0.83290  0.60618  Biso   1.000  C
  C68      1.0000 0.18020  0.33290  0.89382  Biso   1.000  C
  H37      1.0000 0.13170  0.14680  0.32710  Biso   1.000  H
  H38      1.0000 0.86830  0.64680  0.17290  Biso   1.000  H
  H39      1.0000 0.86830  0.85320  0.67290  Biso   1.000  H
  H40      1.0000 0.13170  0.35320  0.82710  Biso   1.000  H
  C69      1.0000 0.83580  0.27575  0.60930  Biso   1.000  C
  C70      1.0000 0.16420  0.77575  0.89070  Biso   1.000  C
  C71      1.0000 0.16420  0.72425  0.39070  Biso   1.000  C
  C72      1.0000 0.83580  0.22425  0.10930  Biso   1.000  C
  H41      1.0000 0.87510  0.31090  0.65460  Biso   1.000  H
  H42      1.0000 0.12490  0.81090  0.84540  Biso   1.000  H
  H43      1.0000 0.12490  0.68910  0.34540  Biso   1.000  H
  H44      1.0000 0.87510  0.18910  0.15460  Biso   1.000  H
  C73      1.0000 0.86980  0.20043  0.46960  Biso   1.000  C
  C74      1.0000 0.13020  0.70043  0.03040  Biso   1.000  C
  C75      1.0000 0.13020  0.79957  0.53040  Biso   1.000  C
  C76      1.0000 0.86980  0.29957  0.96960  Biso   1.000  C
  H45      1.0000 0.77620  0.18970  0.44300  Biso   1.000  H
  H46      1.0000 0.22380  0.68970  0.05700  Biso   1.000  H
  H47      1.0000 0.22380  0.81030  0.55700  Biso   1.000  H
  H48      1.0000 0.77620  0.31030  0.94300  Biso   1.000  H
  C77      1.0000 0.17870  0.11217  0.80670  Biso   1.000  C
  C78      1.0000 0.82130  0.61217  0.69330  Biso   1.000  C
  C79      1.0000 0.82130  0.88783  0.19330  Biso   1.000  C
  C80      1.0000 0.17870  0.38783  0.30670  Biso   1.000  C
  H49      1.0000 0.13160  0.14050  0.74990  Biso   1.000  H
  H50      1.0000 0.86840  0.64050  0.75010  Biso   1.000  H
  H51      1.0000 0.86840  0.85950  0.25010  Biso   1.000  H
  H52      1.0000 0.13160  0.35950  0.24990  Biso   1.000  H
  C81      1.0000 0.24680  0.13587  0.91180  Biso   1.000  C
  C82      1.0000 0.75320  0.63587  0.58820  Biso   1.000  C
  C83      1.0000 0.75320  0.86413  0.08820  Biso   1.000  C
  C84      1.0000 0.24680  0.36413  0.41180  Biso   1.000  C
  H53      1.0000 0.24610  0.18030  0.92360  Biso   1.000  H
  H54      1.0000 0.75390  0.68030  0.57640  Biso   1.000  H
  H55      1.0000 0.75390  0.81970  0.07640  Biso   1.000  H
  H56      1.0000 0.24610  0.31970  0.42360  Biso   1.000  H
  C85      1.0000 0.46970  0.81895  0.17820  Biso   1.000  C
  C86      1.0000 0.53030  0.31895  0.32180  Biso   1.000  C
  C87      1.0000 0.53030  0.18105  0.82180  Biso   1.000  C
  C88      1.0000 0.46970  0.68105  0.67820  Biso   1.000  C
  H57      1.0000 0.52360  0.80450  0.25150  Biso   1.000  H
  H58      1.0000 0.47640  0.30450  0.24850  Biso   1.000  H
  H59      1.0000 0.47640  0.19550  0.74850  Biso   1.000  H
  H60      1.0000 0.52360  0.69550  0.75150  Biso   1.000  H
  H61      1.0000 0.51100  0.80340  0.12780  Biso   1.000  H
  H62      1.0000 0.48900  0.30340  0.37220  Biso   1.000  H
  H63      1.0000 0.48900  0.19660  0.87220  Biso   1.000  H
  H64      1.0000 0.51100  0.69660  0.62780  Biso   1.000  H
  H65      1.0000 0.37710  0.80240  0.15700  Biso   1.000  H
  H66      1.0000 0.62290  0.30240  0.34300  Biso   1.000  H
  H67      1.0000 0.62290  0.19760  0.84300  Biso   1.000  H
  H68      1.0000 0.37710  0.69760  0.65700  Biso   1.000  H
  C89      1.0000 0.11170  0.01907  0.67090  Biso   1.000  C
  C90      1.0000 0.88830  0.51907  0.82910  Biso   1.000  C
  C91      1.0000 0.88830  0.98093  0.32910  Biso   1.000  C
  C92      1.0000 0.11170  0.48093  0.17090  Biso   1.000  C
  H69      1.0000 0.07000  0.05360  0.62020  Biso   1.000  H
  H70      1.0000 0.93000  0.55360  0.87980  Biso   1.000  H
  H71      1.0000 0.93000  0.94640  0.37980  Biso   1.000  H
  H72      1.0000 0.07000  0.44640  0.12020  Biso   1.000  H
  H73      1.0000 0.04160  0.98850  0.67060  Biso   1.000  H
  H74      1.0000 0.95840  0.48850  0.82940  Biso   1.000  H
  H75      1.0000 0.95840  0.01150  0.32940  Biso   1.000  H
  H76      1.0000 0.04160  0.51150  0.17060  Biso   1.000  H
  H77      1.0000 0.17990  0.99760  0.64920  Biso   1.000  H
  H78      1.0000 0.82010  0.49760  0.85080  Biso   1.000  H
  H79      1.0000 0.82010  0.00240  0.35080  Biso   1.000  H
  H80      1.0000 0.17990  0.50240  0.14920  Biso   1.000  H
  C93      1.0000 0.61660  0.30411  0.63400  Biso   1.000  C
  C94      1.0000 0.38340  0.80411  0.86600  Biso   1.000  C
  C95      1.0000 0.38340  0.69589  0.36600  Biso   1.000  C
  C96      1.0000 0.61660  0.19589  0.13400  Biso   1.000  C
  O9       1.0000 0.49100  0.28603  0.61172  Biso   1.000  O
  O10      1.0000 0.50900  0.78603  0.88828  Biso   1.000  O
  O11      1.0000 0.50900  0.71397  0.38828  Biso   1.000  O
  O12      1.0000 0.49100  0.21397  0.11172  Biso   1.000  O
  O13      1.0000 0.65863  0.35686  0.67982  Biso   1.000  O
  O14      1.0000 0.34137  0.85686  0.82018  Biso   1.000  O
  O15      1.0000 0.34137  0.64314  0.32018  Biso   1.000  O
  O16      1.0000 0.65863  0.14314  0.17982  Biso   1.000  O
  O17      1.0000 0.66260  0.09892  0.57918  Biso   1.000  O
  O18      1.0000 0.33740  0.59892  0.92082  Biso   1.000  O
  O19      1.0000 0.33740  0.90108  0.42082  Biso   1.000  O
  O20      1.0000 0.66260  0.40108  0.07918  Biso   1.000  O
  H81      1.0000 0.61750  0.10850  0.51500  Biso   1.000  H
  H82      1.0000 0.38250  0.60850  0.98500  Biso   1.000  H
  H83      1.0000 0.38250  0.89150  0.48500  Biso   1.000  H
  H84      1.0000 0.61750  0.39150  0.01500  Biso   1.000  H
  C97      1.0000 0.83370  0.04718  0.78170  Biso   1.000  C
  C98      1.0000 0.16630  0.54718  0.71830  Biso   1.000  C
  C99      1.0000 0.16630  0.95282  0.21830  Biso   1.000  C
  C100     1.0000 0.83370  0.45282  0.28170  Biso   1.000  C
  H85      1.0000 0.82020  0.09180  0.77430  Biso   1.000  H
  H86      1.0000 0.17980  0.59180  0.72570  Biso   1.000  H
  H87      1.0000 0.17980  0.90820  0.22570  Biso   1.000  H
  H88      1.0000 0.82020  0.40820  0.27430  Biso   1.000  H
  C101     1.0000 0.02430  0.93289  0.02220  Biso   1.000  C
  C102     1.0000 0.97570  0.43289  0.47780  Biso   1.000  C
  C103     1.0000 0.97570  0.06711  0.97780  Biso   1.000  C
  C104     1.0000 0.02430  0.56711  0.52220  Biso   1.000  C
  H89      1.0000 0.03870  0.88870  0.03530  Biso   1.000  H
  H90      1.0000 0.96130  0.38870  0.46470  Biso   1.000  H
  H91      1.0000 0.96130  0.11130  0.96470  Biso   1.000  H
  H92      1.0000 0.03870  0.61130  0.53530  Biso   1.000  H
  C105     1.0000 0.91820  0.02220  0.89350  Biso   1.000  C
  C106     1.0000 0.08180  0.52220  0.60650  Biso   1.000  C
  C107     1.0000 0.08180  0.97780  0.10650  Biso   1.000  C
  C108     1.0000 0.91820  0.47780  0.39350  Biso   1.000  C
  C109     1.0000 0.94290  0.95651  0.91550  Biso   1.000  C
  C110     1.0000 0.05710  0.45651  0.58450  Biso   1.000  C
  C111     1.0000 0.05710  0.04349  0.08450  Biso   1.000  C
  C112     1.0000 0.94290  0.54349  0.41550  Biso   1.000  C
  H93      1.0000 0.90490  0.92690  0.85850  Biso   1.000  H
  H94      1.0000 0.09510  0.42690  0.64150  Biso   1.000  H
  H95      1.0000 0.09510  0.07310  0.14150  Biso   1.000  H
  H96      1.0000 0.90490  0.57310  0.35850  Biso   1.000  H
  C113     1.0000 0.77690  0.01201  0.69360  Biso   1.000  C
  C114     1.0000 0.22310  0.51201  0.80640  Biso   1.000  C
  C115     1.0000 0.22310  0.98799  0.30640  Biso   1.000  C
  C116     1.0000 0.77690  0.48799  0.19360  Biso   1.000  C
  H97      1.0000 0.78850  0.96730  0.70130  Biso   1.000  H
  H98      1.0000 0.21150  0.46730  0.79870  Biso   1.000  H
  H99      1.0000 0.21150  0.03270  0.29870  Biso   1.000  H
  H100     1.0000 0.78850  0.53270  0.20130  Biso   1.000  H
  C117     1.0000 0.69740  0.03660  0.58490  Biso   1.000  C
  C118     1.0000 0.30260  0.53660  0.91510  Biso   1.000  C
  C119     1.0000 0.30260  0.96340  0.41510  Biso   1.000  C
  C120     1.0000 0.69740  0.46340  0.08490  Biso   1.000  C
  O21      1.0000 0.66900  0.00376  0.50600  Biso   1.000  O
  O22      1.0000 0.33100  0.50376  0.99400  Biso   1.000  O
  O23      1.0000 0.33100  0.99624  0.49400  Biso   1.000  O
  O24      1.0000 0.66900  0.49624  0.00600  Biso   1.000  O
