data_image0
_cell_length_a       8.405
_cell_length_b       11.64
_cell_length_c       11.466
_cell_angle_alpha    90
_cell_angle_beta     111.23
_cell_angle_gamma    90

_symmetry_space_group_name_H-M    "P 1"
_symmetry_int_tables_number       1

loop_
  _symmetry_equiv_pos_as_xyz
  'x, y, z'

loop_
  _atom_site_label
  _atom_site_occupancy
  _atom_site_fract_x
  _atom_site_fract_y
  _atom_site_fract_z
  _atom_site_thermal_displace_type
  _atom_site_B_iso_or_equiv
  _atom_site_type_symbol
  Cu1      1.0000 0.52990  0.40570  0.41590  Biso   1.000  Cu
  Cu2      1.0000 0.97010  0.90570  0.58410  Biso   1.000  Cu
  Cu3      1.0000 0.47010  0.59430  0.58410  Biso   1.000  Cu
  Cu4      1.0000 0.02990  0.09430  0.41590  Biso   1.000  Cu
  N1       1.0000 0.46340  0.56970  0.41100  Biso   1.000  N
  N2       1.0000 0.03660  0.06970  0.58900  Biso   1.000  N
  N3       1.0000 0.53660  0.43030  0.58900  Biso   1.000  N
  N4       1.0000 0.96340  0.93030  0.41100  Biso   1.000  N
  N5       1.0000 0.38640  0.62610  0.32270  Biso   1.000  N
  N6       1.0000 0.11360  0.12610  0.67730  Biso   1.000  N
  N7       1.0000 0.61360  0.37390  0.67730  Biso   1.000  N
  N8       1.0000 0.88640  0.87390  0.32270  Biso   1.000  N
  N9       1.0000 0.31120  0.67880  0.23780  Biso   1.000  N
  N10      1.0000 0.18880  0.17880  0.76220  Biso   1.000  N
  N11      1.0000 0.68880  0.32120  0.76220  Biso   1.000  N
  N12      1.0000 0.81120  0.82120  0.23780  Biso   1.000  N
  N13      1.0000 0.63120  0.25400  0.46090  Biso   1.000  N
  N14      1.0000 0.86880  0.75400  0.53910  Biso   1.000  N
  N15      1.0000 0.36880  0.74600  0.53910  Biso   1.000  N
  N16      1.0000 0.13120  0.24600  0.46090  Biso   1.000  N
  N17      1.0000 0.69020  0.20270  0.39930  Biso   1.000  N
  N18      1.0000 0.80980  0.70270  0.60070  Biso   1.000  N
  N19      1.0000 0.30980  0.79730  0.60070  Biso   1.000  N
  N20      1.0000 0.19020  0.29730  0.39930  Biso   1.000  N
  N21      1.0000 0.74650  0.14730  0.34090  Biso   1.000  N
  N22      1.0000 0.75350  0.64730  0.65910  Biso   1.000  N
  N23      1.0000 0.25350  0.85270  0.65910  Biso   1.000  N
  N24      1.0000 0.24650  0.35270  0.34090  Biso   1.000  N
  N25      1.0000 0.56240  0.40380  0.25160  Biso   1.000  N
  N26      1.0000 0.93760  0.90380  0.74840  Biso   1.000  N
  N27      1.0000 0.43760  0.59620  0.74840  Biso   1.000  N
  N28      1.0000 0.06240  0.09620  0.25160  Biso   1.000  N
  C1       1.0000 0.70090  0.44910  0.23880  Biso   1.000  C
  C2       1.0000 0.79910  0.94910  0.76120  Biso   1.000  C
  C3       1.0000 0.29910  0.55090  0.76120  Biso   1.000  C
  C4       1.0000 0.20090  0.05090  0.23880  Biso   1.000  C
  C5       1.0000 0.73000  0.43530  0.12740  Biso   1.000  C
  C6       1.0000 0.77000  0.93530  0.87260  Biso   1.000  C
  C7       1.0000 0.27000  0.56470  0.87260  Biso   1.000  C
  C8       1.0000 0.23000  0.06470  0.12740  Biso   1.000  C
  C9       1.0000 0.61440  0.37630  0.03280  Biso   1.000  C
  C10      1.0000 0.88560  0.87630  0.96720  Biso   1.000  C
  C11      1.0000 0.38560  0.62370  0.96720  Biso   1.000  C
  C12      1.0000 0.11440  0.12370  0.03280  Biso   1.000  C
  C13      1.0000 0.47280  0.32940  0.04680  Biso   1.000  C
  C14      1.0000 0.02720  0.82940  0.95320  Biso   1.000  C
  C15      1.0000 0.52720  0.67060  0.95320  Biso   1.000  C
  C16      1.0000 0.97280  0.17060  0.04680  Biso   1.000  C
  C17      1.0000 0.44830  0.34680  0.15550  Biso   1.000  C
  C18      1.0000 0.05170  0.84680  0.84450  Biso   1.000  C
  C19      1.0000 0.55170  0.65320  0.84450  Biso   1.000  C
  C20      1.0000 0.94830  0.15320  0.15550  Biso   1.000  C
  C21      1.0000 0.82610  0.50840  0.35160  Biso   1.000  C
  C22      1.0000 0.67390  0.00840  0.64840  Biso   1.000  C
  C23      1.0000 0.17390  0.49160  0.64840  Biso   1.000  C
  C24      1.0000 0.32610  0.99160  0.35160  Biso   1.000  C
  C25      1.0000 0.88540  0.48880  0.11130  Biso   1.000  C
  C26      1.0000 0.61460  0.98880  0.88870  Biso   1.000  C
  C27      1.0000 0.11460  0.51120  0.88870  Biso   1.000  C
  C28      1.0000 0.38540  0.01120  0.11130  Biso   1.000  C
  H1       1.0000 0.63400  0.36550  0.94540  Biso   1.000  H
  H2       1.0000 0.86600  0.86550  0.05460  Biso   1.000  H
  H3       1.0000 0.36600  0.63450  0.05460  Biso   1.000  H
  H4       1.0000 0.13400  0.13450  0.94540  Biso   1.000  H
  H5       1.0000 0.38280  0.27970  0.97250  Biso   1.000  H
  H6       1.0000 0.11720  0.77970  0.02750  Biso   1.000  H
  H7       1.0000 0.61720  0.72030  0.02750  Biso   1.000  H
  H8       1.0000 0.88280  0.22030  0.97250  Biso   1.000  H
  H9       1.0000 0.33380  0.31400  0.16570  Biso   1.000  H
  H10      1.0000 0.16620  0.81400  0.83430  Biso   1.000  H
  H11      1.0000 0.66620  0.68600  0.83430  Biso   1.000  H
  H12      1.0000 0.83380  0.18600  0.16570  Biso   1.000  H
  H13      1.0000 0.93170  0.54020  0.32830  Biso   1.000  H
  H14      1.0000 0.56830  0.04020  0.67170  Biso   1.000  H
  H15      1.0000 0.06830  0.45980  0.67170  Biso   1.000  H
  H16      1.0000 0.43170  0.95980  0.32830  Biso   1.000  H
  H17      1.0000 0.76340  0.57940  0.37770  Biso   1.000  H
  H18      1.0000 0.73660  0.07940  0.62230  Biso   1.000  H
  H19      1.0000 0.23660  0.42060  0.62230  Biso   1.000  H
  H20      1.0000 0.26340  0.92060  0.37770  Biso   1.000  H
  H21      1.0000 0.87310  0.44890  0.42880  Biso   1.000  H
  H22      1.0000 0.62690  0.94890  0.57120  Biso   1.000  H
  H23      1.0000 0.12690  0.55110  0.57120  Biso   1.000  H
  H24      1.0000 0.37310  0.05110  0.42880  Biso   1.000  H
  H25      1.0000 0.96090  0.53210  0.19680  Biso   1.000  H
  H26      1.0000 0.53910  0.03210  0.80320  Biso   1.000  H
  H27      1.0000 0.03910  0.46790  0.80320  Biso   1.000  H
  H28      1.0000 0.46090  0.96790  0.19680  Biso   1.000  H
  H29      1.0000 0.96100  0.42240  0.09080  Biso   1.000  H
  H30      1.0000 0.53900  0.92240  0.90920  Biso   1.000  H
  H31      1.0000 0.03900  0.57760  0.90920  Biso   1.000  H
  H32      1.0000 0.46100  0.07760  0.09080  Biso   1.000  H
  H33      1.0000 0.84520  0.55000  0.03540  Biso   1.000  H
  H34      1.0000 0.65480  0.05000  0.96460  Biso   1.000  H
  H35      1.0000 0.15480  0.45000  0.96460  Biso   1.000  H
  H36      1.0000 0.34520  0.95000  0.03540  Biso   1.000  H
