data_image0
_cell_length_a       5.695
_cell_length_b       15.514
_cell_length_c       13.701
_cell_angle_alpha    90
_cell_angle_beta     98.08
_cell_angle_gamma    90

_symmetry_space_group_name_H-M    "P 1"
_symmetry_int_tables_number       1

loop_
  _symmetry_equiv_pos_as_xyz
  'x, y, z'

loop_
  _atom_site_label
  _atom_site_occupancy
  _atom_site_fract_x
  _atom_site_fract_y
  _atom_site_fract_z
  _atom_site_thermal_displace_type
  _atom_site_B_iso_or_equiv
  _atom_site_type_symbol
  Cu1      1.0000 0.25600  0.03570  0.03290  Biso   1.000  Cu
  Cu2      1.0000 0.74400  0.53570  0.46710  Biso   1.000  Cu
  Cu3      1.0000 0.74400  0.96430  0.96710  Biso   1.000  Cu
  Cu4      1.0000 0.25600  0.46430  0.53290  Biso   1.000  Cu
  N1       1.0000 0.54740  0.98130  0.10020  Biso   1.000  N
  N2       1.0000 0.45260  0.48130  0.39980  Biso   1.000  N
  N3       1.0000 0.45260  0.01870  0.89980  Biso   1.000  N
  N4       1.0000 0.54740  0.51870  0.60020  Biso   1.000  N
  N5       1.0000 0.62560  0.99540  0.18520  Biso   1.000  N
  N6       1.0000 0.37440  0.49540  0.31480  Biso   1.000  N
  N7       1.0000 0.37440  0.00460  0.81480  Biso   1.000  N
  N8       1.0000 0.62560  0.50460  0.68520  Biso   1.000  N
  N9       1.0000 0.70810  0.00500  0.26530  Biso   1.000  N
  N10      1.0000 0.29190  0.50500  0.23470  Biso   1.000  N
  N11      1.0000 0.29190  0.99500  0.73470  Biso   1.000  N
  N12      1.0000 0.70810  0.49500  0.76530  Biso   1.000  N
  N13      1.0000 0.94870  0.06870  0.95430  Biso   1.000  N
  N14      1.0000 0.05130  0.56870  0.54570  Biso   1.000  N
  N15      1.0000 0.05130  0.93130  0.04570  Biso   1.000  N
  N16      1.0000 0.94870  0.43130  0.45430  Biso   1.000  N
  N17      1.0000 0.92500  0.12340  0.89180  Biso   1.000  N
  N18      1.0000 0.07500  0.62340  0.60820  Biso   1.000  N
  N19      1.0000 0.07500  0.87660  0.10820  Biso   1.000  N
  N20      1.0000 0.92500  0.37660  0.39180  Biso   1.000  N
  N21      1.0000 0.90280  0.17580  0.83420  Biso   1.000  N
  N22      1.0000 0.09720  0.67580  0.66580  Biso   1.000  N
  N23      1.0000 0.09720  0.82420  0.16580  Biso   1.000  N
  N24      1.0000 0.90280  0.32420  0.33420  Biso   1.000  N
  N25      1.0000 0.34610  0.15650  0.07320  Biso   1.000  N
  N26      1.0000 0.65390  0.65650  0.42680  Biso   1.000  N
  N27      1.0000 0.65390  0.84350  0.92680  Biso   1.000  N
  N28      1.0000 0.34610  0.34350  0.57320  Biso   1.000  N
  C1       1.0000 0.28330  0.19100  0.15630  Biso   1.000  C
  C2       1.0000 0.71670  0.69100  0.34370  Biso   1.000  C
  C3       1.0000 0.71670  0.80900  0.84370  Biso   1.000  C
  C4       1.0000 0.28330  0.30900  0.65630  Biso   1.000  C
  C5       1.0000 0.34710  0.27380  0.18430  Biso   1.000  C
  C6       1.0000 0.65290  0.77380  0.31570  Biso   1.000  C
  C7       1.0000 0.65290  0.72620  0.81570  Biso   1.000  C
  C8       1.0000 0.34710  0.22620  0.68430  Biso   1.000  C
  C9       1.0000 0.47780  0.32170  0.12580  Biso   1.000  C
  C10      1.0000 0.52220  0.82170  0.37420  Biso   1.000  C
  C11      1.0000 0.52220  0.67830  0.87420  Biso   1.000  C
  C12      1.0000 0.47780  0.17830  0.62580  Biso   1.000  C
  C13      1.0000 0.53940  0.28940  0.03960  Biso   1.000  C
  C14      1.0000 0.46060  0.78940  0.46040  Biso   1.000  C
  C15      1.0000 0.46060  0.71060  0.96040  Biso   1.000  C
  C16      1.0000 0.53940  0.21060  0.53960  Biso   1.000  C
  C17      1.0000 0.47300  0.20480  0.01720  Biso   1.000  C
  C18      1.0000 0.52700  0.70480  0.48280  Biso   1.000  C
  C19      1.0000 0.52700  0.79520  0.98280  Biso   1.000  C
  C20      1.0000 0.47300  0.29520  0.51720  Biso   1.000  C
  C21      1.0000 0.13030  0.13550  0.21240  Biso   1.000  C
  C22      1.0000 0.86970  0.63550  0.28760  Biso   1.000  C
  C23      1.0000 0.86970  0.86450  0.78760  Biso   1.000  C
  C24      1.0000 0.13030  0.36450  0.71240  Biso   1.000  C
  C25      1.0000 0.66300  0.34250  0.96860  Biso   1.000  C
  C26      1.0000 0.33700  0.84250  0.53140  Biso   1.000  C
  C27      1.0000 0.33700  0.65750  0.03140  Biso   1.000  C
  C28      1.0000 0.66300  0.15750  0.46860  Biso   1.000  C
  C29      1.0000 0.85540  0.37910  0.00320  Biso   1.000  C
  C30      1.0000 0.14460  0.87910  0.49680  Biso   1.000  C
  C31      1.0000 0.14460  0.62090  0.99680  Biso   1.000  C
  C32      1.0000 0.85540  0.12090  0.50320  Biso   1.000  C
  H1       1.0000 0.29620  0.30110  0.25070  Biso   1.000  H
  H2       1.0000 0.70380  0.80110  0.24930  Biso   1.000  H
  H3       1.0000 0.70380  0.69890  0.74930  Biso   1.000  H
  H4       1.0000 0.29620  0.19890  0.75070  Biso   1.000  H
  H5       1.0000 0.52980  0.38660  0.14750  Biso   1.000  H
  H6       1.0000 0.47020  0.88660  0.35250  Biso   1.000  H
  H7       1.0000 0.47020  0.61340  0.85250  Biso   1.000  H
  H8       1.0000 0.52980  0.11340  0.64750  Biso   1.000  H
  H9       1.0000 0.52610  0.17600  0.95190  Biso   1.000  H
  H10      1.0000 0.47390  0.67600  0.54810  Biso   1.000  H
  H11      1.0000 0.47390  0.82400  0.04810  Biso   1.000  H
  H12      1.0000 0.52610  0.32400  0.45190  Biso   1.000  H
  H13      1.0000 0.09070  0.16990  0.27670  Biso   1.000  H
  H14      1.0000 0.90930  0.66990  0.22330  Biso   1.000  H
  H15      1.0000 0.90930  0.83010  0.72330  Biso   1.000  H
  H16      1.0000 0.09070  0.33010  0.77670  Biso   1.000  H
  H17      1.0000 0.22390  0.07670  0.23510  Biso   1.000  H
  H18      1.0000 0.77610  0.57670  0.26490  Biso   1.000  H
  H19      1.0000 0.77610  0.92330  0.76490  Biso   1.000  H
  H20      1.0000 0.22390  0.42330  0.73510  Biso   1.000  H
  H21      1.0000 0.96710  0.12010  0.16550  Biso   1.000  H
  H22      1.0000 0.03290  0.62010  0.33450  Biso   1.000  H
  H23      1.0000 0.03290  0.87990  0.83450  Biso   1.000  H
  H24      1.0000 0.96710  0.37990  0.66550  Biso   1.000  H
  H25      1.0000 0.54020  0.39210  0.93910  Biso   1.000  H
  H26      1.0000 0.45980  0.89210  0.56090  Biso   1.000  H
  H27      1.0000 0.45980  0.60790  0.06090  Biso   1.000  H
  H28      1.0000 0.54020  0.10790  0.43910  Biso   1.000  H
  H29      1.0000 0.69900  0.30030  0.90970  Biso   1.000  H
  H30      1.0000 0.30100  0.80030  0.59030  Biso   1.000  H
  H31      1.0000 0.30100  0.69970  0.09030  Biso   1.000  H
  H32      1.0000 0.69900  0.19970  0.40970  Biso   1.000  H
  H33      1.0000 0.91980  0.41440  0.94440  Biso   1.000  H
  H34      1.0000 0.08020  0.91440  0.55560  Biso   1.000  H
  H35      1.0000 0.08020  0.58560  0.05560  Biso   1.000  H
  H36      1.0000 0.91980  0.08560  0.44440  Biso   1.000  H
  H37      1.0000 0.98500  0.33140  0.03190  Biso   1.000  H
  H38      1.0000 0.01500  0.83140  0.46810  Biso   1.000  H
  H39      1.0000 0.01500  0.66860  0.96810  Biso   1.000  H
  H40      1.0000 0.98500  0.16860  0.53190  Biso   1.000  H
  H41      1.0000 0.82620  0.42320  0.06130  Biso   1.000  H
  H42      1.0000 0.17380  0.92320  0.43870  Biso   1.000  H
  H43      1.0000 0.17380  0.57680  0.93870  Biso   1.000  H
  H44      1.0000 0.82620  0.07680  0.56130  Biso   1.000  H
