data_image0
_cell_length_a       8.673
_cell_length_b       17.572
_cell_length_c       8.535
_cell_angle_alpha    90
_cell_angle_beta     97.34
_cell_angle_gamma    90

_symmetry_space_group_name_H-M    "P 1"
_symmetry_int_tables_number       1

loop_
  _symmetry_equiv_pos_as_xyz
  'x, y, z'

loop_
  _atom_site_label
  _atom_site_occupancy
  _atom_site_fract_x
  _atom_site_fract_y
  _atom_site_fract_z
  _atom_site_thermal_displace_type
  _atom_site_B_iso_or_equiv
  _atom_site_type_symbol
  Cu1      1.0000 0.00000  0.00000  0.00000  Biso   1.000  Cu
  Cu2      1.0000 0.00000  0.50000  0.50000  Biso   1.000  Cu
  Cl1      1.0000 0.28890  0.06150  0.11940  Biso   1.000  Cl
  Cl2      1.0000 0.71110  0.56150  0.38060  Biso   1.000  Cl
  Cl3      1.0000 0.71110  0.93850  0.88060  Biso   1.000  Cl
  Cl4      1.0000 0.28890  0.43850  0.61940  Biso   1.000  Cl
  N1       1.0000 0.73440  0.06720  0.13240  Biso   1.000  N
  N2       1.0000 0.26560  0.56720  0.36760  Biso   1.000  N
  N3       1.0000 0.26560  0.93280  0.86760  Biso   1.000  N
  N4       1.0000 0.73440  0.43280  0.63240  Biso   1.000  N
  N5       1.0000 0.88920  0.06660  0.14450  Biso   1.000  N
  N6       1.0000 0.11080  0.56660  0.35550  Biso   1.000  N
  N7       1.0000 0.11080  0.93340  0.85550  Biso   1.000  N
  N8       1.0000 0.88920  0.43340  0.64450  Biso   1.000  N
  C1       1.0000 0.93580  0.11010  0.26940  Biso   1.000  C
  C2       1.0000 0.06420  0.61010  0.23060  Biso   1.000  C
  C3       1.0000 0.06420  0.88990  0.73060  Biso   1.000  C
  C4       1.0000 0.93580  0.38990  0.76940  Biso   1.000  C
  C5       1.0000 0.81040  0.13810  0.33740  Biso   1.000  C
  C6       1.0000 0.18960  0.63810  0.16260  Biso   1.000  C
  C7       1.0000 0.18960  0.86190  0.66260  Biso   1.000  C
  C8       1.0000 0.81040  0.36190  0.83740  Biso   1.000  C
  C9       1.0000 0.68260  0.10920  0.24590  Biso   1.000  C
  C10      1.0000 0.31740  0.60920  0.25410  Biso   1.000  C
  C11      1.0000 0.31740  0.89080  0.75410  Biso   1.000  C
  C12      1.0000 0.68260  0.39080  0.74590  Biso   1.000  C
  N9       1.0000 0.06770  0.14390  0.84260  Biso   1.000  N
  N10      1.0000 0.93230  0.64390  0.65740  Biso   1.000  N
  N11      1.0000 0.93230  0.85610  0.15740  Biso   1.000  N
  N12      1.0000 0.06770  0.35610  0.34260  Biso   1.000  N
  N13      1.0000 0.98020  0.08100  0.83290  Biso   1.000  N
  N14      1.0000 0.01980  0.58100  0.66710  Biso   1.000  N
  N15      1.0000 0.01980  0.91900  0.16710  Biso   1.000  N
  N16      1.0000 0.98020  0.41900  0.33290  Biso   1.000  N
  C13      1.0000 0.88310  0.08810  0.70030  Biso   1.000  C
  C14      1.0000 0.11690  0.58810  0.79970  Biso   1.000  C
  C15      1.0000 0.11690  0.91190  0.29970  Biso   1.000  C
  C16      1.0000 0.88310  0.41190  0.20030  Biso   1.000  C
  C17      1.0000 0.90140  0.15790  0.62730  Biso   1.000  C
  C18      1.0000 0.09860  0.65790  0.87270  Biso   1.000  C
  C19      1.0000 0.09860  0.84210  0.37270  Biso   1.000  C
  C20      1.0000 0.90140  0.34210  0.12730  Biso   1.000  C
  C21      1.0000 0.01760  0.19280  0.72420  Biso   1.000  C
  C22      1.0000 0.98240  0.69280  0.77580  Biso   1.000  C
  C23      1.0000 0.98240  0.80720  0.27580  Biso   1.000  C
  C24      1.0000 0.01760  0.30720  0.22420  Biso   1.000  C
  C25      1.0000 0.81190  0.18900  0.47920  Biso   1.000  C
  C26      1.0000 0.18810  0.68900  0.02080  Biso   1.000  C
  C27      1.0000 0.18810  0.81100  0.52080  Biso   1.000  C
  C28      1.0000 0.81190  0.31100  0.97920  Biso   1.000  C
  H1       1.0000 0.66800  0.04100  0.05300  Biso   1.000  H
  H2       1.0000 0.33200  0.54100  0.44700  Biso   1.000  H
  H3       1.0000 0.33200  0.95900  0.94700  Biso   1.000  H
  H4       1.0000 0.66800  0.45900  0.55300  Biso   1.000  H
  H5       1.0000 0.04100  0.12000  0.30800  Biso   1.000  H
  H6       1.0000 0.95900  0.62000  0.19200  Biso   1.000  H
  H7       1.0000 0.95900  0.88000  0.69200  Biso   1.000  H
  H8       1.0000 0.04100  0.38000  0.80800  Biso   1.000  H
  H9       1.0000 0.57700  0.11700  0.26100  Biso   1.000  H
  H10      1.0000 0.42300  0.61700  0.23900  Biso   1.000  H
  H11      1.0000 0.42300  0.88300  0.73900  Biso   1.000  H
  H12      1.0000 0.57700  0.38300  0.76100  Biso   1.000  H
  H13      1.0000 0.14000  0.15700  0.93000  Biso   1.000  H
  H14      1.0000 0.86000  0.65700  0.57000  Biso   1.000  H
  H15      1.0000 0.86000  0.84300  0.07000  Biso   1.000  H
  H16      1.0000 0.14000  0.34300  0.43000  Biso   1.000  H
  H17      1.0000 0.81100  0.05000  0.65900  Biso   1.000  H
  H18      1.0000 0.18900  0.55000  0.84100  Biso   1.000  H
  H19      1.0000 0.18900  0.95000  0.34100  Biso   1.000  H
  H20      1.0000 0.81100  0.45000  0.15900  Biso   1.000  H
  H21      1.0000 0.05100  0.24300  0.70800  Biso   1.000  H
  H22      1.0000 0.94900  0.74300  0.79200  Biso   1.000  H
  H23      1.0000 0.94900  0.75700  0.29200  Biso   1.000  H
  H24      1.0000 0.05100  0.25700  0.20800  Biso   1.000  H
  H25      1.0000 0.85600  0.23600  0.45600  Biso   1.000  H
  H26      1.0000 0.14400  0.73600  0.04400  Biso   1.000  H
  H27      1.0000 0.14400  0.76400  0.54400  Biso   1.000  H
  H28      1.0000 0.85600  0.26400  0.95600  Biso   1.000  H
  H29      1.0000 0.70700  0.19600  0.49800  Biso   1.000  H
  H30      1.0000 0.29300  0.69600  0.00200  Biso   1.000  H
  H31      1.0000 0.29300  0.80400  0.50200  Biso   1.000  H
  H32      1.0000 0.70700  0.30400  0.99800  Biso   1.000  H
  O1       1.0000 0.26560  0.23070  0.46430  Biso   1.000  O
  O2       1.0000 0.73440  0.73070  0.03570  Biso   1.000  O
  O3       1.0000 0.73440  0.76930  0.53570  Biso   1.000  O
  O4       1.0000 0.26560  0.26930  0.96430  Biso   1.000  O
  N17      1.0000 0.40620  0.15650  0.64590  Biso   1.000  N
  N18      1.0000 0.59380  0.65650  0.85410  Biso   1.000  N
  N19      1.0000 0.59380  0.84350  0.35410  Biso   1.000  N
  N20      1.0000 0.40620  0.34350  0.14590  Biso   1.000  N
  C29      1.0000 0.35540  0.22200  0.58490  Biso   1.000  C
  C30      1.0000 0.64460  0.72200  0.91510  Biso   1.000  C
  C31      1.0000 0.64460  0.77800  0.41510  Biso   1.000  C
  C32      1.0000 0.35540  0.27800  0.08490  Biso   1.000  C
  C33      1.0000 0.50420  0.15210  0.79670  Biso   1.000  C
  C34      1.0000 0.49580  0.65210  0.70330  Biso   1.000  C
  C35      1.0000 0.49580  0.84790  0.20330  Biso   1.000  C
  C36      1.0000 0.50420  0.34790  0.29670  Biso   1.000  C
  C37      1.0000 0.35010  0.08670  0.57490  Biso   1.000  C
  C38      1.0000 0.64990  0.58670  0.92510  Biso   1.000  C
  C39      1.0000 0.64990  0.91330  0.42510  Biso   1.000  C
  C40      1.0000 0.35010  0.41330  0.07490  Biso   1.000  C
  H33      1.0000 0.39200  0.26600  0.64100  Biso   1.000  H
  H34      1.0000 0.60800  0.76600  0.85900  Biso   1.000  H
  H35      1.0000 0.60800  0.73400  0.35900  Biso   1.000  H
  H36      1.0000 0.39200  0.23400  0.14100  Biso   1.000  H
  H37      1.0000 0.58200  0.11200  0.79900  Biso   1.000  H
  H38      1.0000 0.41800  0.61200  0.70100  Biso   1.000  H
  H39      1.0000 0.41800  0.88800  0.20100  Biso   1.000  H
  H40      1.0000 0.58200  0.38800  0.29900  Biso   1.000  H
  H41      1.0000 0.55700  0.20100  0.81800  Biso   1.000  H
  H42      1.0000 0.44300  0.70100  0.68200  Biso   1.000  H
  H43      1.0000 0.44300  0.79900  0.18200  Biso   1.000  H
  H44      1.0000 0.55700  0.29900  0.31800  Biso   1.000  H
  H45      1.0000 0.44100  0.14500  0.88100  Biso   1.000  H
  H46      1.0000 0.55900  0.64500  0.61900  Biso   1.000  H
  H47      1.0000 0.55900  0.85500  0.11900  Biso   1.000  H
  H48      1.0000 0.44100  0.35500  0.38100  Biso   1.000  H
  H49      1.0000 0.33200  0.09300  0.45400  Biso   1.000  H
  H50      1.0000 0.66800  0.59300  0.04600  Biso   1.000  H
  H51      1.0000 0.66800  0.90700  0.54600  Biso   1.000  H
  H52      1.0000 0.33200  0.40700  0.95400  Biso   1.000  H
  H53      1.0000 0.42200  0.04500  0.60500  Biso   1.000  H
  H54      1.0000 0.57800  0.54500  0.89500  Biso   1.000  H
  H55      1.0000 0.57800  0.95500  0.39500  Biso   1.000  H
  H56      1.0000 0.42200  0.45500  0.10500  Biso   1.000  H
  H57      1.0000 0.25300  0.07200  0.61400  Biso   1.000  H
  H58      1.0000 0.74700  0.57200  0.88600  Biso   1.000  H
  H59      1.0000 0.74700  0.92800  0.38600  Biso   1.000  H
  H60      1.0000 0.25300  0.42800  0.11400  Biso   1.000  H
