data_image0
_cell_length_a       8.2413
_cell_length_b       9.3611
_cell_length_c       10.9645
_cell_angle_alpha    92.529
_cell_angle_beta     97.745
_cell_angle_gamma    102.845

_symmetry_space_group_name_H-M    "P 1"
_symmetry_int_tables_number       1

loop_
  _symmetry_equiv_pos_as_xyz
  'x, y, z'

loop_
  _atom_site_label
  _atom_site_occupancy
  _atom_site_fract_x
  _atom_site_fract_y
  _atom_site_fract_z
  _atom_site_thermal_displace_type
  _atom_site_B_iso_or_equiv
  _atom_site_type_symbol
  C1       1.0000 0.73870  0.57910  0.90530  Biso   1.000  C
  C2       1.0000 0.26130  0.42090  0.09470  Biso   1.000  C
  C3       1.0000 0.14700  0.77060  0.03850  Biso   1.000  C
  C4       1.0000 0.85300  0.22940  0.96150  Biso   1.000  C
  C5       1.0000 0.22400  0.63170  0.67910  Biso   1.000  C
  C6       1.0000 0.77600  0.36830  0.32090  Biso   1.000  C
  H1       1.0000 0.24190  0.71210  0.73620  Biso   1.000  H
  H2       1.0000 0.75810  0.28790  0.26380  Biso   1.000  H
  C7       1.0000 0.26790  0.53890  0.49530  Biso   1.000  C
  C8       1.0000 0.73210  0.46110  0.50470  Biso   1.000  C
  H3       1.0000 0.31470  0.55010  0.42270  Biso   1.000  H
  H4       1.0000 0.68530  0.44990  0.57730  Biso   1.000  H
  C9       1.0000 0.11030  0.39040  0.62600  Biso   1.000  C
  C10      1.0000 0.88970  0.60960  0.37400  Biso   1.000  C
  H5       1.0000 0.04750  0.29980  0.64270  Biso   1.000  H
  H6       1.0000 0.95250  0.70020  0.35730  Biso   1.000  H
  C11      1.0000 0.17640  0.40320  0.51690  Biso   1.000  C
  C12      1.0000 0.82360  0.59680  0.48310  Biso   1.000  C
  H7       1.0000 0.15970  0.32280  0.46000  Biso   1.000  H
  H8       1.0000 0.84030  0.67720  0.54000  Biso   1.000  H
  C13      1.0000 0.21840  0.02800  0.38570  Biso   1.000  C
  C14      1.0000 0.78160  0.97200  0.61430  Biso   1.000  C
  C15      1.0000 0.44210  0.12390  0.69440  Biso   1.000  C
  C16      1.0000 0.55790  0.87610  0.30560  Biso   1.000  C
  C17      1.0000 0.05120  0.04300  0.31910  Biso   1.000  C
  C18      1.0000 0.94880  0.95700  0.68090  Biso   1.000  C
  H9       1.0000 0.00140  0.95690  0.26440  Biso   1.000  H
  H10      1.0000 0.99860  0.04310  0.73560  Biso   1.000  H
  H11      1.0000 0.06800  0.12800  0.27230  Biso   1.000  H
  H12      1.0000 0.93200  0.87200  0.72770  Biso   1.000  H
  H13      1.0000 0.97790  0.05370  0.37820  Biso   1.000  H
  H14      1.0000 0.02210  0.94630  0.62180  Biso   1.000  H
  C19      1.0000 0.41090  0.20470  0.80880  Biso   1.000  C
  C20      1.0000 0.58910  0.79530  0.19120  Biso   1.000  C
  H15      1.0000 0.32850  0.26050  0.78590  Biso   1.000  H
  H16      1.0000 0.67150  0.73950  0.21410  Biso   1.000  H
  H17      1.0000 0.51400  0.26970  0.84720  Biso   1.000  H
  H18      1.0000 0.48600  0.73030  0.15280  Biso   1.000  H
  H19      1.0000 0.37040  0.13490  0.86560  Biso   1.000  H
  H20      1.0000 0.62960  0.86510  0.13440  Biso   1.000  H
  C21      1.0000 0.58760  0.63130  0.85150  Biso   1.000  C
  C22      1.0000 0.41240  0.36870  0.14850  Biso   1.000  C
  H21      1.0000 0.59740  0.73060  0.88320  Biso   1.000  H
  H22      1.0000 0.40260  0.26940  0.11680  Biso   1.000  H
  H23      1.0000 0.58020  0.62750  0.76320  Biso   1.000  H
  H24      1.0000 0.41980  0.37250  0.23680  Biso   1.000  H
  H25      1.0000 0.48810  0.56940  0.87350  Biso   1.000  H
  H26      1.0000 0.51190  0.43060  0.12650  Biso   1.000  H
  C23      1.0000 0.23030  0.93190  0.05240  Biso   1.000  C
  C24      1.0000 0.76970  0.06810  0.94760  Biso   1.000  C
  H27      1.0000 0.28270  0.95930  0.13630  Biso   1.000  H
  H28      1.0000 0.71730  0.04070  0.86370  Biso   1.000  H
  H29      1.0000 0.31400  0.95160  0.99850  Biso   1.000  H
  H30      1.0000 0.68600  0.04840  0.00150  Biso   1.000  H
  H31      1.0000 0.14740  0.98780  0.03110  Biso   1.000  H
  H32      1.0000 0.85260  0.01220  0.96890  Biso   1.000  H
  Cu1      1.0000 0.42640  0.87411  0.53593  Biso   1.000  Cu
  Cu2      1.0000 0.57360  0.12589  0.46407  Biso   1.000  Cu
  Cu3      1.0000 0.04544  0.49208  0.89075  Biso   1.000  Cu
  Cu4      1.0000 0.95456  0.50792  0.10925  Biso   1.000  Cu
  N1       1.0000 0.13460  0.50600  0.70830  Biso   1.000  N
  N2       1.0000 0.86540  0.49400  0.29170  Biso   1.000  N
  N3       1.0000 0.29100  0.65460  0.57590  Biso   1.000  N
  N4       1.0000 0.70900  0.34540  0.42410  Biso   1.000  N
  O1       1.0000 0.76040  0.56720  0.01950  Biso   1.000  O
  O2       1.0000 0.23960  0.43280  0.98050  Biso   1.000  O
  O3       1.0000 0.07560  0.71700  0.12520  Biso   1.000  O
  O4       1.0000 0.92440  0.28300  0.87480  Biso   1.000  O
  O5       1.0000 0.83560  0.55140  0.83260  Biso   1.000  O
  O6       1.0000 0.16440  0.44860  0.16740  Biso   1.000  O
  O7       1.0000 0.15380  0.70100  0.94000  Biso   1.000  O
  O8       1.0000 0.84620  0.29900  0.06000  Biso   1.000  O
  O9       1.0000 0.34610  0.12800  0.38030  Biso   1.000  O
  O10      1.0000 0.65390  0.87200  0.61970  Biso   1.000  O
  O11      1.0000 0.51480  0.20220  0.61860  Biso   1.000  O
  O12      1.0000 0.48520  0.79780  0.38140  Biso   1.000  O
  O13      1.0000 0.21840  0.91560  0.44310  Biso   1.000  O
  O14      1.0000 0.78160  0.08440  0.55690  Biso   1.000  O
  O15      1.0000 0.39260  0.98710  0.68240  Biso   1.000  O
  O16      1.0000 0.60740  0.01290  0.31760  Biso   1.000  O
