data_image0
_cell_length_a       23.579
_cell_length_b       14.0347
_cell_length_c       15.7613
_cell_angle_alpha    90
_cell_angle_beta     108.067
_cell_angle_gamma    90

_symmetry_space_group_name_H-M    "P 1"
_symmetry_int_tables_number       1

loop_
  _symmetry_equiv_pos_as_xyz
  'x, y, z'

loop_
  _atom_site_label
  _atom_site_occupancy
  _atom_site_fract_x
  _atom_site_fract_y
  _atom_site_fract_z
  _atom_site_thermal_displace_type
  _atom_site_B_iso_or_equiv
  _atom_site_type_symbol
  Cu1      1.0000 0.50000  0.30428  0.25000  Biso   1.000  Cu
  Cu2      1.0000 0.00000  0.80428  0.25000  Biso   1.000  Cu
  Cu3      1.0000 0.50000  0.69572  0.75000  Biso   1.000  Cu
  Cu4      1.0000 0.00000  0.19572  0.75000  Biso   1.000  Cu
  N1       1.0000 0.50000  0.14890  0.25000  Biso   1.000  N
  N2       1.0000 0.00000  0.64890  0.25000  Biso   1.000  N
  N3       1.0000 0.50000  0.85110  0.75000  Biso   1.000  N
  N4       1.0000 0.00000  0.35110  0.75000  Biso   1.000  N
  O1       1.0000 0.46566  0.31472  0.12001  Biso   1.000  O
  O2       1.0000 0.53434  0.31472  0.37999  Biso   1.000  O
  O3       1.0000 0.96566  0.81472  0.12001  Biso   1.000  O
  O4       1.0000 0.03434  0.81472  0.37999  Biso   1.000  O
  O5       1.0000 0.53434  0.68528  0.87999  Biso   1.000  O
  O6       1.0000 0.46566  0.68528  0.62001  Biso   1.000  O
  O7       1.0000 0.03434  0.18528  0.87999  Biso   1.000  O
  O8       1.0000 0.96566  0.18528  0.62001  Biso   1.000  O
  C1       1.0000 0.45580  0.39370  0.08060  Biso   1.000  C
  C2       1.0000 0.54420  0.39370  0.41940  Biso   1.000  C
  C3       1.0000 0.95580  0.89370  0.08060  Biso   1.000  C
  C4       1.0000 0.04420  0.89370  0.41940  Biso   1.000  C
  C5       1.0000 0.54420  0.60630  0.91940  Biso   1.000  C
  C6       1.0000 0.45580  0.60630  0.58060  Biso   1.000  C
  C7       1.0000 0.04420  0.10630  0.91940  Biso   1.000  C
  C8       1.0000 0.95580  0.10630  0.58060  Biso   1.000  C
  Cu5      1.0000 0.50000  0.49175  0.25000  Biso   1.000  Cu
  Cu6      1.0000 0.00000  0.99175  0.25000  Biso   1.000  Cu
  Cu7      1.0000 0.50000  0.50825  0.75000  Biso   1.000  Cu
  Cu8      1.0000 0.00000  0.00825  0.75000  Biso   1.000  Cu
  N5       1.0000 0.50000  0.64570  0.25000  Biso   1.000  N
  N6       1.0000 0.00000  0.14570  0.25000  Biso   1.000  N
  N7       1.0000 0.50000  0.35430  0.75000  Biso   1.000  N
  N8       1.0000 0.00000  0.85430  0.75000  Biso   1.000  N
  O9       1.0000 0.46422  0.47262  0.11909  Biso   1.000  O
  O10      1.0000 0.53578  0.47262  0.38091  Biso   1.000  O
  O11      1.0000 0.96422  0.97262  0.11909  Biso   1.000  O
  O12      1.0000 0.03578  0.97262  0.38091  Biso   1.000  O
  O13      1.0000 0.53578  0.52738  0.88091  Biso   1.000  O
  O14      1.0000 0.46422  0.52738  0.61909  Biso   1.000  O
  O15      1.0000 0.03578  0.02738  0.88091  Biso   1.000  O
  O16      1.0000 0.96422  0.02738  0.61909  Biso   1.000  O
  C9       1.0000 0.43276  0.39380  0.98040  Biso   1.000  C
  C10      1.0000 0.56724  0.39380  0.51960  Biso   1.000  C
  C11      1.0000 0.93276  0.89380  0.98040  Biso   1.000  C
  C12      1.0000 0.06724  0.89380  0.51960  Biso   1.000  C
  C13      1.0000 0.56724  0.60620  0.01960  Biso   1.000  C
  C14      1.0000 0.43276  0.60620  0.48040  Biso   1.000  C
  C15      1.0000 0.06724  0.10620  0.01960  Biso   1.000  C
  C16      1.0000 0.93276  0.10620  0.48040  Biso   1.000  C
  H1       1.0000 0.42830  0.32940  0.95900  Biso   1.000  H
  H2       1.0000 0.57170  0.32940  0.54100  Biso   1.000  H
  H3       1.0000 0.92830  0.82940  0.95900  Biso   1.000  H
  H4       1.0000 0.07170  0.82940  0.54100  Biso   1.000  H
  H5       1.0000 0.57170  0.67060  0.04100  Biso   1.000  H
  H6       1.0000 0.42830  0.67060  0.45900  Biso   1.000  H
  H7       1.0000 0.07170  0.17060  0.04100  Biso   1.000  H
  H8       1.0000 0.92830  0.17060  0.45900  Biso   1.000  H
  H9       1.0000 0.46050  0.42670  0.95730  Biso   1.000  H
  H10      1.0000 0.53950  0.42670  0.54270  Biso   1.000  H
  H11      1.0000 0.96050  0.92670  0.95730  Biso   1.000  H
  H12      1.0000 0.03950  0.92670  0.54270  Biso   1.000  H
  H13      1.0000 0.53950  0.57330  0.04270  Biso   1.000  H
  H14      1.0000 0.46050  0.57330  0.45730  Biso   1.000  H
  H15      1.0000 0.03950  0.07330  0.04270  Biso   1.000  H
  H16      1.0000 0.96050  0.07330  0.45730  Biso   1.000  H
  H17      1.0000 0.39480  0.42550  0.96100  Biso   1.000  H
  H18      1.0000 0.60520  0.42550  0.53900  Biso   1.000  H
  H19      1.0000 0.89480  0.92550  0.96100  Biso   1.000  H
  H20      1.0000 0.10520  0.92550  0.53900  Biso   1.000  H
  H21      1.0000 0.60520  0.57450  0.03900  Biso   1.000  H
  H22      1.0000 0.39480  0.57450  0.46100  Biso   1.000  H
  H23      1.0000 0.10520  0.07450  0.03900  Biso   1.000  H
  H24      1.0000 0.89480  0.07450  0.46100  Biso   1.000  H
  C17      1.0000 0.39704  0.40330  0.26940  Biso   1.000  C
  C18      1.0000 0.60296  0.40330  0.23060  Biso   1.000  C
  C19      1.0000 0.89704  0.90330  0.26940  Biso   1.000  C
  C20      1.0000 0.10296  0.90330  0.23060  Biso   1.000  C
  C21      1.0000 0.60296  0.59670  0.73060  Biso   1.000  C
  C22      1.0000 0.39704  0.59670  0.76940  Biso   1.000  C
  C23      1.0000 0.10296  0.09670  0.73060  Biso   1.000  C
  C24      1.0000 0.89704  0.09670  0.76940  Biso   1.000  C
  O17      1.0000 0.42092  0.48184  0.26433  Biso   1.000  O
  O18      1.0000 0.57908  0.48184  0.23567  Biso   1.000  O
  O19      1.0000 0.92092  0.98184  0.26433  Biso   1.000  O
  O20      1.0000 0.07908  0.98184  0.23567  Biso   1.000  O
  O21      1.0000 0.57908  0.51816  0.73567  Biso   1.000  O
  O22      1.0000 0.42092  0.51816  0.76433  Biso   1.000  O
  O23      1.0000 0.07908  0.01816  0.73567  Biso   1.000  O
  O24      1.0000 0.92092  0.01816  0.76433  Biso   1.000  O
  O25      1.0000 0.41887  0.32429  0.26168  Biso   1.000  O
  O26      1.0000 0.58113  0.32429  0.23832  Biso   1.000  O
  O27      1.0000 0.91887  0.82429  0.26168  Biso   1.000  O
  O28      1.0000 0.08113  0.82429  0.23832  Biso   1.000  O
  O29      1.0000 0.58113  0.67571  0.73832  Biso   1.000  O
  O30      1.0000 0.41887  0.67571  0.76168  Biso   1.000  O
  O31      1.0000 0.08113  0.17571  0.73832  Biso   1.000  O
  O32      1.0000 0.91887  0.17571  0.76168  Biso   1.000  O
  C25      1.0000 0.33747  0.40500  0.28550  Biso   1.000  C
  C26      1.0000 0.66253  0.40500  0.21450  Biso   1.000  C
  C27      1.0000 0.83747  0.90500  0.28550  Biso   1.000  C
  C28      1.0000 0.16253  0.90500  0.21450  Biso   1.000  C
  C29      1.0000 0.66253  0.59500  0.71450  Biso   1.000  C
  C30      1.0000 0.33747  0.59500  0.78550  Biso   1.000  C
  C31      1.0000 0.16253  0.09500  0.71450  Biso   1.000  C
  C32      1.0000 0.83747  0.09500  0.78550  Biso   1.000  C
  H25      1.0000 0.32400  0.34090  0.28850  Biso   1.000  H
  H26      1.0000 0.67600  0.34090  0.21150  Biso   1.000  H
  H27      1.0000 0.82400  0.84090  0.28850  Biso   1.000  H
  H28      1.0000 0.17600  0.84090  0.21150  Biso   1.000  H
  H29      1.0000 0.67600  0.65910  0.71150  Biso   1.000  H
  H30      1.0000 0.32400  0.65910  0.78850  Biso   1.000  H
  H31      1.0000 0.17600  0.15910  0.71150  Biso   1.000  H
  H32      1.0000 0.82400  0.15910  0.78850  Biso   1.000  H
  H33      1.0000 0.30910  0.43820  0.23750  Biso   1.000  H
  H34      1.0000 0.69090  0.43820  0.26250  Biso   1.000  H
  H35      1.0000 0.80910  0.93820  0.23750  Biso   1.000  H
  H36      1.0000 0.19090  0.93820  0.26250  Biso   1.000  H
  H37      1.0000 0.69090  0.56180  0.76250  Biso   1.000  H
  H38      1.0000 0.30910  0.56180  0.73750  Biso   1.000  H
  H39      1.0000 0.19090  0.06180  0.76250  Biso   1.000  H
  H40      1.0000 0.80910  0.06180  0.73750  Biso   1.000  H
  H41      1.0000 0.34120  0.43710  0.34080  Biso   1.000  H
  H42      1.0000 0.65880  0.43710  0.15920  Biso   1.000  H
  H43      1.0000 0.84120  0.93710  0.34080  Biso   1.000  H
  H44      1.0000 0.15880  0.93710  0.15920  Biso   1.000  H
  H45      1.0000 0.65880  0.56290  0.65920  Biso   1.000  H
  H46      1.0000 0.34120  0.56290  0.84080  Biso   1.000  H
  H47      1.0000 0.15880  0.06290  0.65920  Biso   1.000  H
  H48      1.0000 0.84120  0.06290  0.84080  Biso   1.000  H
  C33      1.0000 0.46703  0.10030  0.18040  Biso   1.000  C
  C34      1.0000 0.53297  0.10030  0.31960  Biso   1.000  C
  C35      1.0000 0.96703  0.60030  0.18040  Biso   1.000  C
  C36      1.0000 0.03297  0.60030  0.31960  Biso   1.000  C
  C37      1.0000 0.53297  0.89970  0.81960  Biso   1.000  C
  C38      1.0000 0.46703  0.89970  0.68040  Biso   1.000  C
  C39      1.0000 0.03297  0.39970  0.81960  Biso   1.000  C
  C40      1.0000 0.96703  0.39970  0.68040  Biso   1.000  C
  H49      1.0000 0.44420  0.13370  0.13050  Biso   1.000  H
  H50      1.0000 0.55580  0.13370  0.36950  Biso   1.000  H
  H51      1.0000 0.94420  0.63370  0.13050  Biso   1.000  H
  H52      1.0000 0.05580  0.63370  0.36950  Biso   1.000  H
  H53      1.0000 0.55580  0.86630  0.86950  Biso   1.000  H
  H54      1.0000 0.44420  0.86630  0.63050  Biso   1.000  H
  H55      1.0000 0.05580  0.36630  0.86950  Biso   1.000  H
  H56      1.0000 0.94420  0.36630  0.63050  Biso   1.000  H
  C41      1.0000 0.46498  0.00120  0.17840  Biso   1.000  C
  C42      1.0000 0.53502  0.00120  0.32160  Biso   1.000  C
  C43      1.0000 0.96498  0.50120  0.17840  Biso   1.000  C
  C44      1.0000 0.03502  0.50120  0.32160  Biso   1.000  C
  C45      1.0000 0.53502  0.99880  0.82160  Biso   1.000  C
  C46      1.0000 0.46498  0.99880  0.67840  Biso   1.000  C
  C47      1.0000 0.03502  0.49880  0.82160  Biso   1.000  C
  C48      1.0000 0.96498  0.49880  0.67840  Biso   1.000  C
  H57      1.0000 0.44010  0.96960  0.12890  Biso   1.000  H
  H58      1.0000 0.55990  0.96960  0.37110  Biso   1.000  H
  H59      1.0000 0.94010  0.46960  0.12890  Biso   1.000  H
  H60      1.0000 0.05990  0.46960  0.37110  Biso   1.000  H
  H61      1.0000 0.55990  0.03040  0.87110  Biso   1.000  H
  H62      1.0000 0.44010  0.03040  0.62890  Biso   1.000  H
  H63      1.0000 0.05990  0.53040  0.87110  Biso   1.000  H
  H64      1.0000 0.94010  0.53040  0.62890  Biso   1.000  H
  C49      1.0000 0.50000  0.95020  0.25000  Biso   1.000  C
  C50      1.0000 0.00000  0.45020  0.25000  Biso   1.000  C
  C51      1.0000 0.50000  0.04980  0.75000  Biso   1.000  C
  C52      1.0000 0.00000  0.54980  0.75000  Biso   1.000  C
  C53      1.0000 0.45006  0.69520  0.23770  Biso   1.000  C
  C54      1.0000 0.54994  0.69520  0.26230  Biso   1.000  C
  C55      1.0000 0.95006  0.19520  0.23770  Biso   1.000  C
  C56      1.0000 0.04994  0.19520  0.26230  Biso   1.000  C
  C57      1.0000 0.54994  0.30480  0.76230  Biso   1.000  C
  C58      1.0000 0.45006  0.30480  0.73770  Biso   1.000  C
  C59      1.0000 0.04994  0.80480  0.76230  Biso   1.000  C
  C60      1.0000 0.95006  0.80480  0.73770  Biso   1.000  C
  H65      1.0000 0.41470  0.66190  0.22920  Biso   1.000  H
  H66      1.0000 0.58530  0.66190  0.27080  Biso   1.000  H
  H67      1.0000 0.91470  0.16190  0.22920  Biso   1.000  H
  H68      1.0000 0.08530  0.16190  0.27080  Biso   1.000  H
  H69      1.0000 0.58530  0.33810  0.77080  Biso   1.000  H
  H70      1.0000 0.41470  0.33810  0.72920  Biso   1.000  H
  H71      1.0000 0.08530  0.83810  0.77080  Biso   1.000  H
  H72      1.0000 0.91470  0.83810  0.72920  Biso   1.000  H
  C61      1.0000 0.44795  0.79300  0.23670  Biso   1.000  C
  C62      1.0000 0.55205  0.79300  0.26330  Biso   1.000  C
  C63      1.0000 0.94795  0.29300  0.23670  Biso   1.000  C
  C64      1.0000 0.05205  0.29300  0.26330  Biso   1.000  C
  C65      1.0000 0.55205  0.20700  0.76330  Biso   1.000  C
  C66      1.0000 0.44795  0.20700  0.73670  Biso   1.000  C
  C67      1.0000 0.05205  0.70700  0.76330  Biso   1.000  C
  C68      1.0000 0.94795  0.70700  0.73670  Biso   1.000  C
  H73      1.0000 0.41180  0.82450  0.22730  Biso   1.000  H
  H74      1.0000 0.58820  0.82450  0.27270  Biso   1.000  H
  H75      1.0000 0.91180  0.32450  0.22730  Biso   1.000  H
  H76      1.0000 0.08820  0.32450  0.27270  Biso   1.000  H
  H77      1.0000 0.58820  0.17550  0.77270  Biso   1.000  H
  H78      1.0000 0.41180  0.17550  0.72730  Biso   1.000  H
  H79      1.0000 0.08820  0.67550  0.77270  Biso   1.000  H
  H80      1.0000 0.91180  0.67550  0.72730  Biso   1.000  H
  C69      1.0000 0.50000  0.84410  0.25000  Biso   1.000  C
  C70      1.0000 0.00000  0.34410  0.25000  Biso   1.000  C
  C71      1.0000 0.50000  0.15590  0.75000  Biso   1.000  C
  C72      1.0000 0.00000  0.65590  0.75000  Biso   1.000  C
  Cl1      1.0000 0.37698  0.13122  0.31938  Biso   1.000  Cl
  Cl2      1.0000 0.62302  0.13122  0.18062  Biso   1.000  Cl
  Cl3      1.0000 0.87698  0.63122  0.31938  Biso   1.000  Cl
  Cl4      1.0000 0.12302  0.63122  0.18062  Biso   1.000  Cl
  Cl5      1.0000 0.62302  0.86878  0.68062  Biso   1.000  Cl
  Cl6      1.0000 0.37698  0.86878  0.81938  Biso   1.000  Cl
  Cl7      1.0000 0.12302  0.36878  0.68062  Biso   1.000  Cl
  Cl8      1.0000 0.87698  0.36878  0.81938  Biso   1.000  Cl
  Cl9      1.0000 0.31777  0.95117  0.28922  Biso   1.000  Cl
  Cl10     1.0000 0.68223  0.95117  0.21078  Biso   1.000  Cl
  Cl11     1.0000 0.81777  0.45117  0.28922  Biso   1.000  Cl
  Cl12     1.0000 0.18223  0.45117  0.21078  Biso   1.000  Cl
  Cl13     1.0000 0.68223  0.04883  0.71078  Biso   1.000  Cl
  Cl14     1.0000 0.31777  0.04883  0.78922  Biso   1.000  Cl
  Cl15     1.0000 0.18223  0.54883  0.71078  Biso   1.000  Cl
  Cl16     1.0000 0.81777  0.54883  0.78922  Biso   1.000  Cl
  Cl17     1.0000 0.42125  0.97536  0.44062  Biso   1.000  Cl
  Cl18     1.0000 0.57875  0.97536  0.05938  Biso   1.000  Cl
  Cl19     1.0000 0.92125  0.47536  0.44062  Biso   1.000  Cl
  Cl20     1.0000 0.07875  0.47536  0.05938  Biso   1.000  Cl
  Cl21     1.0000 0.57875  0.02464  0.55938  Biso   1.000  Cl
  Cl22     1.0000 0.42125  0.02464  0.94062  Biso   1.000  Cl
  Cl23     1.0000 0.07875  0.52464  0.55938  Biso   1.000  Cl
  Cl24     1.0000 0.92125  0.52464  0.94062  Biso   1.000  Cl
  C73      1.0000 0.35771  0.03010  0.37150  Biso   1.000  C
  C74      1.0000 0.64229  0.03010  0.12850  Biso   1.000  C
  C75      1.0000 0.85771  0.53010  0.37150  Biso   1.000  C
  C76      1.0000 0.14229  0.53010  0.12850  Biso   1.000  C
  C77      1.0000 0.64229  0.96990  0.62850  Biso   1.000  C
  C78      1.0000 0.35771  0.96990  0.87150  Biso   1.000  C
  C79      1.0000 0.14229  0.46990  0.62850  Biso   1.000  C
  C80      1.0000 0.85771  0.46990  0.87150  Biso   1.000  C
  H81      1.0000 0.33250  0.05010  0.40730  Biso   1.000  H
  H82      1.0000 0.66750  0.05010  0.09270  Biso   1.000  H
  H83      1.0000 0.83250  0.55010  0.40730  Biso   1.000  H
  H84      1.0000 0.16750  0.55010  0.09270  Biso   1.000  H
  H85      1.0000 0.66750  0.94990  0.59270  Biso   1.000  H
  H86      1.0000 0.33250  0.94990  0.90730  Biso   1.000  H
  H87      1.0000 0.16750  0.44990  0.59270  Biso   1.000  H
  H88      1.0000 0.83250  0.44990  0.90730  Biso   1.000  H
  Cu9      1.0000 0.25803  0.84160  0.01744  Biso   1.000  Cu
  Cu10     1.0000 0.74197  0.84160  0.48256  Biso   1.000  Cu
  Cu11     1.0000 0.75803  0.34160  0.01744  Biso   1.000  Cu
  Cu12     1.0000 0.24197  0.34160  0.48256  Biso   1.000  Cu
  Cu13     1.0000 0.74197  0.15840  0.98256  Biso   1.000  Cu
  Cu14     1.0000 0.25803  0.15840  0.51744  Biso   1.000  Cu
  Cu15     1.0000 0.24197  0.65840  0.98256  Biso   1.000  Cu
  Cu16     1.0000 0.75803  0.65840  0.51744  Biso   1.000  Cu
  N9       1.0000 0.25622  0.99835  0.02220  Biso   1.000  N
  N10      1.0000 0.74378  0.99835  0.47780  Biso   1.000  N
  N11      1.0000 0.75622  0.49835  0.02220  Biso   1.000  N
  N12      1.0000 0.24378  0.49835  0.47780  Biso   1.000  N
  N13      1.0000 0.74378  0.00165  0.97780  Biso   1.000  N
  N14      1.0000 0.25622  0.00165  0.52220  Biso   1.000  N
  N15      1.0000 0.24378  0.50165  0.97780  Biso   1.000  N
  N16      1.0000 0.75622  0.50165  0.52220  Biso   1.000  N
  O33      1.0000 0.34251  0.82304  0.02404  Biso   1.000  O
  O34      1.0000 0.65749  0.82304  0.47596  Biso   1.000  O
  O35      1.0000 0.84251  0.32304  0.02404  Biso   1.000  O
  O36      1.0000 0.15749  0.32304  0.47596  Biso   1.000  O
  O37      1.0000 0.65749  0.17696  0.97596  Biso   1.000  O
  O38      1.0000 0.34251  0.17696  0.52404  Biso   1.000  O
  O39      1.0000 0.15749  0.67696  0.97596  Biso   1.000  O
  O40      1.0000 0.84251  0.67696  0.52404  Biso   1.000  O
  O41      1.0000 0.17249  0.83202  0.00512  Biso   1.000  O
  O42      1.0000 0.82751  0.83202  0.49488  Biso   1.000  O
  O43      1.0000 0.67249  0.33202  0.00512  Biso   1.000  O
  O44      1.0000 0.32751  0.33202  0.49488  Biso   1.000  O
  O45      1.0000 0.82751  0.16798  0.99488  Biso   1.000  O
  O46      1.0000 0.17249  0.16798  0.50512  Biso   1.000  O
  O47      1.0000 0.32751  0.66798  0.99488  Biso   1.000  O
  O48      1.0000 0.67249  0.66798  0.50512  Biso   1.000  O
  O49      1.0000 0.27836  0.80385  0.14337  Biso   1.000  O
  O50      1.0000 0.72164  0.80385  0.35663  Biso   1.000  O
  O51      1.0000 0.77836  0.30385  0.14337  Biso   1.000  O
  O52      1.0000 0.22164  0.30385  0.35663  Biso   1.000  O
  O53      1.0000 0.72164  0.19615  0.85663  Biso   1.000  O
  O54      1.0000 0.27836  0.19615  0.64337  Biso   1.000  O
  O55      1.0000 0.22164  0.69615  0.85663  Biso   1.000  O
  O56      1.0000 0.77836  0.69615  0.64337  Biso   1.000  O
  O57      1.0000 0.23770  0.85121  0.88564  Biso   1.000  O
  O58      1.0000 0.76230  0.85121  0.61436  Biso   1.000  O
  O59      1.0000 0.73770  0.35121  0.88564  Biso   1.000  O
  O60      1.0000 0.26230  0.35121  0.61436  Biso   1.000  O
  O61      1.0000 0.76230  0.14879  0.11436  Biso   1.000  O
  O62      1.0000 0.23770  0.14879  0.38564  Biso   1.000  O
  O63      1.0000 0.26230  0.64879  0.11436  Biso   1.000  O
  O64      1.0000 0.73770  0.64879  0.38564  Biso   1.000  O
  C81      1.0000 0.35970  0.74050  0.01040  Biso   1.000  C
  C82      1.0000 0.64030  0.74050  0.48960  Biso   1.000  C
  C83      1.0000 0.85970  0.24050  0.01040  Biso   1.000  C
  C84      1.0000 0.14030  0.24050  0.48960  Biso   1.000  C
  C85      1.0000 0.64030  0.25950  0.98960  Biso   1.000  C
  C86      1.0000 0.35970  0.25950  0.51040  Biso   1.000  C
  C87      1.0000 0.14030  0.75950  0.98960  Biso   1.000  C
  C88      1.0000 0.85970  0.75950  0.51040  Biso   1.000  C
  C89      1.0000 0.42338  0.72780  0.01290  Biso   1.000  C
  C90      1.0000 0.57662  0.72780  0.48710  Biso   1.000  C
  C91      1.0000 0.92338  0.22780  0.01290  Biso   1.000  C
  C92      1.0000 0.07662  0.22780  0.48710  Biso   1.000  C
  C93      1.0000 0.57662  0.27220  0.98710  Biso   1.000  C
  C94      1.0000 0.42338  0.27220  0.51290  Biso   1.000  C
  C95      1.0000 0.07662  0.77220  0.98710  Biso   1.000  C
  C96      1.0000 0.92338  0.77220  0.51290  Biso   1.000  C
  H89      1.0000 0.43010  0.66230  0.00130  Biso   1.000  H
  H90      1.0000 0.56990  0.66230  0.49870  Biso   1.000  H
  H91      1.0000 0.93010  0.16230  0.00130  Biso   1.000  H
  H92      1.0000 0.06990  0.16230  0.49870  Biso   1.000  H
  H93      1.0000 0.56990  0.33770  0.99870  Biso   1.000  H
  H94      1.0000 0.43010  0.33770  0.50130  Biso   1.000  H
  H95      1.0000 0.06990  0.83770  0.99870  Biso   1.000  H
  H96      1.0000 0.93010  0.83770  0.50130  Biso   1.000  H
  H97      1.0000 0.43140  0.76740  0.96830  Biso   1.000  H
  H98      1.0000 0.56860  0.76740  0.53170  Biso   1.000  H
  H99      1.0000 0.93140  0.26740  0.96830  Biso   1.000  H
  H100     1.0000 0.06860  0.26740  0.53170  Biso   1.000  H
  H101     1.0000 0.56860  0.23260  0.03170  Biso   1.000  H
  H102     1.0000 0.43140  0.23260  0.46830  Biso   1.000  H
  H103     1.0000 0.06860  0.73260  0.03170  Biso   1.000  H
  H104     1.0000 0.93140  0.73260  0.46830  Biso   1.000  H
  H105     1.0000 0.44940  0.74540  0.07070  Biso   1.000  H
  H106     1.0000 0.55060  0.74540  0.42930  Biso   1.000  H
  H107     1.0000 0.94940  0.24540  0.07070  Biso   1.000  H
  H108     1.0000 0.05060  0.24540  0.42930  Biso   1.000  H
  H109     1.0000 0.55060  0.25460  0.92930  Biso   1.000  H
  H110     1.0000 0.44940  0.25460  0.57070  Biso   1.000  H
  H111     1.0000 0.05060  0.75460  0.92930  Biso   1.000  H
  H112     1.0000 0.94940  0.75460  0.57070  Biso   1.000  H
  C97      1.0000 0.27622  0.71840  0.16720  Biso   1.000  C
  C98      1.0000 0.72378  0.71840  0.33280  Biso   1.000  C
  C99      1.0000 0.77622  0.21840  0.16720  Biso   1.000  C
  C100     1.0000 0.22378  0.21840  0.33280  Biso   1.000  C
  C101     1.0000 0.72378  0.28160  0.83280  Biso   1.000  C
  C102     1.0000 0.27622  0.28160  0.66720  Biso   1.000  C
  C103     1.0000 0.22378  0.78160  0.83280  Biso   1.000  C
  C104     1.0000 0.77622  0.78160  0.66720  Biso   1.000  C
  C105     1.0000 0.29140  0.69710  0.26500  Biso   1.000  C
  C106     1.0000 0.70860  0.69710  0.23500  Biso   1.000  C
  C107     1.0000 0.79140  0.19710  0.26500  Biso   1.000  C
  C108     1.0000 0.20860  0.19710  0.23500  Biso   1.000  C
  C109     1.0000 0.70860  0.30290  0.73500  Biso   1.000  C
  C110     1.0000 0.29140  0.30290  0.76500  Biso   1.000  C
  C111     1.0000 0.20860  0.80290  0.73500  Biso   1.000  C
  C112     1.0000 0.79140  0.80290  0.76500  Biso   1.000  C
  H113     1.0000 0.30070  0.75540  0.29830  Biso   1.000  H
  H114     1.0000 0.69930  0.75540  0.20170  Biso   1.000  H
  H115     1.0000 0.80070  0.25540  0.29830  Biso   1.000  H
  H116     1.0000 0.19930  0.25540  0.20170  Biso   1.000  H
  H117     1.0000 0.69930  0.24460  0.70170  Biso   1.000  H
  H118     1.0000 0.30070  0.24460  0.79830  Biso   1.000  H
  H119     1.0000 0.19930  0.74460  0.70170  Biso   1.000  H
  H120     1.0000 0.80070  0.74460  0.79830  Biso   1.000  H
  H121     1.0000 0.32520  0.65530  0.28270  Biso   1.000  H
  H122     1.0000 0.67480  0.65530  0.21730  Biso   1.000  H
  H123     1.0000 0.82520  0.15530  0.28270  Biso   1.000  H
  H124     1.0000 0.17480  0.15530  0.21730  Biso   1.000  H
  H125     1.0000 0.67480  0.34470  0.71730  Biso   1.000  H
  H126     1.0000 0.32520  0.34470  0.78270  Biso   1.000  H
  H127     1.0000 0.17480  0.84470  0.71730  Biso   1.000  H
  H128     1.0000 0.82520  0.84470  0.78270  Biso   1.000  H
  H129     1.0000 0.25790  0.66710  0.27650  Biso   1.000  H
  H130     1.0000 0.74210  0.66710  0.22350  Biso   1.000  H
  H131     1.0000 0.75790  0.16710  0.27650  Biso   1.000  H
  H132     1.0000 0.24210  0.16710  0.22350  Biso   1.000  H
  H133     1.0000 0.74210  0.33290  0.72350  Biso   1.000  H
  H134     1.0000 0.25790  0.33290  0.77650  Biso   1.000  H
  H135     1.0000 0.24210  0.83290  0.72350  Biso   1.000  H
  H136     1.0000 0.75790  0.83290  0.77650  Biso   1.000  H
  C113     1.0000 0.20925  0.04200  0.96740  Biso   1.000  C
  C114     1.0000 0.79075  0.04200  0.53260  Biso   1.000  C
  C115     1.0000 0.70925  0.54200  0.96740  Biso   1.000  C
  C116     1.0000 0.29075  0.54200  0.53260  Biso   1.000  C
  C117     1.0000 0.79075  0.95800  0.03260  Biso   1.000  C
  C118     1.0000 0.20925  0.95800  0.46740  Biso   1.000  C
  C119     1.0000 0.29075  0.45800  0.03260  Biso   1.000  C
  C120     1.0000 0.70925  0.45800  0.46740  Biso   1.000  C
  H137     1.0000 0.17750  0.00490  0.93380  Biso   1.000  H
  H138     1.0000 0.82250  0.00490  0.56620  Biso   1.000  H
  H139     1.0000 0.67750  0.50490  0.93380  Biso   1.000  H
  H140     1.0000 0.32250  0.50490  0.56620  Biso   1.000  H
  H141     1.0000 0.82250  0.99510  0.06620  Biso   1.000  H
  H142     1.0000 0.17750  0.99510  0.43380  Biso   1.000  H
  H143     1.0000 0.32250  0.49510  0.06620  Biso   1.000  H
  H144     1.0000 0.67750  0.49510  0.43380  Biso   1.000  H
  C121     1.0000 0.20502  0.13960  0.95750  Biso   1.000  C
  C122     1.0000 0.79498  0.13960  0.54250  Biso   1.000  C
  C123     1.0000 0.70502  0.63960  0.95750  Biso   1.000  C
  C124     1.0000 0.29498  0.63960  0.54250  Biso   1.000  C
  C125     1.0000 0.79498  0.86040  0.04250  Biso   1.000  C
  C126     1.0000 0.20502  0.86040  0.45750  Biso   1.000  C
  C127     1.0000 0.29498  0.36040  0.04250  Biso   1.000  C
  C128     1.0000 0.70502  0.36040  0.45750  Biso   1.000  C
  H145     1.0000 0.17080  0.16680  0.91860  Biso   1.000  H
  H146     1.0000 0.82920  0.16680  0.58140  Biso   1.000  H
  H147     1.0000 0.67080  0.66680  0.91860  Biso   1.000  H
  H148     1.0000 0.32920  0.66680  0.58140  Biso   1.000  H
  H149     1.0000 0.82920  0.83320  0.08140  Biso   1.000  H
  H150     1.0000 0.17080  0.83320  0.41860  Biso   1.000  H
  H151     1.0000 0.32920  0.33320  0.08140  Biso   1.000  H
  H152     1.0000 0.67080  0.33320  0.41860  Biso   1.000  H
  C129     1.0000 0.25140  0.19680  0.00530  Biso   1.000  C
  C130     1.0000 0.74860  0.19680  0.49470  Biso   1.000  C
  C131     1.0000 0.75140  0.69680  0.00530  Biso   1.000  C
  C132     1.0000 0.24860  0.69680  0.49470  Biso   1.000  C
  C133     1.0000 0.74860  0.80320  0.99470  Biso   1.000  C
  C134     1.0000 0.25140  0.80320  0.50530  Biso   1.000  C
  C135     1.0000 0.24860  0.30320  0.99470  Biso   1.000  C
  C136     1.0000 0.75140  0.30320  0.50530  Biso   1.000  C
  C137     1.0000 0.29958  0.15080  0.06260  Biso   1.000  C
  C138     1.0000 0.70042  0.15080  0.43740  Biso   1.000  C
  C139     1.0000 0.79958  0.65080  0.06260  Biso   1.000  C
  C140     1.0000 0.20042  0.65080  0.43740  Biso   1.000  C
  C141     1.0000 0.70042  0.84920  0.93740  Biso   1.000  C
  C142     1.0000 0.29958  0.84920  0.56260  Biso   1.000  C
  C143     1.0000 0.20042  0.34920  0.93740  Biso   1.000  C
  C144     1.0000 0.79958  0.34920  0.56260  Biso   1.000  C
  H153     1.0000 0.33190  0.18590  0.09740  Biso   1.000  H
  H154     1.0000 0.66810  0.18590  0.40260  Biso   1.000  H
  H155     1.0000 0.83190  0.68590  0.09740  Biso   1.000  H
  H156     1.0000 0.16810  0.68590  0.40260  Biso   1.000  H
  H157     1.0000 0.66810  0.81410  0.90260  Biso   1.000  H
  H158     1.0000 0.33190  0.81410  0.59740  Biso   1.000  H
  H159     1.0000 0.16810  0.31410  0.90260  Biso   1.000  H
  H160     1.0000 0.83190  0.31410  0.59740  Biso   1.000  H
  C145     1.0000 0.30003  0.05330  0.06850  Biso   1.000  C
  C146     1.0000 0.69997  0.05330  0.43150  Biso   1.000  C
  C147     1.0000 0.80003  0.55330  0.06850  Biso   1.000  C
  C148     1.0000 0.19997  0.55330  0.43150  Biso   1.000  C
  C149     1.0000 0.69997  0.94670  0.93150  Biso   1.000  C
  C150     1.0000 0.30003  0.94670  0.56850  Biso   1.000  C
  C151     1.0000 0.19997  0.44670  0.93150  Biso   1.000  C
  C152     1.0000 0.80003  0.44670  0.56850  Biso   1.000  C
  H161     1.0000 0.33340  0.02430  0.10770  Biso   1.000  H
  H162     1.0000 0.66660  0.02430  0.39230  Biso   1.000  H
  H163     1.0000 0.83340  0.52430  0.10770  Biso   1.000  H
  H164     1.0000 0.16660  0.52430  0.39230  Biso   1.000  H
  H165     1.0000 0.66660  0.97570  0.89230  Biso   1.000  H
  H166     1.0000 0.33340  0.97570  0.60770  Biso   1.000  H
  H167     1.0000 0.16660  0.47570  0.89230  Biso   1.000  H
  H168     1.0000 0.83340  0.47570  0.60770  Biso   1.000  H
