data_image0
_cell_length_a       13.92
_cell_length_b       6.8578
_cell_length_c       13.078
_cell_angle_alpha    90
_cell_angle_beta     101.885
_cell_angle_gamma    90

_symmetry_space_group_name_H-M    "P 1"
_symmetry_int_tables_number       1

loop_
  _symmetry_equiv_pos_as_xyz
  'x, y, z'

loop_
  _atom_site_label
  _atom_site_occupancy
  _atom_site_fract_x
  _atom_site_fract_y
  _atom_site_fract_z
  _atom_site_thermal_displace_type
  _atom_site_B_iso_or_equiv
  _atom_site_type_symbol
  C1       1.0000 0.26810  0.02020  0.35560  Biso   1.000  C
  C2       1.0000 0.73190  0.02020  0.14440  Biso   1.000  C
  C3       1.0000 0.76810  0.52020  0.35560  Biso   1.000  C
  C4       1.0000 0.23190  0.52020  0.14440  Biso   1.000  C
  C5       1.0000 0.73190  0.97980  0.64440  Biso   1.000  C
  C6       1.0000 0.26810  0.97980  0.85560  Biso   1.000  C
  C7       1.0000 0.23190  0.47980  0.64440  Biso   1.000  C
  C8       1.0000 0.76810  0.47980  0.85560  Biso   1.000  C
  H1       1.0000 0.27370  0.93350  0.30250  Biso   1.000  H
  H2       1.0000 0.72630  0.93350  0.19750  Biso   1.000  H
  H3       1.0000 0.77370  0.43350  0.30250  Biso   1.000  H
  H4       1.0000 0.22630  0.43350  0.19750  Biso   1.000  H
  H5       1.0000 0.72630  0.06650  0.69750  Biso   1.000  H
  H6       1.0000 0.27370  0.06650  0.80250  Biso   1.000  H
  H7       1.0000 0.22630  0.56650  0.69750  Biso   1.000  H
  H8       1.0000 0.77370  0.56650  0.80250  Biso   1.000  H
  C9       1.0000 0.13730  0.00860  0.55780  Biso   1.000  C
  C10      1.0000 0.86270  0.00860  0.94220  Biso   1.000  C
  C11      1.0000 0.63730  0.50860  0.55780  Biso   1.000  C
  C12      1.0000 0.36270  0.50860  0.94220  Biso   1.000  C
  C13      1.0000 0.86270  0.99140  0.44220  Biso   1.000  C
  C14      1.0000 0.13730  0.99140  0.05780  Biso   1.000  C
  C15      1.0000 0.36270  0.49140  0.44220  Biso   1.000  C
  C16      1.0000 0.63730  0.49140  0.05780  Biso   1.000  C
  H9       1.0000 0.09750  0.91630  0.58060  Biso   1.000  H
  H10      1.0000 0.90250  0.91630  0.91940  Biso   1.000  H
  H11      1.0000 0.59750  0.41630  0.58060  Biso   1.000  H
  H12      1.0000 0.40250  0.41630  0.91940  Biso   1.000  H
  H13      1.0000 0.90250  0.08370  0.41940  Biso   1.000  H
  H14      1.0000 0.09750  0.08370  0.08060  Biso   1.000  H
  H15      1.0000 0.40250  0.58370  0.41940  Biso   1.000  H
  H16      1.0000 0.59750  0.58370  0.08060  Biso   1.000  H
  C17      1.0000 0.00000  0.39740  0.25000  Biso   1.000  C
  C18      1.0000 0.50000  0.89740  0.25000  Biso   1.000  C
  C19      1.0000 0.00000  0.60260  0.75000  Biso   1.000  C
  C20      1.0000 0.50000  0.10260  0.75000  Biso   1.000  C
  H17      1.0000 0.00000  0.26180  0.25000  Biso   1.000  H
  H18      1.0000 0.50000  0.76180  0.25000  Biso   1.000  H
  H19      1.0000 0.00000  0.73820  0.75000  Biso   1.000  H
  H20      1.0000 0.50000  0.23820  0.75000  Biso   1.000  H
  C21      1.0000 0.05870  0.67860  0.32810  Biso   1.000  C
  C22      1.0000 0.94130  0.67860  0.17190  Biso   1.000  C
  C23      1.0000 0.55870  0.17860  0.32810  Biso   1.000  C
  C24      1.0000 0.44130  0.17860  0.17190  Biso   1.000  C
  C25      1.0000 0.94130  0.32140  0.67190  Biso   1.000  C
  C26      1.0000 0.05870  0.32140  0.82810  Biso   1.000  C
  C27      1.0000 0.44130  0.82140  0.67190  Biso   1.000  C
  C28      1.0000 0.55870  0.82140  0.82810  Biso   1.000  C
  H21      1.0000 0.09870  0.74610  0.38230  Biso   1.000  H
  H22      1.0000 0.90130  0.74610  0.11770  Biso   1.000  H
  H23      1.0000 0.59870  0.24610  0.38230  Biso   1.000  H
  H24      1.0000 0.40130  0.24610  0.11770  Biso   1.000  H
  H25      1.0000 0.90130  0.25390  0.61770  Biso   1.000  H
  H26      1.0000 0.09870  0.25390  0.88230  Biso   1.000  H
  H27      1.0000 0.40130  0.75390  0.61770  Biso   1.000  H
  H28      1.0000 0.59870  0.75390  0.88230  Biso   1.000  H
  C29      1.0000 0.00000  0.78020  0.25000  Biso   1.000  C
  C30      1.0000 0.50000  0.28020  0.25000  Biso   1.000  C
  C31      1.0000 0.00000  0.21980  0.75000  Biso   1.000  C
  C32      1.0000 0.50000  0.71980  0.75000  Biso   1.000  C
  H29      1.0000 0.00000  0.91580  0.25000  Biso   1.000  H
  H30      1.0000 0.50000  0.41580  0.25000  Biso   1.000  H
  H31      1.0000 0.00000  0.08420  0.75000  Biso   1.000  H
  H32      1.0000 0.50000  0.58420  0.75000  Biso   1.000  H
  Cu1      1.0000 0.17285  0.32933  0.44000  Biso   1.000  Cu
  Cu2      1.0000 0.82715  0.32933  0.06000  Biso   1.000  Cu
  Cu3      1.0000 0.67285  0.82933  0.44000  Biso   1.000  Cu
  Cu4      1.0000 0.32715  0.82933  0.06000  Biso   1.000  Cu
  Cu5      1.0000 0.82715  0.67067  0.56000  Biso   1.000  Cu
  Cu6      1.0000 0.17285  0.67067  0.94000  Biso   1.000  Cu
  Cu7      1.0000 0.32715  0.17067  0.56000  Biso   1.000  Cu
  Cu8      1.0000 0.67285  0.17067  0.94000  Biso   1.000  Cu
  N1       1.0000 0.05990  0.48400  0.32850  Biso   1.000  N
  N2       1.0000 0.94010  0.48400  0.17150  Biso   1.000  N
  N3       1.0000 0.55990  0.98400  0.32850  Biso   1.000  N
  N4       1.0000 0.44010  0.98400  0.17150  Biso   1.000  N
  N5       1.0000 0.94010  0.51600  0.67150  Biso   1.000  N
  N6       1.0000 0.05990  0.51600  0.82850  Biso   1.000  N
  N7       1.0000 0.44010  0.01600  0.67150  Biso   1.000  N
  N8       1.0000 0.55990  0.01600  0.82850  Biso   1.000  N
  O1       1.0000 0.19800  0.13620  0.33610  Biso   1.000  O
  O2       1.0000 0.80200  0.13620  0.16390  Biso   1.000  O
  O3       1.0000 0.69800  0.63620  0.33610  Biso   1.000  O
  O4       1.0000 0.30200  0.63620  0.16390  Biso   1.000  O
  O5       1.0000 0.80200  0.86380  0.66390  Biso   1.000  O
  O6       1.0000 0.19800  0.86380  0.83610  Biso   1.000  O
  O7       1.0000 0.30200  0.36380  0.66390  Biso   1.000  O
  O8       1.0000 0.69800  0.36380  0.83610  Biso   1.000  O
  O9       1.0000 0.09431  0.13000  0.49270  Biso   1.000  O
  O10      1.0000 0.90569  0.13000  0.00730  Biso   1.000  O
  O11      1.0000 0.59431  0.63000  0.49270  Biso   1.000  O
  O12      1.0000 0.40569  0.63000  0.00730  Biso   1.000  O
  O13      1.0000 0.90569  0.87000  0.50730  Biso   1.000  O
  O14      1.0000 0.09431  0.87000  0.99270  Biso   1.000  O
  O15      1.0000 0.40569  0.37000  0.50730  Biso   1.000  O
  O16      1.0000 0.59431  0.37000  0.99270  Biso   1.000  O
  O17      1.0000 0.33158  0.00600  0.43750  Biso   1.000  O
  O18      1.0000 0.66842  0.00600  0.06250  Biso   1.000  O
  O19      1.0000 0.83158  0.50600  0.43750  Biso   1.000  O
  O20      1.0000 0.16842  0.50600  0.06250  Biso   1.000  O
  O21      1.0000 0.66842  0.99400  0.56250  Biso   1.000  O
  O22      1.0000 0.33158  0.99400  0.93750  Biso   1.000  O
  O23      1.0000 0.16842  0.49400  0.56250  Biso   1.000  O
  O24      1.0000 0.83158  0.49400  0.93750  Biso   1.000  O
  O25      1.0000 0.22630  0.99640  0.59540  Biso   1.000  O
  O26      1.0000 0.77370  0.99640  0.90460  Biso   1.000  O
  O27      1.0000 0.72630  0.49640  0.59540  Biso   1.000  O
  O28      1.0000 0.27370  0.49640  0.90460  Biso   1.000  O
  O29      1.0000 0.77370  0.00360  0.40460  Biso   1.000  O
  O30      1.0000 0.22630  0.00360  0.09540  Biso   1.000  O
  O31      1.0000 0.27370  0.50360  0.40460  Biso   1.000  O
  O32      1.0000 0.72630  0.50360  0.09540  Biso   1.000  O
