data_image0
_cell_length_a       8.698
_cell_length_b       23.693
_cell_length_c       9.065
_cell_angle_alpha    90
_cell_angle_beta     104.868
_cell_angle_gamma    90

_symmetry_space_group_name_H-M    "P 1"
_symmetry_int_tables_number       1

loop_
  _symmetry_equiv_pos_as_xyz
  'x, y, z'

loop_
  _atom_site_label
  _atom_site_occupancy
  _atom_site_fract_x
  _atom_site_fract_y
  _atom_site_fract_z
  _atom_site_thermal_displace_type
  _atom_site_B_iso_or_equiv
  _atom_site_type_symbol
  Cu1      1.0000 0.48479  0.60326  0.49153  Biso   1.000  Cu
  Cu2      1.0000 0.51521  0.10326  0.00847  Biso   1.000  Cu
  Cu3      1.0000 0.51521  0.39674  0.50847  Biso   1.000  Cu
  Cu4      1.0000 0.48479  0.89674  0.99153  Biso   1.000  Cu
  S1       1.0000 0.75450  0.76544  0.36040  Biso   1.000  S
  S2       1.0000 0.24550  0.26544  0.13960  Biso   1.000  S
  S3       1.0000 0.24550  0.23456  0.63960  Biso   1.000  S
  S4       1.0000 0.75450  0.73456  0.86040  Biso   1.000  S
  S5       1.0000 0.18200  0.73010  0.67000  Biso   1.000  S
  S6       1.0000 0.81800  0.23010  0.83000  Biso   1.000  S
  S7       1.0000 0.81800  0.26990  0.33000  Biso   1.000  S
  S8       1.0000 0.18200  0.76990  0.17000  Biso   1.000  S
  O1       1.0000 0.31470  0.60048  0.29880  Biso   1.000  O
  O2       1.0000 0.68530  0.10048  0.20120  Biso   1.000  O
  O3       1.0000 0.68530  0.39952  0.70120  Biso   1.000  O
  O4       1.0000 0.31470  0.89952  0.79880  Biso   1.000  O
  O5       1.0000 0.21140  0.52968  0.40570  Biso   1.000  O
  O6       1.0000 0.78860  0.02968  0.09430  Biso   1.000  O
  O7       1.0000 0.78860  0.47032  0.59430  Biso   1.000  O
  O8       1.0000 0.21140  0.97032  0.90570  Biso   1.000  O
  O9       1.0000 0.64240  0.59777  0.68680  Biso   1.000  O
  O10      1.0000 0.35760  0.09777  0.81320  Biso   1.000  O
  O11      1.0000 0.35760  0.40223  0.31320  Biso   1.000  O
  O12      1.0000 0.64240  0.90223  0.18680  Biso   1.000  O
  O13      1.0000 0.52870  0.53181  0.80110  Biso   1.000  O
  O14      1.0000 0.47130  0.03181  0.69890  Biso   1.000  O
  O15      1.0000 0.47130  0.46819  0.19890  Biso   1.000  O
  O16      1.0000 0.52870  0.96819  0.30110  Biso   1.000  O
  O17      1.0000 0.60240  0.54440  0.41350  Biso   1.000  O
  O18      1.0000 0.39760  0.04440  0.08650  Biso   1.000  O
  O19      1.0000 0.39760  0.45560  0.58650  Biso   1.000  O
  O20      1.0000 0.60240  0.95560  0.91350  Biso   1.000  O
  H1       1.0000 0.66950  0.52450  0.47470  Biso   1.000  H
  H2       1.0000 0.33050  0.02450  0.02530  Biso   1.000  H
  H3       1.0000 0.33050  0.47550  0.52530  Biso   1.000  H
  H4       1.0000 0.66950  0.97550  0.97470  Biso   1.000  H
  H5       1.0000 0.55030  0.52430  0.34210  Biso   1.000  H
  H6       1.0000 0.44970  0.02430  0.15790  Biso   1.000  H
  H7       1.0000 0.44970  0.47570  0.65790  Biso   1.000  H
  H8       1.0000 0.55030  0.97570  0.84210  Biso   1.000  H
  O21      1.0000 0.44690  0.60710  0.04040  Biso   1.000  O
  O22      1.0000 0.55310  0.10710  0.45960  Biso   1.000  O
  O23      1.0000 0.55310  0.39290  0.95960  Biso   1.000  O
  O24      1.0000 0.44690  0.89290  0.54040  Biso   1.000  O
  H9       1.0000 0.41050  0.59760  0.11450  Biso   1.000  H
  H10      1.0000 0.58950  0.09760  0.38550  Biso   1.000  H
  H11      1.0000 0.58950  0.40240  0.88550  Biso   1.000  H
  H12      1.0000 0.41050  0.90240  0.61450  Biso   1.000  H
  H13      1.0000 0.45520  0.57830  0.98930  Biso   1.000  H
  H14      1.0000 0.54480  0.07830  0.51070  Biso   1.000  H
  H15      1.0000 0.54480  0.42170  0.01070  Biso   1.000  H
  H16      1.0000 0.45520  0.92170  0.48930  Biso   1.000  H
  N1       1.0000 0.60450  0.68120  0.42830  Biso   1.000  N
  N2       1.0000 0.39550  0.18120  0.07170  Biso   1.000  N
  N3       1.0000 0.39550  0.31880  0.57170  Biso   1.000  N
  N4       1.0000 0.60450  0.81880  0.92830  Biso   1.000  N
  N5       1.0000 0.36540  0.66610  0.56740  Biso   1.000  N
  N6       1.0000 0.63460  0.16610  0.93260  Biso   1.000  N
  N7       1.0000 0.63460  0.33390  0.43260  Biso   1.000  N
  N8       1.0000 0.36540  0.83390  0.06740  Biso   1.000  N
  C1       1.0000 0.82080  0.65190  0.31360  Biso   1.000  C
  C2       1.0000 0.17920  0.15190  0.18640  Biso   1.000  C
  C3       1.0000 0.17920  0.34810  0.68640  Biso   1.000  C
  C4       1.0000 0.82080  0.84810  0.81360  Biso   1.000  C
  H17      1.0000 0.84340  0.62000  0.38480  Biso   1.000  H
  H18      1.0000 0.15660  0.12000  0.11520  Biso   1.000  H
  H19      1.0000 0.15660  0.38000  0.61520  Biso   1.000  H
  H20      1.0000 0.84340  0.88000  0.88480  Biso   1.000  H
  H21      1.0000 0.92090  0.66950  0.30760  Biso   1.000  H
  H22      1.0000 0.07910  0.16950  0.19240  Biso   1.000  H
  H23      1.0000 0.07910  0.33050  0.69240  Biso   1.000  H
  H24      1.0000 0.92090  0.83050  0.80760  Biso   1.000  H
  H25      1.0000 0.76330  0.63840  0.21230  Biso   1.000  H
  H26      1.0000 0.23670  0.13840  0.28770  Biso   1.000  H
  H27      1.0000 0.23670  0.36160  0.78770  Biso   1.000  H
  H28      1.0000 0.76330  0.86160  0.71230  Biso   1.000  H
  C5       1.0000 0.72160  0.69400  0.36860  Biso   1.000  C
  C6       1.0000 0.27840  0.19400  0.13140  Biso   1.000  C
  C7       1.0000 0.27840  0.30600  0.63140  Biso   1.000  C
  C8       1.0000 0.72160  0.80600  0.86860  Biso   1.000  C
  C9       1.0000 0.60080  0.77900  0.44210  Biso   1.000  C
  C10      1.0000 0.39920  0.27900  0.05790  Biso   1.000  C
  C11      1.0000 0.39920  0.22100  0.55790  Biso   1.000  C
  C12      1.0000 0.60080  0.72100  0.94210  Biso   1.000  C
  H29      1.0000 0.56640  0.81540  0.46390  Biso   1.000  H
  H30      1.0000 0.43360  0.31540  0.03610  Biso   1.000  H
  H31      1.0000 0.43360  0.18460  0.53610  Biso   1.000  H
  H32      1.0000 0.56640  0.68460  0.96390  Biso   1.000  H
  C13      1.0000 0.53630  0.72910  0.47070  Biso   1.000  C
  C14      1.0000 0.46370  0.22910  0.02930  Biso   1.000  C
  C15      1.0000 0.46370  0.27090  0.52930  Biso   1.000  C
  C16      1.0000 0.53630  0.77090  0.97070  Biso   1.000  C
  C17      1.0000 0.40740  0.72160  0.54320  Biso   1.000  C
  C18      1.0000 0.59260  0.22160  0.95680  Biso   1.000  C
  C19      1.0000 0.59260  0.27840  0.45680  Biso   1.000  C
  C20      1.0000 0.40740  0.77840  0.04320  Biso   1.000  C
  C21      1.0000 0.31920  0.76100  0.59200  Biso   1.000  C
  C22      1.0000 0.68080  0.26100  0.90800  Biso   1.000  C
  C23      1.0000 0.68080  0.23900  0.40800  Biso   1.000  C
  C24      1.0000 0.31920  0.73900  0.09200  Biso   1.000  C
  H33      1.0000 0.33200  0.80060  0.58370  Biso   1.000  H
  H34      1.0000 0.66800  0.30060  0.91630  Biso   1.000  H
  H35      1.0000 0.66800  0.19940  0.41630  Biso   1.000  H
  H36      1.0000 0.33200  0.69940  0.08370  Biso   1.000  H
  C25      1.0000 0.24790  0.66410  0.63480  Biso   1.000  C
  C26      1.0000 0.75210  0.16410  0.86520  Biso   1.000  C
  C27      1.0000 0.75210  0.33590  0.36520  Biso   1.000  C
  C28      1.0000 0.24790  0.83590  0.13480  Biso   1.000  C
  C29      1.0000 0.17930  0.61150  0.68100  Biso   1.000  C
  C30      1.0000 0.82070  0.11150  0.81900  Biso   1.000  C
  C31      1.0000 0.82070  0.38850  0.31900  Biso   1.000  C
  C32      1.0000 0.17930  0.88850  0.18100  Biso   1.000  C
  H37      1.0000 0.21840  0.57880  0.63500  Biso   1.000  H
  H38      1.0000 0.78160  0.07880  0.86500  Biso   1.000  H
  H39      1.0000 0.78160  0.42120  0.36500  Biso   1.000  H
  H40      1.0000 0.21840  0.92120  0.13500  Biso   1.000  H
  H41      1.0000 0.06300  0.61300  0.64610  Biso   1.000  H
  H42      1.0000 0.93700  0.11300  0.85390  Biso   1.000  H
  H43      1.0000 0.93700  0.38700  0.35390  Biso   1.000  H
  H44      1.0000 0.06300  0.88700  0.14610  Biso   1.000  H
  H45      1.0000 0.21140  0.60790  0.79250  Biso   1.000  H
  H46      1.0000 0.78860  0.10790  0.70750  Biso   1.000  H
  H47      1.0000 0.78860  0.39210  0.20750  Biso   1.000  H
  H48      1.0000 0.21140  0.89210  0.29250  Biso   1.000  H
  C33      1.0000 0.20610  0.56440  0.30100  Biso   1.000  C
  C34      1.0000 0.79390  0.06440  0.19900  Biso   1.000  C
  C35      1.0000 0.79390  0.43560  0.69900  Biso   1.000  C
  C36      1.0000 0.20610  0.93560  0.80100  Biso   1.000  C
  C37      1.0000 0.05840  0.56560  0.17010  Biso   1.000  C
  C38      1.0000 0.94160  0.06560  0.32990  Biso   1.000  C
  C39      1.0000 0.94160  0.43440  0.82990  Biso   1.000  C
  C40      1.0000 0.05840  0.93440  0.67010  Biso   1.000  C
  C41      1.0000 0.93470  0.52960  0.17200  Biso   1.000  C
  C42      1.0000 0.06530  0.02960  0.32800  Biso   1.000  C
  C43      1.0000 0.06530  0.47040  0.82800  Biso   1.000  C
  C44      1.0000 0.93470  0.97040  0.67200  Biso   1.000  C
  H49      1.0000 0.94340  0.50460  0.25560  Biso   1.000  H
  H50      1.0000 0.05660  0.00460  0.24440  Biso   1.000  H
  H51      1.0000 0.05660  0.49540  0.74440  Biso   1.000  H
  H52      1.0000 0.94340  0.99540  0.75560  Biso   1.000  H
  C45      1.0000 0.79770  0.52950  0.05350  Biso   1.000  C
  C46      1.0000 0.20230  0.02950  0.44650  Biso   1.000  C
  C47      1.0000 0.20230  0.47050  0.94650  Biso   1.000  C
  C48      1.0000 0.79770  0.97050  0.55350  Biso   1.000  C
  H53      1.0000 0.71260  0.50470  0.05620  Biso   1.000  H
  H54      1.0000 0.28740  0.00470  0.44380  Biso   1.000  H
  H55      1.0000 0.28740  0.49530  0.94380  Biso   1.000  H
  H56      1.0000 0.71260  0.99530  0.55620  Biso   1.000  H
  C49      1.0000 0.78490  0.56610  0.92950  Biso   1.000  C
  C50      1.0000 0.21510  0.06610  0.57050  Biso   1.000  C
  C51      1.0000 0.21510  0.43390  0.07050  Biso   1.000  C
  C52      1.0000 0.78490  0.93390  0.42950  Biso   1.000  C
  C53      1.0000 0.64000  0.56420  0.79660  Biso   1.000  C
  C54      1.0000 0.36000  0.06420  0.70340  Biso   1.000  C
  C55      1.0000 0.36000  0.43580  0.20340  Biso   1.000  C
  C56      1.0000 0.64000  0.93580  0.29660  Biso   1.000  C
  C57      1.0000 0.04560  0.60190  0.04750  Biso   1.000  C
  C58      1.0000 0.95440  0.10190  0.45250  Biso   1.000  C
  C59      1.0000 0.95440  0.39810  0.95250  Biso   1.000  C
  C60      1.0000 0.04560  0.89810  0.54750  Biso   1.000  C
  H57      1.0000 0.13020  0.62700  0.04570  Biso   1.000  H
  H58      1.0000 0.86980  0.12700  0.45430  Biso   1.000  H
  H59      1.0000 0.86980  0.37300  0.95430  Biso   1.000  H
  H60      1.0000 0.13020  0.87300  0.54570  Biso   1.000  H
  C61      1.0000 0.91110  0.60150  0.92860  Biso   1.000  C
  C62      1.0000 0.08890  0.10150  0.57140  Biso   1.000  C
  C63      1.0000 0.08890  0.39850  0.07140  Biso   1.000  C
  C64      1.0000 0.91110  0.89850  0.42860  Biso   1.000  C
  H61      1.0000 0.90450  0.62600  0.84430  Biso   1.000  H
  H62      1.0000 0.09550  0.12600  0.65570  Biso   1.000  H
  H63      1.0000 0.09550  0.37400  0.15570  Biso   1.000  H
  H64      1.0000 0.90450  0.87400  0.34430  Biso   1.000  H
