data_image0
_cell_length_a       13.524
_cell_length_b       11.221
_cell_length_c       18.41
_cell_angle_alpha    90
_cell_angle_beta     96.06
_cell_angle_gamma    90

_symmetry_space_group_name_H-M    "P 1"
_symmetry_int_tables_number       1

loop_
  _symmetry_equiv_pos_as_xyz
  'x, y, z'

loop_
  _atom_site_label
  _atom_site_occupancy
  _atom_site_fract_x
  _atom_site_fract_y
  _atom_site_fract_z
  _atom_site_thermal_displace_type
  _atom_site_B_iso_or_equiv
  _atom_site_type_symbol
  Cu1      1.0000 0.40039  0.62350  0.16736  Biso   1.000  Cu
  Cu2      1.0000 0.90039  0.12350  0.66736  Biso   1.000  Cu
  Cu3      1.0000 0.09961  0.62350  0.83264  Biso   1.000  Cu
  Cu4      1.0000 0.59961  0.12350  0.33264  Biso   1.000  Cu
  Cu5      1.0000 0.59961  0.37650  0.83264  Biso   1.000  Cu
  Cu6      1.0000 0.09961  0.87650  0.33264  Biso   1.000  Cu
  Cu7      1.0000 0.90039  0.37650  0.16736  Biso   1.000  Cu
  Cu8      1.0000 0.40039  0.87650  0.66736  Biso   1.000  Cu
  Na1      1.0000 0.48480  0.35417  0.23936  Biso   1.000  Na
  Na2      1.0000 0.98480  0.85417  0.73936  Biso   1.000  Na
  Na3      1.0000 0.01520  0.35417  0.76064  Biso   1.000  Na
  Na4      1.0000 0.51520  0.85417  0.26064  Biso   1.000  Na
  Na5      1.0000 0.51520  0.64583  0.76064  Biso   1.000  Na
  Na6      1.0000 0.01520  0.14583  0.26064  Biso   1.000  Na
  Na7      1.0000 0.98480  0.64583  0.23936  Biso   1.000  Na
  Na8      1.0000 0.48480  0.14583  0.73936  Biso   1.000  Na
  O1       1.0000 0.36510  0.96540  0.45186  Biso   1.000  O
  O2       1.0000 0.86510  0.46540  0.95186  Biso   1.000  O
  O3       1.0000 0.13490  0.96540  0.54814  Biso   1.000  O
  O4       1.0000 0.63490  0.46540  0.04814  Biso   1.000  O
  O5       1.0000 0.63490  0.03460  0.54814  Biso   1.000  O
  O6       1.0000 0.13490  0.53460  0.04814  Biso   1.000  O
  O7       1.0000 0.86510  0.03460  0.45186  Biso   1.000  O
  O8       1.0000 0.36510  0.53460  0.95186  Biso   1.000  O
  H1       1.0000 0.37620  0.93690  0.49474  Biso   1.000  H
  H2       1.0000 0.87620  0.43690  0.99474  Biso   1.000  H
  H3       1.0000 0.12380  0.93690  0.50526  Biso   1.000  H
  H4       1.0000 0.62380  0.43690  0.00526  Biso   1.000  H
  H5       1.0000 0.62380  0.06310  0.50526  Biso   1.000  H
  H6       1.0000 0.12380  0.56310  0.00526  Biso   1.000  H
  H7       1.0000 0.87620  0.06310  0.49474  Biso   1.000  H
  H8       1.0000 0.37620  0.56310  0.99474  Biso   1.000  H
  H9       1.0000 0.36000  0.04070  0.45491  Biso   1.000  H
  H10      1.0000 0.86000  0.54070  0.95491  Biso   1.000  H
  H11      1.0000 0.14000  0.04070  0.54509  Biso   1.000  H
  H12      1.0000 0.64000  0.54070  0.04509  Biso   1.000  H
  H13      1.0000 0.64000  0.95930  0.54509  Biso   1.000  H
  H14      1.0000 0.14000  0.45930  0.04509  Biso   1.000  H
  H15      1.0000 0.86000  0.95930  0.45491  Biso   1.000  H
  H16      1.0000 0.36000  0.45930  0.95491  Biso   1.000  H
  O9       1.0000 0.33420  0.46440  0.73120  Biso   1.000  O
  O10      1.0000 0.83420  0.96440  0.23120  Biso   1.000  O
  O11      1.0000 0.16580  0.46440  0.26880  Biso   1.000  O
  O12      1.0000 0.66580  0.96440  0.76880  Biso   1.000  O
  O13      1.0000 0.66580  0.53560  0.26880  Biso   1.000  O
  O14      1.0000 0.16580  0.03560  0.76880  Biso   1.000  O
  O15      1.0000 0.83420  0.53560  0.73120  Biso   1.000  O
  O16      1.0000 0.33420  0.03560  0.23120  Biso   1.000  O
  H17      1.0000 0.28910  0.49620  0.75360  Biso   1.000  H
  H18      1.0000 0.78910  0.99620  0.25360  Biso   1.000  H
  H19      1.0000 0.21090  0.49620  0.24640  Biso   1.000  H
  H20      1.0000 0.71090  0.99620  0.74640  Biso   1.000  H
  H21      1.0000 0.71090  0.50380  0.24640  Biso   1.000  H
  H22      1.0000 0.21090  0.00380  0.74640  Biso   1.000  H
  H23      1.0000 0.78910  0.50380  0.75360  Biso   1.000  H
  H24      1.0000 0.28910  0.00380  0.25360  Biso   1.000  H
  H25      1.0000 0.34910  0.51280  0.69850  Biso   1.000  H
  H26      1.0000 0.84910  0.01280  0.19850  Biso   1.000  H
  H27      1.0000 0.15090  0.51280  0.30150  Biso   1.000  H
  H28      1.0000 0.65090  0.01280  0.80150  Biso   1.000  H
  H29      1.0000 0.65090  0.48720  0.30150  Biso   1.000  H
  H30      1.0000 0.15090  0.98720  0.80150  Biso   1.000  H
  H31      1.0000 0.84910  0.48720  0.69850  Biso   1.000  H
  H32      1.0000 0.34910  0.98720  0.19850  Biso   1.000  H
  O17      1.0000 0.45820  0.44830  0.11939  Biso   1.000  O
  O18      1.0000 0.95820  0.94830  0.61939  Biso   1.000  O
  O19      1.0000 0.04180  0.44830  0.88061  Biso   1.000  O
  O20      1.0000 0.54180  0.94830  0.38061  Biso   1.000  O
  O21      1.0000 0.54180  0.55170  0.88061  Biso   1.000  O
  O22      1.0000 0.04180  0.05170  0.38061  Biso   1.000  O
  O23      1.0000 0.95820  0.55170  0.11939  Biso   1.000  O
  O24      1.0000 0.45820  0.05170  0.61939  Biso   1.000  O
  H33      1.0000 0.41300  0.41320  0.09166  Biso   1.000  H
  H34      1.0000 0.91300  0.91320  0.59166  Biso   1.000  H
  H35      1.0000 0.08700  0.41320  0.90834  Biso   1.000  H
  H36      1.0000 0.58700  0.91320  0.40834  Biso   1.000  H
  H37      1.0000 0.58700  0.58680  0.90834  Biso   1.000  H
  H38      1.0000 0.08700  0.08680  0.40834  Biso   1.000  H
  H39      1.0000 0.91300  0.58680  0.09166  Biso   1.000  H
  H40      1.0000 0.41300  0.08680  0.59166  Biso   1.000  H
  H41      1.0000 0.51160  0.45780  0.09964  Biso   1.000  H
  H42      1.0000 0.01160  0.95780  0.59964  Biso   1.000  H
  H43      1.0000 0.98840  0.45780  0.90036  Biso   1.000  H
  H44      1.0000 0.48840  0.95780  0.40036  Biso   1.000  H
  H45      1.0000 0.48840  0.54220  0.90036  Biso   1.000  H
  H46      1.0000 0.98840  0.04220  0.40036  Biso   1.000  H
  H47      1.0000 0.01160  0.54220  0.09964  Biso   1.000  H
  H48      1.0000 0.51160  0.04220  0.59964  Biso   1.000  H
  O25      1.0000 0.25350  0.60670  0.16182  Biso   1.000  O
  O26      1.0000 0.75350  0.10670  0.66182  Biso   1.000  O
  O27      1.0000 0.24650  0.60670  0.83818  Biso   1.000  O
  O28      1.0000 0.74650  0.10670  0.33818  Biso   1.000  O
  O29      1.0000 0.74650  0.39330  0.83818  Biso   1.000  O
  O30      1.0000 0.24650  0.89330  0.33818  Biso   1.000  O
  O31      1.0000 0.75350  0.39330  0.16182  Biso   1.000  O
  O32      1.0000 0.25350  0.89330  0.66182  Biso   1.000  O
  H49      1.0000 0.23000  0.58320  0.11961  Biso   1.000  H
  H50      1.0000 0.73000  0.08320  0.61961  Biso   1.000  H
  H51      1.0000 0.27000  0.58320  0.88039  Biso   1.000  H
  H52      1.0000 0.77000  0.08320  0.38039  Biso   1.000  H
  H53      1.0000 0.77000  0.41680  0.88039  Biso   1.000  H
  H54      1.0000 0.27000  0.91680  0.38039  Biso   1.000  H
  H55      1.0000 0.73000  0.41680  0.11961  Biso   1.000  H
  H56      1.0000 0.23000  0.91680  0.61961  Biso   1.000  H
  H57      1.0000 0.22680  0.67290  0.17066  Biso   1.000  H
  H58      1.0000 0.72680  0.17290  0.67066  Biso   1.000  H
  H59      1.0000 0.27320  0.67290  0.82934  Biso   1.000  H
  H60      1.0000 0.77320  0.17290  0.32934  Biso   1.000  H
  H61      1.0000 0.77320  0.32710  0.82934  Biso   1.000  H
  H62      1.0000 0.27320  0.82710  0.32934  Biso   1.000  H
  H63      1.0000 0.72680  0.32710  0.17066  Biso   1.000  H
  H64      1.0000 0.22680  0.82710  0.67066  Biso   1.000  H
  O33      1.0000 0.27300  0.54200  0.15400  Biso   1.000  O
  O34      1.0000 0.77300  0.04200  0.65400  Biso   1.000  O
  O35      1.0000 0.22700  0.54200  0.84600  Biso   1.000  O
  O36      1.0000 0.72700  0.04200  0.34600  Biso   1.000  O
  O37      1.0000 0.72700  0.45800  0.84600  Biso   1.000  O
  O38      1.0000 0.22700  0.95800  0.34600  Biso   1.000  O
  O39      1.0000 0.77300  0.45800  0.15400  Biso   1.000  O
  O40      1.0000 0.27300  0.95800  0.65400  Biso   1.000  O
  O41      1.0000 0.54110  0.67620  0.18610  Biso   1.000  O
  O42      1.0000 0.04110  0.17620  0.68610  Biso   1.000  O
  O43      1.0000 0.95890  0.67620  0.81390  Biso   1.000  O
  O44      1.0000 0.45890  0.17620  0.31390  Biso   1.000  O
  O45      1.0000 0.45890  0.32380  0.81390  Biso   1.000  O
  O46      1.0000 0.95890  0.82380  0.31390  Biso   1.000  O
  O47      1.0000 0.04110  0.32380  0.18610  Biso   1.000  O
  O48      1.0000 0.54110  0.82380  0.68610  Biso   1.000  O
  H65      1.0000 0.56610  0.69350  0.14694  Biso   1.000  H
  H66      1.0000 0.06610  0.19350  0.64694  Biso   1.000  H
  H67      1.0000 0.93390  0.69350  0.85306  Biso   1.000  H
  H68      1.0000 0.43390  0.19350  0.35306  Biso   1.000  H
  H69      1.0000 0.43390  0.30650  0.85306  Biso   1.000  H
  H70      1.0000 0.93390  0.80650  0.35306  Biso   1.000  H
  H71      1.0000 0.06610  0.30650  0.14694  Biso   1.000  H
  H72      1.0000 0.56610  0.80650  0.64694  Biso   1.000  H
  H73      1.0000 0.57540  0.62450  0.21139  Biso   1.000  H
  H74      1.0000 0.07540  0.12450  0.71139  Biso   1.000  H
  H75      1.0000 0.92460  0.62450  0.78861  Biso   1.000  H
  H76      1.0000 0.42460  0.12450  0.28861  Biso   1.000  H
  H77      1.0000 0.42460  0.37550  0.78861  Biso   1.000  H
  H78      1.0000 0.92460  0.87550  0.28861  Biso   1.000  H
  H79      1.0000 0.07540  0.37550  0.21139  Biso   1.000  H
  H80      1.0000 0.57540  0.87550  0.71139  Biso   1.000  H
  O49      1.0000 0.31250  0.29460  0.19380  Biso   1.000  O
  O50      1.0000 0.81250  0.79460  0.69380  Biso   1.000  O
  O51      1.0000 0.18750  0.29460  0.80620  Biso   1.000  O
  O52      1.0000 0.68750  0.79460  0.30620  Biso   1.000  O
  O53      1.0000 0.68750  0.70540  0.80620  Biso   1.000  O
  O54      1.0000 0.18750  0.20540  0.30620  Biso   1.000  O
  O55      1.0000 0.81250  0.70540  0.19380  Biso   1.000  O
  O56      1.0000 0.31250  0.20540  0.69380  Biso   1.000  O
  H81      1.0000 0.31510  0.25450  0.15490  Biso   1.000  H
  H82      1.0000 0.81510  0.75450  0.65490  Biso   1.000  H
  H83      1.0000 0.18490  0.25450  0.84510  Biso   1.000  H
  H84      1.0000 0.68490  0.75450  0.34510  Biso   1.000  H
  H85      1.0000 0.68490  0.74550  0.84510  Biso   1.000  H
  H86      1.0000 0.18490  0.24550  0.34510  Biso   1.000  H
  H87      1.0000 0.81510  0.74550  0.15490  Biso   1.000  H
  H88      1.0000 0.31510  0.24550  0.65490  Biso   1.000  H
  H89      1.0000 0.29150  0.24800  0.22520  Biso   1.000  H
  H90      1.0000 0.79150  0.74800  0.72520  Biso   1.000  H
  H91      1.0000 0.20850  0.24800  0.77480  Biso   1.000  H
  H92      1.0000 0.70850  0.74800  0.27480  Biso   1.000  H
  H93      1.0000 0.70850  0.75200  0.77480  Biso   1.000  H
  H94      1.0000 0.20850  0.25200  0.27480  Biso   1.000  H
  H95      1.0000 0.79150  0.75200  0.22520  Biso   1.000  H
  H96      1.0000 0.29150  0.25200  0.72520  Biso   1.000  H
  O57      1.0000 0.41080  0.54480  0.26411  Biso   1.000  O
  O58      1.0000 0.91080  0.04480  0.76411  Biso   1.000  O
  O59      1.0000 0.08920  0.54480  0.73589  Biso   1.000  O
  O60      1.0000 0.58920  0.04480  0.23589  Biso   1.000  O
  O61      1.0000 0.58920  0.45520  0.73589  Biso   1.000  O
  O62      1.0000 0.08920  0.95520  0.23589  Biso   1.000  O
  O63      1.0000 0.91080  0.45520  0.26411  Biso   1.000  O
  O64      1.0000 0.41080  0.95520  0.76411  Biso   1.000  O
  O65      1.0000 0.38150  0.72750  0.30194  Biso   1.000  O
  O66      1.0000 0.88150  0.22750  0.80194  Biso   1.000  O
  O67      1.0000 0.11850  0.72750  0.69806  Biso   1.000  O
  O68      1.0000 0.61850  0.22750  0.19806  Biso   1.000  O
  O69      1.0000 0.61850  0.27250  0.69806  Biso   1.000  O
  O70      1.0000 0.11850  0.77250  0.19806  Biso   1.000  O
  O71      1.0000 0.88150  0.27250  0.30194  Biso   1.000  O
  O72      1.0000 0.38150  0.77250  0.80194  Biso   1.000  O
  O73      1.0000 0.38770  0.79590  0.57212  Biso   1.000  O
  O74      1.0000 0.88770  0.29590  0.07212  Biso   1.000  O
  O75      1.0000 0.11230  0.79590  0.42788  Biso   1.000  O
  O76      1.0000 0.61230  0.29590  0.92788  Biso   1.000  O
  O77      1.0000 0.61230  0.20410  0.42788  Biso   1.000  O
  O78      1.0000 0.11230  0.70410  0.92788  Biso   1.000  O
  O79      1.0000 0.88770  0.20410  0.57212  Biso   1.000  O
  O80      1.0000 0.38770  0.70410  0.07212  Biso   1.000  O
  O81      1.0000 0.39060  0.64040  0.64593  Biso   1.000  O
  O82      1.0000 0.89060  0.14040  0.14593  Biso   1.000  O
  O83      1.0000 0.10940  0.64040  0.35407  Biso   1.000  O
  O84      1.0000 0.60940  0.14040  0.85407  Biso   1.000  O
  O85      1.0000 0.60940  0.35960  0.35407  Biso   1.000  O
  O86      1.0000 0.10940  0.85960  0.85407  Biso   1.000  O
  O87      1.0000 0.89060  0.35960  0.64593  Biso   1.000  O
  O88      1.0000 0.39060  0.85960  0.14593  Biso   1.000  O
  O89      1.0000 0.36580  0.23660  0.54920  Biso   1.000  O
  O90      1.0000 0.86580  0.73660  0.04920  Biso   1.000  O
  O91      1.0000 0.13420  0.23660  0.45080  Biso   1.000  O
  O92      1.0000 0.63420  0.73660  0.95080  Biso   1.000  O
  O93      1.0000 0.63420  0.76340  0.45080  Biso   1.000  O
  O94      1.0000 0.13420  0.26340  0.95080  Biso   1.000  O
  O95      1.0000 0.86580  0.76340  0.54920  Biso   1.000  O
  O96      1.0000 0.36580  0.26340  0.04920  Biso   1.000  O
  O97      1.0000 0.36900  0.19840  0.43132  Biso   1.000  O
  O98      1.0000 0.86900  0.69840  0.93132  Biso   1.000  O
  O99      1.0000 0.13100  0.19840  0.56868  Biso   1.000  O
  O100     1.0000 0.63100  0.69840  0.06868  Biso   1.000  O
  O101     1.0000 0.63100  0.80160  0.56868  Biso   1.000  O
  O102     1.0000 0.13100  0.30160  0.06868  Biso   1.000  O
  O103     1.0000 0.86900  0.80160  0.43132  Biso   1.000  O
  O104     1.0000 0.36900  0.30160  0.93132  Biso   1.000  O
  C1       1.0000 0.38180  0.56930  0.38848  Biso   1.000  C
  C2       1.0000 0.88180  0.06930  0.88848  Biso   1.000  C
  C3       1.0000 0.11820  0.56930  0.61152  Biso   1.000  C
  C4       1.0000 0.61820  0.06930  0.11152  Biso   1.000  C
  C5       1.0000 0.61820  0.43070  0.61152  Biso   1.000  C
  C6       1.0000 0.11820  0.93070  0.11152  Biso   1.000  C
  C7       1.0000 0.88180  0.43070  0.38848  Biso   1.000  C
  C8       1.0000 0.38180  0.93070  0.88848  Biso   1.000  C
  C9       1.0000 0.38330  0.64720  0.44764  Biso   1.000  C
  C10      1.0000 0.88330  0.14720  0.94764  Biso   1.000  C
  C11      1.0000 0.11670  0.64720  0.55236  Biso   1.000  C
  C12      1.0000 0.61670  0.14720  0.05236  Biso   1.000  C
  C13      1.0000 0.61670  0.35280  0.55236  Biso   1.000  C
  C14      1.0000 0.11670  0.85280  0.05236  Biso   1.000  C
  C15      1.0000 0.88330  0.35280  0.44764  Biso   1.000  C
  C16      1.0000 0.38330  0.85280  0.94764  Biso   1.000  C
  H97      1.0000 0.38710  0.73170  0.43994  Biso   1.000  H
  H98      1.0000 0.88710  0.23170  0.93994  Biso   1.000  H
  H99      1.0000 0.11290  0.73170  0.56006  Biso   1.000  H
  H100     1.0000 0.61290  0.23170  0.06006  Biso   1.000  H
  H101     1.0000 0.61290  0.26830  0.56006  Biso   1.000  H
  H102     1.0000 0.11290  0.76830  0.06006  Biso   1.000  H
  H103     1.0000 0.88710  0.26830  0.43994  Biso   1.000  H
  H104     1.0000 0.38710  0.76830  0.93994  Biso   1.000  H
  C17      1.0000 0.37920  0.60240  0.51800  Biso   1.000  C
  C18      1.0000 0.87920  0.10240  0.01800  Biso   1.000  C
  C19      1.0000 0.12080  0.60240  0.48200  Biso   1.000  C
  C20      1.0000 0.62080  0.10240  0.98200  Biso   1.000  C
  C21      1.0000 0.62080  0.39760  0.48200  Biso   1.000  C
  C22      1.0000 0.12080  0.89760  0.98200  Biso   1.000  C
  C23      1.0000 0.87920  0.39760  0.51800  Biso   1.000  C
  C24      1.0000 0.37920  0.89760  0.01800  Biso   1.000  C
  C25      1.0000 0.37420  0.48000  0.52882  Biso   1.000  C
  C26      1.0000 0.87420  0.98000  0.02882  Biso   1.000  C
  C27      1.0000 0.12580  0.48000  0.47118  Biso   1.000  C
  C28      1.0000 0.62580  0.98000  0.97118  Biso   1.000  C
  C29      1.0000 0.62580  0.52000  0.47118  Biso   1.000  C
  C30      1.0000 0.12580  0.02000  0.97118  Biso   1.000  C
  C31      1.0000 0.87420  0.52000  0.52882  Biso   1.000  C
  C32      1.0000 0.37420  0.02000  0.02882  Biso   1.000  C
  H105     1.0000 0.37280  0.44930  0.57738  Biso   1.000  H
  H106     1.0000 0.87280  0.94930  0.07738  Biso   1.000  H
  H107     1.0000 0.12720  0.44930  0.42262  Biso   1.000  H
  H108     1.0000 0.62720  0.94930  0.92262  Biso   1.000  H
  H109     1.0000 0.62720  0.55070  0.42262  Biso   1.000  H
  H110     1.0000 0.12720  0.05070  0.92262  Biso   1.000  H
  H111     1.0000 0.87280  0.55070  0.57738  Biso   1.000  H
  H112     1.0000 0.37280  0.05070  0.07738  Biso   1.000  H
  C33      1.0000 0.37100  0.40140  0.47016  Biso   1.000  C
  C34      1.0000 0.87100  0.90140  0.97016  Biso   1.000  C
  C35      1.0000 0.12900  0.40140  0.52984  Biso   1.000  C
  C36      1.0000 0.62900  0.90140  0.02984  Biso   1.000  C
  C37      1.0000 0.62900  0.59860  0.52984  Biso   1.000  C
  C38      1.0000 0.12900  0.09860  0.02984  Biso   1.000  C
  C39      1.0000 0.87100  0.59860  0.47016  Biso   1.000  C
  C40      1.0000 0.37100  0.09860  0.97016  Biso   1.000  C
  C41      1.0000 0.37440  0.44640  0.39980  Biso   1.000  C
  C42      1.0000 0.87440  0.94640  0.89980  Biso   1.000  C
  C43      1.0000 0.12560  0.44640  0.60020  Biso   1.000  C
  C44      1.0000 0.62560  0.94640  0.10020  Biso   1.000  C
  C45      1.0000 0.62560  0.55360  0.60020  Biso   1.000  C
  C46      1.0000 0.12560  0.05360  0.10020  Biso   1.000  C
  C47      1.0000 0.87440  0.55360  0.39980  Biso   1.000  C
  C48      1.0000 0.37440  0.05360  0.89980  Biso   1.000  C
  H113     1.0000 0.37160  0.39280  0.35898  Biso   1.000  H
  H114     1.0000 0.87160  0.89280  0.85898  Biso   1.000  H
  H115     1.0000 0.12840  0.39280  0.64102  Biso   1.000  H
  H116     1.0000 0.62840  0.89280  0.14102  Biso   1.000  H
  H117     1.0000 0.62840  0.60720  0.64102  Biso   1.000  H
  H118     1.0000 0.12840  0.10720  0.14102  Biso   1.000  H
  H119     1.0000 0.87160  0.60720  0.35898  Biso   1.000  H
  H120     1.0000 0.37160  0.10720  0.85898  Biso   1.000  H
  C49      1.0000 0.39170  0.61830  0.31381  Biso   1.000  C
  C50      1.0000 0.89170  0.11830  0.81381  Biso   1.000  C
  C51      1.0000 0.10830  0.61830  0.68619  Biso   1.000  C
  C52      1.0000 0.60830  0.11830  0.18619  Biso   1.000  C
  C53      1.0000 0.60830  0.38170  0.68619  Biso   1.000  C
  C54      1.0000 0.10830  0.88170  0.18619  Biso   1.000  C
  C55      1.0000 0.89170  0.38170  0.31381  Biso   1.000  C
  C56      1.0000 0.39170  0.88170  0.81381  Biso   1.000  C
  C57      1.0000 0.38560  0.68320  0.58309  Biso   1.000  C
  C58      1.0000 0.88560  0.18320  0.08309  Biso   1.000  C
  C59      1.0000 0.11440  0.68320  0.41691  Biso   1.000  C
  C60      1.0000 0.61440  0.18320  0.91691  Biso   1.000  C
  C61      1.0000 0.61440  0.31680  0.41691  Biso   1.000  C
  C62      1.0000 0.11440  0.81680  0.91691  Biso   1.000  C
  C63      1.0000 0.88560  0.31680  0.58309  Biso   1.000  C
  C64      1.0000 0.38560  0.81680  0.08309  Biso   1.000  C
  C65      1.0000 0.36830  0.26870  0.48470  Biso   1.000  C
  C66      1.0000 0.86830  0.76870  0.98470  Biso   1.000  C
  C67      1.0000 0.13170  0.26870  0.51530  Biso   1.000  C
  C68      1.0000 0.63170  0.76870  0.01530  Biso   1.000  C
  C69      1.0000 0.63170  0.73130  0.51530  Biso   1.000  C
  C70      1.0000 0.13170  0.23130  0.01530  Biso   1.000  C
  C71      1.0000 0.86830  0.73130  0.48470  Biso   1.000  C
  C72      1.0000 0.36830  0.23130  0.98470  Biso   1.000  C
