data_image0
_cell_length_a       8.159
_cell_length_b       9.473
_cell_length_c       12.413
_cell_angle_alpha    89.518
_cell_angle_beta     75.136
_cell_angle_gamma    82.095

_symmetry_space_group_name_H-M    "P 1"
_symmetry_int_tables_number       1

loop_
  _symmetry_equiv_pos_as_xyz
  'x, y, z'

loop_
  _atom_site_label
  _atom_site_occupancy
  _atom_site_fract_x
  _atom_site_fract_y
  _atom_site_fract_z
  _atom_site_thermal_displace_type
  _atom_site_B_iso_or_equiv
  _atom_site_type_symbol
  Cu1      1.0000 0.50000  0.50000  0.50000  Biso   1.000  Cu
  Cu2      1.0000 0.50000  0.00000  0.50000  Biso   1.000  Cu
  Cl1      1.0000 0.29560  0.23044  0.98410  Biso   1.000  Cl
  Cl2      1.0000 0.70440  0.76956  0.01590  Biso   1.000  Cl
  Cl3      1.0000 0.17477  0.31641  0.42596  Biso   1.000  Cl
  Cl4      1.0000 0.82523  0.68359  0.57404  Biso   1.000  Cl
  O1       1.0000 0.23030  0.00850  0.43410  Biso   1.000  O
  O2       1.0000 0.76970  0.99150  0.56590  Biso   1.000  O
  O3       1.0000 0.47030  0.79870  0.47890  Biso   1.000  O
  O4       1.0000 0.52970  0.20130  0.52110  Biso   1.000  O
  O5       1.0000 0.30850  0.63290  0.46942  Biso   1.000  O
  O6       1.0000 0.69150  0.36710  0.53058  Biso   1.000  O
  O7       1.0000 0.12830  0.72770  0.06150  Biso   1.000  O
  O8       1.0000 0.87170  0.27230  0.93850  Biso   1.000  O
  O9       1.0000 0.33050  0.56150  0.07170  Biso   1.000  O
  O10      1.0000 0.66950  0.43850  0.92830  Biso   1.000  O
  O11      1.0000 0.15060  0.64970  0.22150  Biso   1.000  O
  O12      1.0000 0.84940  0.35030  0.77850  Biso   1.000  O
  N1       1.0000 0.34310  0.00700  0.65020  Biso   1.000  N
  N2       1.0000 0.65690  0.99300  0.34980  Biso   1.000  N
  N3       1.0000 0.13290  0.08640  0.79290  Biso   1.000  N
  N4       1.0000 0.86710  0.91360  0.20710  Biso   1.000  N
  H1       1.0000 0.05170  0.14320  0.83590  Biso   1.000  H
  H2       1.0000 0.94830  0.85680  0.16410  Biso   1.000  H
  N5       1.0000 0.38310  0.51120  0.65880  Biso   1.000  N
  N6       1.0000 0.61690  0.48880  0.34120  Biso   1.000  N
  N7       1.0000 0.34120  0.53130  0.83880  Biso   1.000  N
  N8       1.0000 0.65880  0.46870  0.16120  Biso   1.000  N
  H3       1.0000 0.36180  0.53390  0.90330  Biso   1.000  H
  H4       1.0000 0.63820  0.46610  0.09670  Biso   1.000  H
  N9       1.0000 0.20310  0.64600  0.11890  Biso   1.000  N
  N10      1.0000 0.79690  0.35400  0.88110  Biso   1.000  N
  C1       1.0000 0.24970  0.05320  0.32660  Biso   1.000  C
  C2       1.0000 0.75030  0.94680  0.67340  Biso   1.000  C
  C3       1.0000 0.22630  0.20010  0.31110  Biso   1.000  C
  C4       1.0000 0.77370  0.79990  0.68890  Biso   1.000  C
  C5       1.0000 0.24300  0.25380  0.20710  Biso   1.000  C
  C6       1.0000 0.75700  0.74620  0.79290  Biso   1.000  C
  H5       1.0000 0.22790  0.35180  0.19780  Biso   1.000  H
  H6       1.0000 0.77210  0.64820  0.80220  Biso   1.000  H
  C7       1.0000 0.28260  0.16150  0.11590  Biso   1.000  C
  C8       1.0000 0.71740  0.83850  0.88410  Biso   1.000  C
  C9       1.0000 0.30860  0.01740  0.12790  Biso   1.000  C
  C10      1.0000 0.69140  0.98260  0.87210  Biso   1.000  C
  H7       1.0000 0.33640  0.95620  0.06580  Biso   1.000  H
  H8       1.0000 0.66360  0.04380  0.93420  Biso   1.000  H
  C11      1.0000 0.29330  0.96340  0.23310  Biso   1.000  C
  C12      1.0000 0.70670  0.03660  0.76690  Biso   1.000  C
  H9       1.0000 0.31250  0.86530  0.24140  Biso   1.000  H
  H10      1.0000 0.68750  0.13470  0.75860  Biso   1.000  H
  C13      1.0000 0.18380  0.86800  0.45830  Biso   1.000  C
  C14      1.0000 0.81620  0.13200  0.54170  Biso   1.000  C
  H11      1.0000 0.13700  0.83660  0.39970  Biso   1.000  H
  H12      1.0000 0.86300  0.16340  0.60030  Biso   1.000  H
  H13      1.0000 0.09510  0.87270  0.52780  Biso   1.000  H
  H14      1.0000 0.90490  0.12730  0.47220  Biso   1.000  H
  C15      1.0000 0.33410  0.76000  0.46780  Biso   1.000  C
  C16      1.0000 0.66590  0.24000  0.53220  Biso   1.000  C
  C17      1.0000 0.45780  0.50480  0.74200  Biso   1.000  C
  C18      1.0000 0.54220  0.49520  0.25800  Biso   1.000  C
  H15      1.0000 0.57530  0.48470  0.73380  Biso   1.000  H
  H16      1.0000 0.42470  0.51530  0.26620  Biso   1.000  H
  C19      1.0000 0.18370  0.55350  0.81860  Biso   1.000  C
  C20      1.0000 0.81630  0.44650  0.18140  Biso   1.000  C
  H17      1.0000 0.07880  0.57310  0.87110  Biso   1.000  H
  H18      1.0000 0.92120  0.42690  0.12890  Biso   1.000  H
  C21      1.0000 0.21020  0.54140  0.70710  Biso   1.000  C
  C22      1.0000 0.78980  0.45860  0.29290  Biso   1.000  C
  H19      1.0000 0.12510  0.55190  0.66900  Biso   1.000  H
  H20      1.0000 0.87490  0.44810  0.33100  Biso   1.000  H
  C23      1.0000 0.23080  0.11920  0.69530  Biso   1.000  C
  C24      1.0000 0.76920  0.88080  0.30470  Biso   1.000  C
  H21      1.0000 0.22200  0.20820  0.66330  Biso   1.000  H
  H22      1.0000 0.77800  0.79180  0.33670  Biso   1.000  H
  C25      1.0000 0.31190  0.89960  0.72350  Biso   1.000  C
  C26      1.0000 0.68810  0.10040  0.27650  Biso   1.000  C
  H23      1.0000 0.37060  0.80730  0.71340  Biso   1.000  H
  H24      1.0000 0.62940  0.19270  0.28660  Biso   1.000  H
  C27      1.0000 0.18300  0.94760  0.81320  Biso   1.000  C
  C28      1.0000 0.81700  0.05240  0.18680  Biso   1.000  C
  H25      1.0000 0.13780  0.89660  0.87560  Biso   1.000  H
  H26      1.0000 0.86220  0.10340  0.12440  Biso   1.000  H
